0:0:0
     RDKit          3D

 12 13  0  0  1  0  0  0  0  0999 V2000
    1.8485  -10.4130    2.8822 C   0  0  0  0  0  0  0  0  0  0  0  0
    2.5061   -9.4331    2.1143 C   0  0  0  0  0  0  0  0  0  0  0  0
    1.9531   -8.2669    1.7176 N   0  0  0  0  0  0  0  0  0  0  0  0
    0.6652   -8.1079    2.1149 C   0  0  0  0  0  0  0  0  0  0  0  0
   -0.1773   -7.0967    1.9120 N   0  0  0  0  0  0  0  0  0  0  0  0
   -1.3602   -7.4671    2.5456 N   0  0  0  0  0  0  0  0  0  0  0  0
   -1.2992   -8.6330    3.1179 N   0  0  0  0  0  0  0  0  0  0  0  0
   -0.0403   -9.0554    2.8697 N   0  0  0  0  0  0  0  0  0  0  0  0
    0.5075  -10.2616    3.2974 C   0  0  0  0  0  0  0  0  0  0  0  0
    2.3792  -11.3166    3.1423 H   0  0  0  0  0  0  0  0  0  0  0  0
    3.5301   -9.5975    1.8062 H   0  0  0  0  0  0  0  0  0  0  0  0
   -0.0706  -10.9669    3.8796 H   0  0  0  0  0  0  0  0  0  0  0  0
  1  9  2  0
  1  2  1  0
  1 10  1  0
  2  3  2  0
  2 11  1  0
  3  4  1  0
  4  8  1  0
  4  5  2  0
  5  6  1  0
  6  7  2  0
  7  8  1  0
  8  9  1  0
  9 12  1  0
M  END
>  <i_m_ct_stereo_status>  (1) 
1

>  <s_m_source_file>  (1) 
/var/tmp/pbs.5076255.sched01/tmpvv81v907/0tx7qkblw.sdf

>  <i_m_source_file_index>  (1) 
1

>  <i_lp_mmshare_version>  (1) 
48012

>  <i_f3d_flags>  (1) 
0

>  <s_epik_input>  (1) 
bjFbY0hdW2NIXVtjSF1uKGMxMilubm4y

>  <s_epik_cmdline>  (1) 
J2VwaWtfcHl0aG9uJywgJy1waHQnLCAnMi4wJywgJy1waCcsICc3LjAnLCAnLXRuJywgJzgnLCAnLW1hJywgJzIwMCcsICctaW1hZScsICc8aW5maWxlLm1hZT4nLCAnLW9tYWUnLCAnPG91dGZpbGUubWFlPic=

>  <r_lp_tautomer_probability>  (1) 
1

>  <r_epik_Ionization_Penalty>  (1) 
3.47943e-11

>  <r_epik_Ionization_Penalty_Charging>  (1) 
0

>  <r_epik_Ionization_Penalty_Neutral>  (1) 
3.47943e-11

>  <r_epik_State_Penalty>  (1) 
-0

>  <r_epik_Charging_Adjusted_Penalty>  (1) 
0

>  <i_epik_Tot_Q>  (1) 
0

>  <i_epik_Tot_abs_Q>  (1) 
0

>  <s_lp_Force_Field>  (1) 
OPLS3e

>  <r_lp_Energy>  (1) 
14.6899

>  <b_lp_Chiralities_Consistent>  (1) 
1

>  <s_lp_Variant>  (1) 
0:0-1

>  <s_i_glide_gridfile>  (1) 
pfpi4k_grid

>  <i_i_glide_lignum>  (1) 
1

>  <i_i_glide_rotatable_bonds>  (1) 
0

>  <r_i_docking_score>  (1) 
-3.98091

>  <r_i_glide_ligand_efficiency>  (1) 
-0.442324

>  <r_i_glide_ligand_efficiency_sa>  (1) 
-0.92007

>  <r_i_glide_ligand_efficiency_ln>  (1) 
-1.24512

>  <r_i_glide_gscore>  (1) 
-3.98091

>  <r_i_glide_lipo>  (1) 
-0.0957746

>  <r_i_glide_hbond>  (1) 
0

>  <r_i_glide_metal>  (1) 
-0

>  <r_i_glide_rewards>  (1) 
-2.25

>  <r_i_glide_evdw>  (1) 
-16.2133

>  <r_i_glide_ecoul>  (1) 
-3.44572

>  <r_i_glide_erotb>  (1) 
0

>  <r_i_glide_esite>  (1) 
-0.307614

>  <r_i_glide_emodel>  (1) 
-25.6428

>  <r_i_glide_energy>  (1) 
-19.659

>  <r_i_glide_einternal>  (1) 
0

>  <r_i_glide_intrahb_reward>  (1) 
-0

>  <i_i_glide_confnum>  (1) 
1

>  <i_i_glide_posenum>  (1) 
34

>  <r_i_glide_eff_state_penalty>  (1) 
0

>  <ligand_id>  (1) 
0

>  <original_smiles>  (1) 
c1cnc2nnnn2c1

>  <smiles>  (1) 
[H]c1nc2nnnn2c([H])c1[H]

$$$$
0:0:1
     RDKit          3D

 12 13  0  0  1  0  0  0  0  0999 V2000
    0.2407  -10.1176    3.0060 C   0  0  0  0  0  0  0  0  0  0  0  0
   -0.9620   -9.3967    2.8758 C   0  0  0  0  0  0  0  0  0  0  0  0
   -1.0607   -8.1442    2.3877 N   0  0  0  0  0  0  0  0  0  0  0  0
    0.1296   -7.6163    2.0083 C   0  0  0  0  0  0  0  0  0  0  0  0
    0.4035   -6.4260    1.4837 N   0  0  0  0  0  0  0  0  0  0  0  0
    1.7840   -6.4069    1.3025 N   0  0  0  0  0  0  0  0  0  0  0  0
    2.3692   -7.5061    1.6785 N   0  0  0  0  0  0  0  0  0  0  0  0
    1.3555   -8.2826    2.1184 N   0  0  0  0  0  0  0  0  0  0  0  0
    1.4859   -9.5734    2.6229 C   0  0  0  0  0  0  0  0  0  0  0  0
    0.2132  -11.1159    3.4166 H   0  0  0  0  0  0  0  0  0  0  0  0
   -1.8914   -9.8541    3.1832 H   0  0  0  0  0  0  0  0  0  0  0  0
    2.4497  -10.0580    2.6919 H   0  0  0  0  0  0  0  0  0  0  0  0
  1  9  2  0
  1  2  1  0
  1 10  1  0
  2  3  2  0
  2 11  1  0
  3  4  1  0
  4  8  1  0
  4  5  2  0
  5  6  1  0
  6  7  2  0
  7  8  1  0
  8  9  1  0
  9 12  1  0
M  END
>  <i_m_ct_stereo_status>  (2) 
1

>  <s_m_source_file>  (2) 
/var/tmp/pbs.5076255.sched01/tmpvv81v907/0tx7qkblw.sdf

>  <i_m_source_file_index>  (2) 
1

>  <i_lp_mmshare_version>  (2) 
48012

>  <i_f3d_flags>  (2) 
0

>  <s_epik_input>  (2) 
bjFbY0hdW2NIXVtjSF1uKGMxMilubm4y

>  <s_epik_cmdline>  (2) 
J2VwaWtfcHl0aG9uJywgJy1waHQnLCAnMi4wJywgJy1waCcsICc3LjAnLCAnLXRuJywgJzgnLCAnLW1hJywgJzIwMCcsICctaW1hZScsICc8aW5maWxlLm1hZT4nLCAnLW9tYWUnLCAnPG91dGZpbGUubWFlPic=

>  <r_lp_tautomer_probability>  (2) 
1

>  <r_epik_Ionization_Penalty>  (2) 
3.47943e-11

>  <r_epik_Ionization_Penalty_Charging>  (2) 
0

>  <r_epik_Ionization_Penalty_Neutral>  (2) 
3.47943e-11

>  <r_epik_State_Penalty>  (2) 
-0

>  <r_epik_Charging_Adjusted_Penalty>  (2) 
0

>  <i_epik_Tot_Q>  (2) 
0

>  <i_epik_Tot_abs_Q>  (2) 
0

>  <s_lp_Force_Field>  (2) 
OPLS3e

>  <r_lp_Energy>  (2) 
14.6899

>  <b_lp_Chiralities_Consistent>  (2) 
1

>  <s_lp_Variant>  (2) 
0:0-1

>  <s_i_glide_gridfile>  (2) 
pfpi4k_grid

>  <i_i_glide_lignum>  (2) 
1

>  <i_i_glide_rotatable_bonds>  (2) 
0

>  <r_i_docking_score>  (2) 
-3.91551

>  <r_i_glide_ligand_efficiency>  (2) 
-0.435057

>  <r_i_glide_ligand_efficiency_sa>  (2) 
-0.904954

>  <r_i_glide_ligand_efficiency_ln>  (2) 
-1.22466

>  <r_i_glide_gscore>  (2) 
-3.91551

>  <r_i_glide_lipo>  (2) 
-0.077281

>  <r_i_glide_hbond>  (2) 
0

>  <r_i_glide_metal>  (2) 
-0

>  <r_i_glide_rewards>  (2) 
-2.25

>  <r_i_glide_evdw>  (2) 
-14.4358

>  <r_i_glide_ecoul>  (2) 
-4.08919

>  <r_i_glide_erotb>  (2) 
0

>  <r_i_glide_esite>  (2) 
-0.253061

>  <r_i_glide_emodel>  (2) 
-24.4107

>  <r_i_glide_energy>  (2) 
-18.525

>  <r_i_glide_einternal>  (2) 
0

>  <r_i_glide_intrahb_reward>  (2) 
-0

>  <i_i_glide_confnum>  (2) 
1

>  <i_i_glide_posenum>  (2) 
12

>  <r_i_glide_eff_state_penalty>  (2) 
0

>  <ligand_id>  (2) 
0

>  <original_smiles>  (2) 
c1cnc2nnnn2c1

>  <smiles>  (2) 
[H]c1nc2nnnn2c([H])c1[H]

$$$$
0:0:2
     RDKit          3D

 12 13  0  0  1  0  0  0  0  0999 V2000
    1.5031  -10.3229    2.9033 C   0  0  0  0  0  0  0  0  0  0  0  0
    0.1642   -9.9838    3.1758 C   0  0  0  0  0  0  0  0  0  0  0  0
   -0.4197   -8.8146    2.8498 N   0  0  0  0  0  0  0  0  0  0  0  0
    0.4095   -7.9518    2.2130 C   0  0  0  0  0  0  0  0  0  0  0  0
    0.1762   -6.7254    1.7500 N   0  0  0  0  0  0  0  0  0  0  0  0
    1.3836   -6.3014    1.2012 N   0  0  0  0  0  0  0  0  0  0  0  0
    2.3349   -7.1813    1.3029 N   0  0  0  0  0  0  0  0  0  0  0  0
    1.7504   -8.2288    1.9218 N   0  0  0  0  0  0  0  0  0  0  0  0
    2.3769   -9.4316    2.2436 C   0  0  0  0  0  0  0  0  0  0  0  0
    1.8712  -11.2941    3.2042 H   0  0  0  0  0  0  0  0  0  0  0  0
   -0.4731  -10.6934    3.6803 H   0  0  0  0  0  0  0  0  0  0  0  0
    3.4125   -9.6138    1.9980 H   0  0  0  0  0  0  0  0  0  0  0  0
  1  9  2  0
  1  2  1  0
  1 10  1  0
  2  3  2  0
  2 11  1  0
  3  4  1  0
  4  8  1  0
  4  5  2  0
  5  6  1  0
  6  7  2  0
  7  8  1  0
  8  9  1  0
  9 12  1  0
M  END
>  <i_m_ct_stereo_status>  (3) 
1

>  <s_m_source_file>  (3) 
/var/tmp/pbs.5076255.sched01/tmpvv81v907/0tx7qkblw.sdf

>  <i_m_source_file_index>  (3) 
1

>  <i_lp_mmshare_version>  (3) 
48012

>  <i_f3d_flags>  (3) 
0

>  <s_epik_input>  (3) 
bjFbY0hdW2NIXVtjSF1uKGMxMilubm4y

>  <s_epik_cmdline>  (3) 
J2VwaWtfcHl0aG9uJywgJy1waHQnLCAnMi4wJywgJy1waCcsICc3LjAnLCAnLXRuJywgJzgnLCAnLW1hJywgJzIwMCcsICctaW1hZScsICc8aW5maWxlLm1hZT4nLCAnLW9tYWUnLCAnPG91dGZpbGUubWFlPic=

>  <r_lp_tautomer_probability>  (3) 
1

>  <r_epik_Ionization_Penalty>  (3) 
3.47943e-11

>  <r_epik_Ionization_Penalty_Charging>  (3) 
0

>  <r_epik_Ionization_Penalty_Neutral>  (3) 
3.47943e-11

>  <r_epik_State_Penalty>  (3) 
-0

>  <r_epik_Charging_Adjusted_Penalty>  (3) 
0

>  <i_epik_Tot_Q>  (3) 
0

>  <i_epik_Tot_abs_Q>  (3) 
0

>  <s_lp_Force_Field>  (3) 
OPLS3e

>  <r_lp_Energy>  (3) 
14.6899

>  <b_lp_Chiralities_Consistent>  (3) 
1

>  <s_lp_Variant>  (3) 
0:0-1

>  <s_i_glide_gridfile>  (3) 
pfpi4k_grid

>  <i_i_glide_lignum>  (3) 
1

>  <i_i_glide_rotatable_bonds>  (3) 
0

>  <r_i_docking_score>  (3) 
-3.90643

>  <r_i_glide_ligand_efficiency>  (3) 
-0.434048

>  <r_i_glide_ligand_efficiency_sa>  (3) 
-0.902857

>  <r_i_glide_ligand_efficiency_ln>  (3) 
-1.22182

>  <r_i_glide_gscore>  (3) 
-3.90643

>  <r_i_glide_lipo>  (3) 
-0.154441

>  <r_i_glide_hbond>  (3) 
0

>  <r_i_glide_metal>  (3) 
-0

>  <r_i_glide_rewards>  (3) 
-2.25

>  <r_i_glide_evdw>  (3) 
-13.9295

>  <r_i_glide_ecoul>  (3) 
-3.64994

>  <r_i_glide_erotb>  (3) 
0

>  <r_i_glide_esite>  (3) 
-0.258025

>  <r_i_glide_emodel>  (3) 
-23.451

>  <r_i_glide_energy>  (3) 
-17.5795

>  <r_i_glide_einternal>  (3) 
0

>  <r_i_glide_intrahb_reward>  (3) 
-0

>  <i_i_glide_confnum>  (3) 
2

>  <i_i_glide_posenum>  (3) 
19

>  <r_i_glide_eff_state_penalty>  (3) 
0

>  <ligand_id>  (3) 
0

>  <original_smiles>  (3) 
c1cnc2nnnn2c1

>  <smiles>  (3) 
[H]c1nc2nnnn2c([H])c1[H]

$$$$
2:0:0
     RDKit          3D

 84 92  0  0  1  0  0  0  0  0999 V2000
    7.8159   -3.0254    0.8807 C   0  0  0  0  0  0  0  0  0  0  0  0
    6.5710   -2.4295    1.2359 O   0  0  0  0  0  0  0  0  0  0  0  0
    5.5352   -3.2674    1.7617 C   0  0  2  0  0  0  0  0  0  0  0  0
    5.5733   -4.7212    1.0467 C   0  0  0  0  0  0  0  0  0  0  0  0
    4.5854   -5.9728    1.0675 C   0  0  2  0  0  0  0  0  0  0  0  0
    3.1378   -5.6779    0.5741 C   0  0  0  0  0  0  0  0  0  0  0  0
    2.5359   -4.6419   -0.0356 C   0  0  0  0  0  0  0  0  0  0  0  0
    3.0315   -3.3434   -0.4384 C   0  0  2  0  0  0  0  0  0  0  0  0
    2.5903   -2.8898   -1.8106 C   0  0  0  0  0  0  0  0  0  0  0  0
    4.0436   -3.0893   -1.5423 C   0  0  2  0  0  0  0  0  0  0  0  0
    4.6185   -4.3091   -2.0706 O   0  0  0  0  0  0  0  0  0  0  0  0
    5.0427   -1.9795   -1.4396 C   0  0  1  0  0  0  0  0  0  0  0  0
    5.2425   -1.3638   -2.7040 O   0  0  0  0  0  0  0  0  0  0  0  0
    4.1837   -0.7166   -3.4028 C   0  0  0  0  0  0  0  0  0  0  0  0
    4.7176   -0.9037   -0.3784 C   0  0  0  0  0  0  0  0  0  0  0  0
    3.8684   -1.3374    0.8178 C   0  0  2  0  0  0  0  0  0  0  0  0
    4.2897   -2.2732    1.9654 C   0  0  1  0  0  0  0  0  0  0  0  0
    2.7132   -2.4721    2.0699 C   0  0  2  0  0  0  0  0  0  0  0  0
    1.7691   -3.5000    2.9166 C   0  0  0  0  0  0  0  0  0  0  0  0
    2.4969   -4.2762    4.0954 C   0  0  2  0  0  0  0  0  0  0  0  0
    3.4754   -5.0620    3.3515 C   0  0  1  0  0  0  0  0  0  0  0  0
    4.7576   -5.1322    4.2180 C   0  0  1  0  0  0  0  0  0  0  0  0
    5.0815   -4.1445    5.1882 O   0  0  0  0  0  0  0  0  0  0  0  0
    4.5602   -6.4553    4.7558 C   0  0  0  0  0  0  0  0  0  0  0  0
    4.9282   -7.3048    3.7315 C   0  0  0  0  0  0  0  0  0  0  0  0
    4.3193   -7.0250    2.3042 C   0  0  1  0  0  0  0  0  0  0  0  0
    2.9778   -6.4801    2.6700 C   0  0  2  0  0  0  0  0  0  0  0  0
    2.2730   -6.6143    1.3283 C   0  0  1  0  0  0  0  0  0  0  0  0
    0.8802   -6.3577    1.3768 O   0  0  0  0  0  0  0  0  0  0  0  0
    3.2085   -6.4768    5.6199 C   0  0  1  0  0  0  0  0  0  0  0  0
    2.5910   -7.8971    5.6297 C   0  0  0  0  0  0  0  0  0  0  0  0
    2.6501   -8.3529    7.0682 C   0  0  0  0  0  0  0  0  0  0  0  0
    2.6339   -7.1483    7.8088 O   0  0  0  0  0  0  0  0  0  0  0  0
    3.4919   -6.2682    7.1540 C   0  0  1  0  0  0  0  0  0  0  0  0
    4.8216   -6.5496    7.4563 O   0  0  0  0  0  0  0  0  0  0  0  0
    5.1402   -6.3094    8.8278 C   0  0  0  0  0  0  0  0  0  0  0  0
    2.0392   -5.3793    5.1394 C   0  0  1  0  0  0  0  0  0  0  0  0
    1.4669   -4.7702    6.2959 O   0  0  0  0  0  0  0  0  0  0  0  0
    0.2414   -4.0841    6.1186 C   0  0  0  0  0  0  0  0  0  0  0  0
    2.7152   -2.2449    0.5590 N   0  0  2  0  0  0  0  0  0  0  0  0
    8.5564   -2.2477    0.6853 H   0  0  0  0  0  0  0  0  0  0  0  0
    7.7302   -3.6085   -0.0403 H   0  0  0  0  0  0  0  0  0  0  0  0
    8.1949   -3.6775    1.6650 H   0  0  0  0  0  0  0  0  0  0  0  0
    5.9234   -3.3940    2.7596 H   0  0  0  0  0  0  0  0  0  0  0  0
    5.7275   -4.5271   -0.0053 H   0  0  0  0  0  0  0  0  0  0  0  0
    6.5025   -5.1783    1.3748 H   0  0  0  0  0  0  0  0  0  0  0  0
    4.9949   -6.6047    0.2768 H   0  0  0  0  0  0  0  0  0  0  0  0
    1.4736   -4.7121   -0.1888 H   0  0  0  0  0  0  0  0  0  0  0  0
    2.1436   -3.5858   -2.5019 H   0  0  0  0  0  0  0  0  0  0  0  0
    2.2344   -1.8661   -1.9145 H   0  0  0  0  0  0  0  0  0  0  0  0
    3.9033   -4.8975   -2.3226 H   0  0  0  0  0  0  0  0  0  0  0  0
    5.9823   -2.4435   -1.1588 H   0  0  0  0  0  0  0  0  0  0  0  0
    4.5828   -0.3016   -4.3337 H   0  0  0  0  0  0  0  0  0  0  0  0
    3.7819    0.1123   -2.8268 H   0  0  0  0  0  0  0  0  0  0  0  0
    3.3841   -1.4068   -3.6642 H   0  0  0  0  0  0  0  0  0  0  0  0
    5.6526   -0.4619   -0.0123 H   0  0  0  0  0  0  0  0  0  0  0  0
    4.2135   -0.0572   -0.8393 H   0  0  0  0  0  0  0  0  0  0  0  0
    3.4889   -0.4075    1.2454 H   0  0  0  0  0  0  0  0  0  0  0  0
    4.5413   -1.6154    2.7990 H   0  0  0  0  0  0  0  0  0  0  0  0
    2.3285   -1.5298    2.4837 H   0  0  0  0  0  0  0  0  0  0  0  0
    0.9443   -2.9318    3.3510 H   0  0  0  0  0  0  0  0  0  0  0  0
    1.2809   -4.1997    2.2658 H   0  0  0  0  0  0  0  0  0  0  0  0
    2.9292   -3.4501    4.6572 H   0  0  0  0  0  0  0  0  0  0  0  0
    3.7590   -4.4521    2.5820 H   0  0  0  0  0  0  0  0  0  0  0  0
    5.6778   -5.1666    3.6286 H   0  0  0  0  0  0  0  0  0  0  0  0
    4.3873   -4.1055    5.8269 H   0  0  0  0  0  0  0  0  0  0  0  0
    4.8341   -8.3553    3.9347 H   0  0  0  0  0  0  0  0  0  0  0  0
    4.2478   -8.0194    1.8598 H   0  0  0  0  0  0  0  0  0  0  0  0
    2.4435   -7.1701    3.3079 H   0  0  0  0  0  0  0  0  0  0  0  0
    2.3717   -7.6113    0.8885 H   0  0  0  0  0  0  0  0  0  0  0  0
    0.4743   -7.1393    1.7277 H   0  0  0  0  0  0  0  0  0  0  0  0
    1.5423   -7.8760    5.3221 H   0  0  0  0  0  0  0  0  0  0  0  0
    3.1061   -8.6395    5.0132 H   0  0  0  0  0  0  0  0  0  0  0  0
    1.8290   -9.0298    7.3076 H   0  0  0  0  0  0  0  0  0  0  0  0
    3.5909   -8.8688    7.2530 H   0  0  0  0  0  0  0  0  0  0  0  0
    3.3073   -5.2503    7.5199 H   0  0  0  0  0  0  0  0  0  0  0  0
    6.1923   -6.5386    8.9881 H   0  0  0  0  0  0  0  0  0  0  0  0
    4.5512   -6.9491    9.4903 H   0  0  0  0  0  0  0  0  0  0  0  0
    4.9760   -5.2689    9.1278 H   0  0  0  0  0  0  0  0  0  0  0  0
    1.2244   -5.9063    4.6442 H   0  0  0  0  0  0  0  0  0  0  0  0
   -0.1666   -3.8229    7.0961 H   0  0  0  0  0  0  0  0  0  0  0  0
   -0.5122   -4.6846    5.6046 H   0  0  0  0  0  0  0  0  0  0  0  0
    0.3936   -3.1518    5.5766 H   0  0  0  0  0  0  0  0  0  0  0  0
    1.9099   -1.7022    0.2323 H   0  0  0  0  0  0  0  0  0  0  0  0
  1  2  1  0
  1 41  1  0
  1 42  1  0
  1 43  1  0
  2  3  1  0
  3 17  1  0
  3  4  1  0
  3 44  1  1
  4  5  1  0
  4 45  1  0
  4 46  1  0
  5 26  1  0
  5  6  1  0
  5 47  1  6
  6 28  1  0
  6  7  2  3
  7  8  1  0
  7 48  1  0
  8 10  1  0
  8 40  1  0
  8  9  1  6
  9 10  1  0
  9 49  1  0
  9 50  1  0
 10 11  1  6
 10 12  1  0
 11 51  1  0
 12 13  1  0
 12 15  1  0
 12 52  1  1
 13 14  1  0
 14 53  1  0
 14 54  1  0
 14 55  1  0
 15 16  1  0
 15 56  1  0
 15 57  1  0
 16 40  1  0
 16 17  1  0
 16 58  1  1
 17 18  1  0
 17 59  1  1
 18 19  1  0
 18 40  1  0
 18 60  1  1
 19 20  1  0
 19 61  1  0
 19 62  1  0
 20 37  1  0
 20 21  1  0
 20 63  1  1
 21 27  1  0
 21 22  1  0
 21 64  1  6
 22 23  1  0
 22 24  1  0
 22 65  1  6
 23 66  1  0
 24 25  2  0
 24 30  1  0
 25 26  1  0
 25 67  1  0
 26 27  1  0
 26 68  1  6
 27 28  1  0
 27 69  1  1
 28 29  1  0
 28 70  1  6
 29 71  1  0
 30 34  1  0
 30 31  1  1
 30 37  1  0
 31 32  1  0
 31 72  1  0
 31 73  1  0
 32 33  1  0
 32 74  1  0
 32 75  1  0
 33 34  1  0
 34 35  1  0
 34 76  1  1
 35 36  1  0
 36 77  1  0
 36 78  1  0
 36 79  1  0
 37 38  1  0
 37 80  1  6
 38 39  1  0
 39 81  1  0
 39 82  1  0
 39 83  1  0
 40 84  1  6
M  CHG  1  40   1
M  END
>  <i_m_ct_stereo_status>  (4) 
1

>  <s_m_source_file>  (4) 
/var/tmp/pbs.5076255.sched01/tmpvv81v907/0tx7qkblw.sdf

>  <i_m_source_file_index>  (4) 
4

>  <i_lp_mmshare_version>  (4) 
48012

>  <i_f3d_flags>  (4) 
0

>  <s_epik_input>  (4) 
W0NIM11PW0NAQEhdMU9bQ0gyXVtDSDJdW0NAXTEoW0NASF0yT1tDSDNdKUMoW0NAQEhdM1tPSF0pPVtDSF1bQ0BIXShbQ0BASF0oL0MoPVtDSF1cNClbQ0BASF01W09IXSlbQ0gyXVtDQEhdNk9bQ0gzXSlbQ0BIXTVbQ0BIXTNbQ0BIXTJbQ0gyXVtDQEhdKE43OClbQ0BASF02W0NASF04W0NIMl1bQ0BASF0oW0NAQF0oW0NAQF00NzkpKFtDSDJdOSlbT0hdKU9bQ0gzXQ==

>  <s_epik_cmdline>  (4) 
J2VwaWtfcHl0aG9uJywgJy1waHQnLCAnMi4wJywgJy1waCcsICc3LjAnLCAnLXRuJywgJzgnLCAnLW1hJywgJzIwMCcsICctaW1hZScsICc8aW5maWxlLm1hZT4nLCAnLW9tYWUnLCAnPG91dGZpbGUubWFlPic=

>  <r_epik_Ionization_Penalty>  (4) 
0.00302699

>  <r_epik_Ionization_Penalty_Charging>  (4) 
0.00302414

>  <r_epik_Ionization_Penalty_Neutral>  (4) 
2.84646e-06

>  <r_epik_State_Penalty>  (4) 
0.00212449

>  <r_epik_Charging_Adjusted_Penalty>  (4) 
0.00514863

>  <i_epik_Tot_Q>  (4) 
1

>  <i_epik_Tot_abs_Q>  (4) 
1

>  <s_epik_Chemistry_Notes>  (4) 
This compound contains an acetal/aminal-like group ( X-CH(R)-Y where X, Y are N, S, or O) that may be acid/base labile, releasing an aldehyde.

>  <s_lp_Force_Field>  (4) 
OPLS3e

>  <r_lp_Energy>  (4) 
309.624

>  <b_lp_Chiralities_Consistent>  (4) 
1

>  <s_lp_Variant>  (4) 
2:0-1

>  <s_i_glide_gridfile>  (4) 
pfpi4k_grid

>  <i_i_glide_lignum>  (4) 
4

>  <i_i_glide_rotatable_bonds>  (4) 
7

>  <r_i_docking_score>  (4) 
-4.20916

>  <r_i_glide_ligand_efficiency>  (4) 
-0.105229

>  <r_i_glide_ligand_efficiency_sa>  (4) 
-0.359878

>  <r_i_glide_ligand_efficiency_ln>  (4) 
-0.897689

>  <r_i_glide_gscore>  (4) 
-4.20916

>  <r_i_glide_lipo>  (4) 
-0.56197

>  <r_i_glide_hbond>  (4) 
-0.348005

>  <r_i_glide_metal>  (4) 
-0

>  <r_i_glide_rewards>  (4) 
0

>  <r_i_glide_evdw>  (4) 
-16.0912

>  <r_i_glide_ecoul>  (4) 
-16.1865

>  <r_i_glide_erotb>  (4) 
0

>  <r_i_glide_esite>  (4) 
-0.0666468

>  <r_i_glide_emodel>  (4) 
-33.8645

>  <r_i_glide_energy>  (4) 
-32.2777

>  <r_i_glide_einternal>  (4) 
13.4509

>  <r_i_glide_intrahb_reward>  (4) 
-0

>  <i_i_glide_confnum>  (4) 
2

>  <i_i_glide_posenum>  (4) 
18

>  <r_i_glide_eff_state_penalty>  (4) 
0

>  <ligand_id>  (4) 
2

>  <original_smiles>  (4) 
COC1CC2C3=CC45CC4(O)C(OC)CC4C1C(CC1C6C(O)C(=CC2C6C3O)C2(CCOC2OC)C1OC)N45

>  <smiles>  (4) 
[H]OC1([H])C2=C([H])C34C([H])([H])C3(O[H])C([H])(OC([H])([H])[H])C([H])([H])C3([H])C5([H])C([H])(OC([H])([H])[H])C([H])([H])C2([H])C2([H])C([H])=C6C([H])(O[H])C([H])(C([H])(C([H])([H])C5([H])[N+]34[H])C([H])(OC([H])([H])[H])C63C([H])(OC([H])([H])[H])OC([H])([H])C3([H])[H])C12[H]

$$$$
2:0:1
     RDKit          3D

 84 92  0  0  1  0  0  0  0  0999 V2000
    8.3714   -5.6454    1.7386 C   0  0  0  0  0  0  0  0  0  0  0  0
    7.3582   -4.6779    1.9814 O   0  0  0  0  0  0  0  0  0  0  0  0
    6.0793   -5.1426    2.3987 C   0  0  2  0  0  0  0  0  0  0  0  0
    5.5897   -6.2733    1.3519 C   0  0  0  0  0  0  0  0  0  0  0  0
    4.1882   -6.9981    1.1354 C   0  0  2  0  0  0  0  0  0  0  0  0
    2.9978   -6.0566    0.8102 C   0  0  0  0  0  0  0  0  0  0  0  0
    2.8698   -4.7338    0.4842 C   0  0  0  0  0  0  0  0  0  0  0  0
    3.8415   -3.6647    0.3755 C   0  0  2  0  0  0  0  0  0  0  0  0
    3.7187   -2.7235   -0.8279 C   0  0  0  0  0  0  0  0  0  0  0  0
    4.9377   -3.5669   -0.6770 C   0  0  2  0  0  0  0  0  0  0  0  0
    5.0077   -4.6546   -1.5603 O   0  0  0  0  0  0  0  0  0  0  0  0
    6.3185   -3.0640   -0.3606 C   0  0  1  0  0  0  0  0  0  0  0  0
    6.7510   -2.2717   -1.4616 O   0  0  0  0  0  0  0  0  0  0  0  0
    8.1309   -2.4089   -1.7694 C   0  0  0  0  0  0  0  0  0  0  0  0
    6.3413   -2.1715    0.8720 C   0  0  0  0  0  0  0  0  0  0  0  0
    5.3524   -2.5307    1.9994 C   0  0  2  0  0  0  0  0  0  0  0  0
    5.3187   -3.8066    2.8662 C   0  0  1  0  0  0  0  0  0  0  0  0
    3.7872   -3.4067    3.0193 C   0  0  2  0  0  0  0  0  0  0  0  0
    2.4729   -4.1426    3.6520 C   0  0  0  0  0  0  0  0  0  0  0  0
    2.7867   -5.4092    4.5769 C   0  0  2  0  0  0  0  0  0  0  0  0
    3.4132   -6.3040    3.6273 C   0  0  1  0  0  0  0  0  0  0  0  0
    4.5326   -7.0677    4.3769 C   0  0  1  0  0  0  0  0  0  0  0  0
    5.1688   -6.5542    5.5405 O   0  0  0  0  0  0  0  0  0  0  0  0
    3.8166   -8.3076    4.6146 C   0  0  0  0  0  0  0  0  0  0  0  0
    3.8476   -8.9723    3.3887 C   0  0  0  0  0  0  0  0  0  0  0  0
    3.4843   -8.1377    2.1014 C   0  0  1  0  0  0  0  0  0  0  0  0
    2.4457   -7.2205    2.6583 C   0  0  2  0  0  0  0  0  0  0  0  0
    1.8117   -6.7431    1.3653 C   0  0  1  0  0  0  0  0  0  0  0  0
    0.6275   -6.0301    1.6001 O   0  0  0  0  0  0  0  0  0  0  0  0
    2.5163   -7.9992    5.5157 C   0  0  1  0  0  0  0  0  0  0  0  0
    1.4211   -9.0568    5.1967 C   0  0  0  0  0  0  0  0  0  0  0  0
    1.2233   -9.8191    6.4966 C   0  0  0  0  0  0  0  0  0  0  0  0
    1.6394   -8.9049    7.5004 O   0  0  0  0  0  0  0  0  0  0  0  0
    2.7978   -8.2980    7.0254 C   0  0  1  0  0  0  0  0  0  0  0  0
    3.9065   -9.1568    7.1805 O   0  0  0  0  0  0  0  0  0  0  0  0
    4.1910   -9.4460    8.5558 C   0  0  0  0  0  0  0  0  0  0  0  0
    1.8968   -6.4761    5.3611 C   0  0  1  0  0  0  0  0  0  0  0  0
    1.5793   -5.9560    6.6541 O   0  0  0  0  0  0  0  0  0  0  0  0
    0.4514   -5.0838    6.7344 C   0  0  0  0  0  0  0  0  0  0  0  0
    3.9361   -2.8216    1.6284 N   0  0  2  0  0  0  0  0  0  0  0  0
    9.3385   -5.1485    1.6699 H   0  0  0  0  0  0  0  0  0  0  0  0
    8.2018   -6.1382    0.7825 H   0  0  0  0  0  0  0  0  0  0  0  0
    8.4323   -6.4005    2.5248 H   0  0  0  0  0  0  0  0  0  0  0  0
    6.3552   -5.6339    3.3240 H   0  0  0  0  0  0  0  0  0  0  0  0
    5.8679   -5.9019    0.3734 H   0  0  0  0  0  0  0  0  0  0  0  0
    6.2508   -7.1158    1.5177 H   0  0  0  0  0  0  0  0  0  0  0  0
    4.3455   -7.5296    0.1993 H   0  0  0  0  0  0  0  0  0  0  0  0
    1.8698   -4.3633    0.4153 H   0  0  0  0  0  0  0  0  0  0  0  0
    3.0582   -3.0137   -1.6366 H   0  0  0  0  0  0  0  0  0  0  0  0
    3.8826   -1.6499   -0.7380 H   0  0  0  0  0  0  0  0  0  0  0  0
    4.1287   -4.9272   -1.8048 H   0  0  0  0  0  0  0  0  0  0  0  0
    6.9524   -3.9407   -0.2389 H   0  0  0  0  0  0  0  0  0  0  0  0
    8.3434   -1.8685   -2.6764 H   0  0  0  0  0  0  0  0  0  0  0  0
    8.4182   -3.4500   -1.9302 H   0  0  0  0  0  0  0  0  0  0  0  0
    8.7392   -1.9918   -0.9695 H   0  0  0  0  0  0  0  0  0  0  0  0
    7.3553   -2.1840    1.2570 H   0  0  0  0  0  0  0  0  0  0  0  0
    6.1752   -1.1385    0.5622 H   0  0  0  0  0  0  0  0  0  0  0  0
    5.3499   -1.6724    2.6679 H   0  0  0  0  0  0  0  0  0  0  0  0
    5.7485   -3.5161    3.8141 H   0  0  0  0  0  0  0  0  0  0  0  0
    3.8046   -2.5308    3.6736 H   0  0  0  0  0  0  0  0  0  0  0  0
    1.9328   -3.4346    4.2792 H   0  0  0  0  0  0  0  0  0  0  0  0
    1.7503   -4.3868    2.8886 H   0  0  0  0  0  0  0  0  0  0  0  0
    3.4780   -4.9752    5.2986 H   0  0  0  0  0  0  0  0  0  0  0  0
    3.9455   -5.6932    3.0147 H   0  0  0  0  0  0  0  0  0  0  0  0
    5.3816   -7.3290    3.7499 H   0  0  0  0  0  0  0  0  0  0  0  0
    4.5219   -6.4450    6.2220 H   0  0  0  0  0  0  0  0  0  0  0  0
    3.2770   -9.8680    3.4103 H   0  0  0  0  0  0  0  0  0  0  0  0
    3.0498   -8.8838    1.4459 H   0  0  0  0  0  0  0  0  0  0  0  0
    1.6555   -7.7872    3.1428 H   0  0  0  0  0  0  0  0  0  0  0  0
    1.5045   -7.5734    0.7240 H   0  0  0  0  0  0  0  0  0  0  0  0
    0.0123   -6.6723    1.9223 H   0  0  0  0  0  0  0  0  0  0  0  0
    0.4630   -8.5679    4.9908 H   0  0  0  0  0  0  0  0  0  0  0  0
    1.6829   -9.7637    4.3892 H   0  0  0  0  0  0  0  0  0  0  0  0
    0.1953  -10.1637    6.6314 H   0  0  0  0  0  0  0  0  0  0  0  0
    1.8919  -10.6568    6.4830 H   0  0  0  0  0  0  0  0  0  0  0  0
    3.0194   -7.4293    7.6354 H   0  0  0  0  0  0  0  0  0  0  0  0
    5.0631  -10.0876    8.5932 H   0  0  0  0  0  0  0  0  0  0  0  0
    3.3599   -9.9734    9.0203 H   0  0  0  0  0  0  0  0  0  0  0  0
    4.4024   -8.5505    9.1437 H   0  0  0  0  0  0  0  0  0  0  0  0
    0.9689   -6.5016    4.7873 H   0  0  0  0  0  0  0  0  0  0  0  0
    0.1935   -4.9225    7.7821 H   0  0  0  0  0  0  0  0  0  0  0  0
   -0.4376   -5.4943    6.2560 H   0  0  0  0  0  0  0  0  0  0  0  0
    0.6824   -4.1167    6.2944 H   0  0  0  0  0  0  0  0  0  0  0  0
    3.3895   -1.9790    1.5237 H   0  0  0  0  0  0  0  0  0  0  0  0
  1  2  1  0
  1 41  1  0
  1 42  1  0
  1 43  1  0
  2  3  1  0
  3 17  1  0
  3  4  1  0
  3 44  1  1
  4  5  1  0
  4 45  1  0
  4 46  1  0
  5 26  1  0
  5  6  1  0
  5 47  1  6
  6 28  1  0
  6  7  2  3
  7  8  1  0
  7 48  1  0
  8 10  1  0
  8 40  1  0
  8  9  1  6
  9 10  1  0
  9 49  1  0
  9 50  1  0
 10 11  1  6
 10 12  1  0
 11 51  1  0
 12 13  1  0
 12 15  1  0
 12 52  1  1
 13 14  1  0
 14 53  1  0
 14 54  1  0
 14 55  1  0
 15 16  1  0
 15 56  1  0
 15 57  1  0
 16 40  1  0
 16 17  1  0
 16 58  1  1
 17 18  1  0
 17 59  1  1
 18 19  1  0
 18 40  1  0
 18 60  1  1
 19 20  1  0
 19 61  1  0
 19 62  1  0
 20 37  1  0
 20 21  1  0
 20 63  1  1
 21 27  1  0
 21 22  1  0
 21 64  1  6
 22 23  1  0
 22 24  1  0
 22 65  1  6
 23 66  1  0
 24 25  2  0
 24 30  1  0
 25 26  1  0
 25 67  1  0
 26 27  1  0
 26 68  1  6
 27 28  1  0
 27 69  1  1
 28 29  1  0
 28 70  1  6
 29 71  1  0
 30 34  1  0
 30 31  1  6
 30 37  1  0
 31 32  1  0
 31 72  1  0
 31 73  1  0
 32 33  1  0
 32 74  1  0
 32 75  1  0
 33 34  1  0
 34 35  1  0
 34 76  1  1
 35 36  1  0
 36 77  1  0
 36 78  1  0
 36 79  1  0
 37 38  1  0
 37 80  1  6
 38 39  1  0
 39 81  1  0
 39 82  1  0
 39 83  1  0
 40 84  1  6
M  CHG  1  40   1
M  END
>  <i_m_ct_stereo_status>  (5) 
1

>  <s_m_source_file>  (5) 
/var/tmp/pbs.5076255.sched01/tmpvv81v907/0tx7qkblw.sdf

>  <i_m_source_file_index>  (5) 
4

>  <i_lp_mmshare_version>  (5) 
48012

>  <i_f3d_flags>  (5) 
0

>  <s_epik_input>  (5) 
W0NIM11PW0NAQEhdMU9bQ0gyXVtDSDJdW0NAXTEoW0NASF0yT1tDSDNdKUMoW0NAQEhdM1tPSF0pPVtDSF1bQ0BIXShbQ0BASF0oL0MoPVtDSF1cNClbQ0BASF01W09IXSlbQ0gyXVtDQEhdNk9bQ0gzXSlbQ0BIXTVbQ0BIXTNbQ0BIXTJbQ0gyXVtDQEhdKE43OClbQ0BASF02W0NASF04W0NIMl1bQ0BASF0oW0NAQF0oW0NAQF00NzkpKFtDSDJdOSlbT0hdKU9bQ0gzXQ==

>  <s_epik_cmdline>  (5) 
J2VwaWtfcHl0aG9uJywgJy1waHQnLCAnMi4wJywgJy1waCcsICc3LjAnLCAnLXRuJywgJzgnLCAnLW1hJywgJzIwMCcsICctaW1hZScsICc8aW5maWxlLm1hZT4nLCAnLW9tYWUnLCAnPG91dGZpbGUubWFlPic=

>  <r_epik_Ionization_Penalty>  (5) 
0.00302699

>  <r_epik_Ionization_Penalty_Charging>  (5) 
0.00302414

>  <r_epik_Ionization_Penalty_Neutral>  (5) 
2.84646e-06

>  <r_epik_State_Penalty>  (5) 
0.00212449

>  <r_epik_Charging_Adjusted_Penalty>  (5) 
0.00514863

>  <i_epik_Tot_Q>  (5) 
1

>  <i_epik_Tot_abs_Q>  (5) 
1

>  <s_epik_Chemistry_Notes>  (5) 
This compound contains an acetal/aminal-like group ( X-CH(R)-Y where X, Y are N, S, or O) that may be acid/base labile, releasing an aldehyde.

>  <s_lp_Force_Field>  (5) 
OPLS3e

>  <r_lp_Energy>  (5) 
309.624

>  <b_lp_Chiralities_Consistent>  (5) 
1

>  <s_lp_Variant>  (5) 
2:0-1

>  <s_i_glide_gridfile>  (5) 
pfpi4k_grid

>  <i_i_glide_lignum>  (5) 
4

>  <i_i_glide_rotatable_bonds>  (5) 
7

>  <r_i_docking_score>  (5) 
-3.34827

>  <r_i_glide_ligand_efficiency>  (5) 
-0.0837067

>  <r_i_glide_ligand_efficiency_sa>  (5) 
-0.286273

>  <r_i_glide_ligand_efficiency_ln>  (5) 
-0.714087

>  <r_i_glide_gscore>  (5) 
-3.34827

>  <r_i_glide_lipo>  (5) 
-0.502738

>  <r_i_glide_hbond>  (5) 
-0.329651

>  <r_i_glide_metal>  (5) 
-0

>  <r_i_glide_rewards>  (5) 
0

>  <r_i_glide_evdw>  (5) 
-18.0489

>  <r_i_glide_ecoul>  (5) 
-10.6973

>  <r_i_glide_erotb>  (5) 
0

>  <r_i_glide_esite>  (5) 
-0.00883437

>  <r_i_glide_emodel>  (5) 
-34.1419

>  <r_i_glide_energy>  (5) 
-28.7462

>  <r_i_glide_einternal>  (5) 
2.60098

>  <r_i_glide_intrahb_reward>  (5) 
-0

>  <i_i_glide_confnum>  (5) 
2

>  <i_i_glide_posenum>  (5) 
1

>  <r_i_glide_eff_state_penalty>  (5) 
0

>  <ligand_id>  (5) 
2

>  <original_smiles>  (5) 
COC1CC2C3=CC45CC4(O)C(OC)CC4C1C(CC1C6C(O)C(=CC2C6C3O)C2(CCOC2OC)C1OC)N45

>  <smiles>  (5) 
[H]OC1([H])C2=C([H])C34C([H])([H])C3(O[H])C([H])(OC([H])([H])[H])C([H])([H])C3([H])C5([H])C([H])(OC([H])([H])[H])C([H])([H])C2([H])C2([H])C([H])=C6C([H])(O[H])C([H])(C([H])(C([H])([H])C5([H])[N+]34[H])C([H])(OC([H])([H])[H])C63C([H])(OC([H])([H])[H])OC([H])([H])C3([H])[H])C12[H]

$$$$
3:0:0
     RDKit          3D

 50 53  0  0  1  0  0  0  0  0999 V2000
   -8.7941   -7.0927  -10.0653 C   0  0  0  0  0  0  0  0  0  0  0  0
   -8.5018   -7.5279   -8.6130 C   0  0  2  0  0  0  0  0  0  0  0  0
   -8.7953   -6.3197   -7.6744 C   0  0  0  0  0  0  0  0  0  0  0  0
   -8.1377   -6.3202   -6.2859 C   0  0  0  0  0  0  0  0  0  0  0  0
   -6.7125   -6.7473   -6.4373 C   0  0  1  0  0  0  0  0  0  0  0  0
   -5.7123   -6.5247   -5.3181 C   0  0  1  0  0  0  0  0  0  0  0  0
   -5.3624   -5.0351   -5.0731 C   0  0  0  0  0  0  0  0  0  0  0  0
   -6.1400   -7.0382   -4.1088 O   0  0  0  0  0  0  0  0  0  0  0  0
   -4.5720   -7.3722   -5.8725 C   0  0  0  0  0  0  0  0  0  0  0  0
   -5.0255   -7.9031   -7.1304 O   0  0  0  0  0  0  0  0  0  0  0  0
   -6.4305   -8.1340   -7.0778 C   0  0  2  0  0  0  0  0  0  0  0  0
   -7.0978   -8.2049   -8.4871 C   0  0  1  0  0  0  0  0  0  0  0  0
   -7.1199   -9.6616   -9.0633 C   0  0  0  0  0  0  0  0  0  0  0  0
   -7.1375  -10.8715   -8.0861 C   0  0  2  0  0  0  0  0  0  0  0  0
   -8.4489  -10.8613   -7.3395 C   0  0  0  0  0  0  0  0  0  0  0  0
   -8.1610   -9.8416   -6.2381 C   0  0  0  0  0  0  0  0  0  0  0  0
   -6.6564   -9.4766   -6.2720 C   0  0  1  0  0  0  0  0  0  0  0  0
   -6.0731  -10.7388   -6.9776 C   0  0  0  0  0  0  0  0  0  0  0  0
   -6.0342  -11.9746   -6.0449 C   0  0  0  0  0  0  0  0  0  0  0  0
   -4.6273  -10.6554   -7.4996 C   0  0  0  0  0  0  0  0  0  0  0  0
   -8.1428   -6.2795  -10.3738 H   0  0  0  0  0  0  0  0  0  0  0  0
   -9.8216   -6.7408  -10.1444 H   0  0  0  0  0  0  0  0  0  0  0  0
   -8.6713   -7.8999  -10.7841 H   0  0  0  0  0  0  0  0  0  0  0  0
   -9.2391   -8.2919   -8.3866 H   0  0  0  0  0  0  0  0  0  0  0  0
   -8.5266   -5.3900   -8.1928 H   0  0  0  0  0  0  0  0  0  0  0  0
   -9.8747   -6.2876   -7.5185 H   0  0  0  0  0  0  0  0  0  0  0  0
   -8.1935   -5.3295   -5.8348 H   0  0  0  0  0  0  0  0  0  0  0  0
   -8.5470   -7.0225   -5.5937 H   0  0  0  0  0  0  0  0  0  0  0  0
   -6.4237   -5.9972   -7.1584 H   0  0  0  0  0  0  0  0  0  0  0  0
   -5.0043   -4.4690   -5.9262 H   0  0  0  0  0  0  0  0  0  0  0  0
   -4.5512   -4.9759   -4.3377 H   0  0  0  0  0  0  0  0  0  0  0  0
   -6.2145   -4.4748   -4.6812 H   0  0  0  0  0  0  0  0  0  0  0  0
   -6.9768   -6.6415   -3.9275 H   0  0  0  0  0  0  0  0  0  0  0  0
   -3.7283   -6.7000   -6.0069 H   0  0  0  0  0  0  0  0  0  0  0  0
   -4.2517   -8.1672   -5.1979 H   0  0  0  0  0  0  0  0  0  0  0  0
   -6.4622   -7.6264   -9.1558 H   0  0  0  0  0  0  0  0  0  0  0  0
   -7.8991   -9.7612   -9.8323 H   0  0  0  0  0  0  0  0  0  0  0  0
   -6.1782   -9.7715   -9.5337 H   0  0  0  0  0  0  0  0  0  0  0  0
   -7.0023  -11.7819   -8.6613 H   0  0  0  0  0  0  0  0  0  0  0  0
   -9.2709  -10.5221   -7.9684 H   0  0  0  0  0  0  0  0  0  0  0  0
   -8.7068  -11.8538   -6.9545 H   0  0  0  0  0  0  0  0  0  0  0  0
   -8.7828   -8.9607   -6.3805 H   0  0  0  0  0  0  0  0  0  0  0  0
   -8.4187  -10.2567   -5.2698 H   0  0  0  0  0  0  0  0  0  0  0  0
   -6.2416   -9.3881   -5.2705 H   0  0  0  0  0  0  0  0  0  0  0  0
   -5.2796  -11.8173   -5.2725 H   0  0  0  0  0  0  0  0  0  0  0  0
   -5.7532  -12.8733   -6.6016 H   0  0  0  0  0  0  0  0  0  0  0  0
   -6.9623  -12.1580   -5.5004 H   0  0  0  0  0  0  0  0  0  0  0  0
   -3.9336  -10.3608   -6.7084 H   0  0  0  0  0  0  0  0  0  0  0  0
   -4.5697   -9.9322   -8.2965 H   0  0  0  0  0  0  0  0  0  0  0  0
   -4.2748  -11.6181   -7.8963 H   0  0  0  0  0  0  0  0  0  0  0  0
  1  2  1  0
  1 21  1  0
  1 22  1  0
  1 23  1  0
  2 12  1  0
  2  3  1  0
  2 24  1  1
  3  4  1  0
  3 25  1  0
  3 26  1  0
  4  5  1  0
  4 27  1  0
  4 28  1  0
  5 11  1  0
  5  6  1  0
  5 29  1  6
  6  7  1  0
  6  8  1  1
  6  9  1  0
  7 30  1  0
  7 31  1  0
  7 32  1  0
  8 33  1  0
  9 10  1  0
  9 34  1  0
  9 35  1  0
 11 10  1  6
 11 17  1  0
 11 12  1  0
 12 13  1  0
 12 36  1  6
 13 14  1  0
 13 37  1  0
 13 38  1  0
 14 18  1  0
 14 15  1  0
 14 39  1  6
 15 16  1  0
 15 40  1  0
 15 41  1  0
 16 17  1  0
 16 42  1  0
 16 43  1  0
 17 18  1  0
 17 44  1  1
 18 19  1  0
 18 20  1  0
 19 45  1  0
 19 46  1  0
 19 47  1  0
 20 48  1  0
 20 49  1  0
 20 50  1  0
M  END
>  <i_m_ct_stereo_status>  (6) 
1

>  <s_m_source_file>  (6) 
/var/tmp/pbs.5076255.sched01/tmpvv81v907/0tx7qkblw.sdf

>  <i_m_source_file_index>  (6) 
6

>  <i_lp_mmshare_version>  (6) 
48012

>  <i_f3d_flags>  (6) 
0

>  <s_epik_input>  (6) 
TzFbQ0gyXVtDQF0oW0NIM10pKFtPSF0pW0NAQEhdKFtDQF0xMjMpW0NIMl1bQ0gyXVtDQEBIXShbQ0gzXSlbQ0BASF0yW0NIMl1bQ0BASF00W0NIMl1bQ0gyXVtDQEhdM0M0KFtDSDNdKVtDSDNd

>  <s_epik_cmdline>  (6) 
J2VwaWtfcHl0aG9uJywgJy1waHQnLCAnMi4wJywgJy1waCcsICc3LjAnLCAnLXRuJywgJzgnLCAnLW1hJywgJzIwMCcsICctaW1hZScsICc8aW5maWxlLm1hZT4nLCAnLW9tYWUnLCAnPG91dGZpbGUubWFlPic=

>  <r_lp_tautomer_probability>  (6) 
1

>  <r_epik_Ionization_Penalty>  (6) 
1.73042e-07

>  <r_epik_Ionization_Penalty_Charging>  (6) 
0

>  <r_epik_Ionization_Penalty_Neutral>  (6) 
1.73042e-07

>  <r_epik_State_Penalty>  (6) 
-0

>  <r_epik_Charging_Adjusted_Penalty>  (6) 
0

>  <i_epik_Tot_Q>  (6) 
0

>  <i_epik_Tot_abs_Q>  (6) 
0

>  <s_lp_Force_Field>  (6) 
OPLS3e

>  <r_lp_Energy>  (6) 
57.0123

>  <b_lp_Chiralities_Consistent>  (6) 
1

>  <s_lp_Variant>  (6) 
3:0-1

>  <s_i_glide_gridfile>  (6) 
pfpi4k_grid

>  <i_i_glide_lignum>  (6) 
6

>  <i_i_glide_rotatable_bonds>  (6) 
1

>  <r_i_docking_score>  (6) 
-4.77667

>  <r_i_glide_ligand_efficiency>  (6) 
-0.238833

>  <r_i_glide_ligand_efficiency_sa>  (6) 
-0.648294

>  <r_i_glide_ligand_efficiency_ln>  (6) 
-1.19544

>  <r_i_glide_gscore>  (6) 
-4.77667

>  <r_i_glide_lipo>  (6) 
-2.52344

>  <r_i_glide_hbond>  (6) 
0

>  <r_i_glide_metal>  (6) 
-0

>  <r_i_glide_rewards>  (6) 
-2.07902

>  <r_i_glide_evdw>  (6) 
-4.47185

>  <r_i_glide_ecoul>  (6) 
0.329197

>  <r_i_glide_erotb>  (6) 
0

>  <r_i_glide_esite>  (6) 
0

>  <r_i_glide_emodel>  (6) 
-8.85817

>  <r_i_glide_energy>  (6) 
-4.14265

>  <r_i_glide_einternal>  (6) 
0.0923702

>  <r_i_glide_intrahb_reward>  (6) 
-0

>  <i_i_glide_confnum>  (6) 
1

>  <i_i_glide_posenum>  (6) 
7

>  <r_i_glide_eff_state_penalty>  (6) 
0

>  <ligand_id>  (6) 
3

>  <original_smiles>  (6) 
CC1CCC2C(C)(O)COC23C1CC1CCC3C1(C)C

>  <smiles>  (6) 
[H]OC1(C([H])([H])[H])C([H])([H])OC23C([H])(C([H])([H])C4([H])C([H])([H])C([H])([H])C2([H])C4(C([H])([H])[H])C([H])([H])[H])C([H])(C([H])([H])[H])C([H])([H])C([H])([H])C13[H]

$$$$
3:0:1
     RDKit          3D

 50 53  0  0  1  0  0  0  0  0999 V2000
   -8.7107   -7.1492  -10.0973 C   0  0  0  0  0  0  0  0  0  0  0  0
   -8.4409   -7.5786   -8.6362 C   0  0  2  0  0  0  0  0  0  0  0  0
   -8.7458   -6.3483   -7.7227 C   0  0  0  0  0  0  0  0  0  0  0  0
   -8.1082   -6.3290   -6.3208 C   0  0  0  0  0  0  0  0  0  0  0  0
   -6.6988   -6.7891   -6.4218 C   0  0  1  0  0  0  0  0  0  0  0  0
   -5.7088   -6.5481   -5.3099 C   0  0  1  0  0  0  0  0  0  0  0  0
   -5.3477   -5.0621   -5.0521 C   0  0  0  0  0  0  0  0  0  0  0  0
   -6.1901   -7.0514   -4.1063 O   0  0  0  0  0  0  0  0  0  0  0  0
   -4.5596   -7.4059   -5.8197 C   0  0  0  0  0  0  0  0  0  0  0  0
   -4.9823   -7.9358   -7.0851 O   0  0  0  0  0  0  0  0  0  0  0  0
   -6.4007   -8.1657   -7.0565 C   0  0  2  0  0  0  0  0  0  0  0  0
   -7.0336   -8.2576   -8.4853 C   0  0  1  0  0  0  0  0  0  0  0  0
   -7.0432   -9.7041   -9.0395 C   0  0  0  0  0  0  0  0  0  0  0  0
   -7.0998  -10.8858   -8.0551 C   0  0  2  0  0  0  0  0  0  0  0  0
   -8.4404  -10.8518   -7.3276 C   0  0  0  0  0  0  0  0  0  0  0  0
   -8.1448   -9.8586   -6.2022 C   0  0  0  0  0  0  0  0  0  0  0  0
   -6.6424   -9.4927   -6.2387 C   0  0  1  0  0  0  0  0  0  0  0  0
   -6.0575  -10.7590   -6.9247 C   0  0  0  0  0  0  0  0  0  0  0  0
   -6.0488  -11.9943   -6.0021 C   0  0  0  0  0  0  0  0  0  0  0  0
   -4.5903  -10.6869   -7.4095 C   0  0  0  0  0  0  0  0  0  0  0  0
   -8.0516   -6.3371  -10.4145 H   0  0  0  0  0  0  0  0  0  0  0  0
   -9.7357   -6.7863  -10.2026 H   0  0  0  0  0  0  0  0  0  0  0  0
   -8.5858   -7.9620  -10.8120 H   0  0  0  0  0  0  0  0  0  0  0  0
   -9.1866   -8.3385   -8.4112 H   0  0  0  0  0  0  0  0  0  0  0  0
   -8.4649   -5.4212   -8.2391 H   0  0  0  0  0  0  0  0  0  0  0  0
   -9.8252   -6.3095   -7.5842 H   0  0  0  0  0  0  0  0  0  0  0  0
   -8.1803   -5.3327   -5.8815 H   0  0  0  0  0  0  0  0  0  0  0  0
   -8.5439   -7.0078   -5.6250 H   0  0  0  0  0  0  0  0  0  0  0  0
   -6.3816   -6.0672   -7.1308 H   0  0  0  0  0  0  0  0  0  0  0  0
   -4.9437   -4.5044   -5.8997 H   0  0  0  0  0  0  0  0  0  0  0  0
   -4.5608   -4.9917   -4.3175 H   0  0  0  0  0  0  0  0  0  0  0  0
   -6.2049   -4.4864   -4.7001 H   0  0  0  0  0  0  0  0  0  0  0  0
   -5.4778   -6.9813   -3.4678 H   0  0  0  0  0  0  0  0  0  0  0  0
   -3.7010   -6.7570   -5.9339 H   0  0  0  0  0  0  0  0  0  0  0  0
   -4.2516   -8.2039   -5.1427 H   0  0  0  0  0  0  0  0  0  0  0  0
   -6.3894   -7.6854   -9.1413 H   0  0  0  0  0  0  0  0  0  0  0  0
   -7.7731   -9.8193   -9.8272 H   0  0  0  0  0  0  0  0  0  0  0  0
   -6.0933   -9.8396   -9.5186 H   0  0  0  0  0  0  0  0  0  0  0  0
   -6.9858  -11.8253   -8.5912 H   0  0  0  0  0  0  0  0  0  0  0  0
   -9.2556  -10.5182   -7.9651 H   0  0  0  0  0  0  0  0  0  0  0  0
   -8.7216  -11.8329   -6.9308 H   0  0  0  0  0  0  0  0  0  0  0  0
   -8.7680   -8.9921   -6.3067 H   0  0  0  0  0  0  0  0  0  0  0  0
   -8.4111  -10.2805   -5.2417 H   0  0  0  0  0  0  0  0  0  0  0  0
   -6.2610   -9.3833   -5.2248 H   0  0  0  0  0  0  0  0  0  0  0  0
   -5.3443  -11.8435   -5.1836 H   0  0  0  0  0  0  0  0  0  0  0  0
   -5.7511  -12.9016   -6.5307 H   0  0  0  0  0  0  0  0  0  0  0  0
   -7.0236  -12.1742   -5.5563 H   0  0  0  0  0  0  0  0  0  0  0  0
   -3.9219  -10.3906   -6.6005 H   0  0  0  0  0  0  0  0  0  0  0  0
   -4.5081   -9.9802   -8.2211 H   0  0  0  0  0  0  0  0  0  0  0  0
   -4.2645  -11.6573   -7.7864 H   0  0  0  0  0  0  0  0  0  0  0  0
  1  2  1  0
  1 21  1  0
  1 22  1  0
  1 23  1  0
  2 12  1  0
  2  3  1  0
  2 24  1  1
  3  4  1  0
  3 25  1  0
  3 26  1  0
  4  5  1  0
  4 27  1  0
  4 28  1  0
  5 11  1  0
  5  6  1  0
  5 29  1  6
  6  7  1  0
  6  8  1  1
  6  9  1  0
  7 30  1  0
  7 31  1  0
  7 32  1  0
  8 33  1  0
  9 10  1  0
  9 34  1  0
  9 35  1  0
 11 10  1  6
 11 17  1  0
 11 12  1  0
 12 13  1  0
 12 36  1  6
 13 14  1  0
 13 37  1  0
 13 38  1  0
 14 18  1  0
 14 15  1  0
 14 39  1  6
 15 16  1  0
 15 40  1  0
 15 41  1  0
 16 17  1  0
 16 42  1  0
 16 43  1  0
 17 18  1  0
 17 44  1  1
 18 19  1  0
 18 20  1  0
 19 45  1  0
 19 46  1  0
 19 47  1  0
 20 48  1  0
 20 49  1  0
 20 50  1  0
M  END
>  <i_m_ct_stereo_status>  (7) 
1

>  <s_m_source_file>  (7) 
/var/tmp/pbs.5076255.sched01/tmpvv81v907/0tx7qkblw.sdf

>  <i_m_source_file_index>  (7) 
6

>  <i_lp_mmshare_version>  (7) 
48012

>  <i_f3d_flags>  (7) 
0

>  <s_epik_input>  (7) 
TzFbQ0gyXVtDQF0oW0NIM10pKFtPSF0pW0NAQEhdKFtDQF0xMjMpW0NIMl1bQ0gyXVtDQEBIXShbQ0gzXSlbQ0BASF0yW0NIMl1bQ0BASF00W0NIMl1bQ0gyXVtDQEhdM0M0KFtDSDNdKVtDSDNd

>  <s_epik_cmdline>  (7) 
J2VwaWtfcHl0aG9uJywgJy1waHQnLCAnMi4wJywgJy1waCcsICc3LjAnLCAnLXRuJywgJzgnLCAnLW1hJywgJzIwMCcsICctaW1hZScsICc8aW5maWxlLm1hZT4nLCAnLW9tYWUnLCAnPG91dGZpbGUubWFlPic=

>  <r_lp_tautomer_probability>  (7) 
1

>  <r_epik_Ionization_Penalty>  (7) 
1.73042e-07

>  <r_epik_Ionization_Penalty_Charging>  (7) 
0

>  <r_epik_Ionization_Penalty_Neutral>  (7) 
1.73042e-07

>  <r_epik_State_Penalty>  (7) 
-0

>  <r_epik_Charging_Adjusted_Penalty>  (7) 
0

>  <i_epik_Tot_Q>  (7) 
0

>  <i_epik_Tot_abs_Q>  (7) 
0

>  <s_lp_Force_Field>  (7) 
OPLS3e

>  <r_lp_Energy>  (7) 
57.0123

>  <b_lp_Chiralities_Consistent>  (7) 
1

>  <s_lp_Variant>  (7) 
3:0-1

>  <s_i_glide_gridfile>  (7) 
pfpi4k_grid

>  <i_i_glide_lignum>  (7) 
6

>  <i_i_glide_rotatable_bonds>  (7) 
1

>  <r_i_docking_score>  (7) 
-4.75681

>  <r_i_glide_ligand_efficiency>  (7) 
-0.23784

>  <r_i_glide_ligand_efficiency_sa>  (7) 
-0.645598

>  <r_i_glide_ligand_efficiency_ln>  (7) 
-1.19047

>  <r_i_glide_gscore>  (7) 
-4.75681

>  <r_i_glide_lipo>  (7) 
-2.55016

>  <r_i_glide_hbond>  (7) 
0

>  <r_i_glide_metal>  (7) 
-0

>  <r_i_glide_rewards>  (7) 
-2.11068

>  <r_i_glide_evdw>  (7) 
-4.09249

>  <r_i_glide_ecoul>  (7) 
0.724404

>  <r_i_glide_erotb>  (7) 
0

>  <r_i_glide_esite>  (7) 
0

>  <r_i_glide_emodel>  (7) 
-8.85642

>  <r_i_glide_energy>  (7) 
-3.36809

>  <r_i_glide_einternal>  (7) 
0.00172106

>  <r_i_glide_intrahb_reward>  (7) 
-0

>  <i_i_glide_confnum>  (7) 
1

>  <i_i_glide_posenum>  (7) 
2

>  <r_i_glide_eff_state_penalty>  (7) 
0

>  <ligand_id>  (7) 
3

>  <original_smiles>  (7) 
CC1CCC2C(C)(O)COC23C1CC1CCC3C1(C)C

>  <smiles>  (7) 
[H]OC1(C([H])([H])[H])C([H])([H])OC23C([H])(C([H])([H])C4([H])C([H])([H])C([H])([H])C2([H])C4(C([H])([H])[H])C([H])([H])[H])C([H])(C([H])([H])[H])C([H])([H])C([H])([H])C13[H]

$$$$
3:0:2
     RDKit          3D

 50 53  0  0  1  0  0  0  0  0999 V2000
    8.5005   -2.8105    0.0335 C   0  0  0  0  0  0  0  0  0  0  0  0
    7.0026   -2.4680    0.1520 C   0  0  2  0  0  0  0  0  0  0  0  0
    6.5888   -2.5772    1.6365 C   0  0  0  0  0  0  0  0  0  0  0  0
    5.1082   -2.7621    1.9983 C   0  0  0  0  0  0  0  0  0  0  0  0
    4.5813   -3.8402    1.0968 C   0  0  1  0  0  0  0  0  0  0  0  0
    3.2199   -4.4405    1.3612 C   0  0  1  0  0  0  0  0  0  0  0  0
    3.1715   -5.4582    2.5073 C   0  0  0  0  0  0  0  0  0  0  0  0
    2.2613   -3.4335    1.6024 O   0  0  0  0  0  0  0  0  0  0  0  0
    3.0168   -5.1077    0.0096 C   0  0  0  0  0  0  0  0  0  0  0  0
    4.1804   -4.7930   -0.7575 O   0  0  0  0  0  0  0  0  0  0  0  0
    4.6594   -3.5212   -0.4041 C   0  0  2  0  0  0  0  0  0  0  0  0
    6.1421   -3.3139   -0.8451 C   0  0  1  0  0  0  0  0  0  0  0  0
    6.2676   -2.7917   -2.3069 C   0  0  0  0  0  0  0  0  0  0  0  0
    5.1067   -1.8642   -2.7844 C   0  0  2  0  0  0  0  0  0  0  0  0
    5.0233   -0.6448   -1.8926 C   0  0  0  0  0  0  0  0  0  0  0  0
    4.1651   -1.0315   -0.6889 C   0  0  0  0  0  0  0  0  0  0  0  0
    3.6858   -2.4504   -1.0308 C   0  0  1  0  0  0  0  0  0  0  0  0
    3.7489   -2.4453   -2.5949 C   0  0  0  0  0  0  0  0  0  0  0  0
    2.6821   -1.5539   -3.2127 C   0  0  0  0  0  0  0  0  0  0  0  0
    3.6378   -3.7173   -3.4133 C   0  0  0  0  0  0  0  0  0  0  0  0
    8.6620   -3.8486    0.3244 H   0  0  0  0  0  0  0  0  0  0  0  0
    9.1015   -2.1945    0.7006 H   0  0  0  0  0  0  0  0  0  0  0  0
    8.9025   -2.6918   -0.9704 H   0  0  0  0  0  0  0  0  0  0  0  0
    6.9313   -1.4084   -0.0844 H   0  0  0  0  0  0  0  0  0  0  0  0
    7.1113   -3.4285    2.0795 H   0  0  0  0  0  0  0  0  0  0  0  0
    6.9403   -1.6713    2.1229 H   0  0  0  0  0  0  0  0  0  0  0  0
    5.0305   -3.0808    3.0308 H   0  0  0  0  0  0  0  0  0  0  0  0
    4.5234   -1.8482    1.9548 H   0  0  0  0  0  0  0  0  0  0  0  0
    5.2783   -4.6708    1.2513 H   0  0  0  0  0  0  0  0  0  0  0  0
    3.8948   -6.2632    2.3551 H   0  0  0  0  0  0  0  0  0  0  0  0
    2.1820   -5.9243    2.5603 H   0  0  0  0  0  0  0  0  0  0  0  0
    3.3864   -4.9896    3.4704 H   0  0  0  0  0  0  0  0  0  0  0  0
    2.3321   -2.7790    0.9332 H   0  0  0  0  0  0  0  0  0  0  0  0
    2.9585   -6.1914    0.0770 H   0  0  0  0  0  0  0  0  0  0  0  0
    2.1311   -4.7380   -0.5071 H   0  0  0  0  0  0  0  0  0  0  0  0
    6.6177   -4.2906   -0.7983 H   0  0  0  0  0  0  0  0  0  0  0  0
    7.2065   -2.2649   -2.4154 H   0  0  0  0  0  0  0  0  0  0  0  0
    6.3689   -3.6364   -2.9830 H   0  0  0  0  0  0  0  0  0  0  0  0
    5.2056   -1.6010   -3.8419 H   0  0  0  0  0  0  0  0  0  0  0  0
    5.9898   -0.2893   -1.5696 H   0  0  0  0  0  0  0  0  0  0  0  0
    4.5690    0.1774   -2.4333 H   0  0  0  0  0  0  0  0  0  0  0  0
    4.7831   -0.9172    0.1884 H   0  0  0  0  0  0  0  0  0  0  0  0
    3.3232   -0.3640   -0.5204 H   0  0  0  0  0  0  0  0  0  0  0  0
    2.6477   -2.5712   -0.7139 H   0  0  0  0  0  0  0  0  0  0  0  0
    1.7248   -2.0659   -3.0704 H   0  0  0  0  0  0  0  0  0  0  0  0
    2.8332   -1.3977   -4.2782 H   0  0  0  0  0  0  0  0  0  0  0  0
    2.5758   -0.5661   -2.7736 H   0  0  0  0  0  0  0  0  0  0  0  0
    2.6723   -4.1640   -3.1928 H   0  0  0  0  0  0  0  0  0  0  0  0
    4.4159   -4.4474   -3.2161 H   0  0  0  0  0  0  0  0  0  0  0  0
    3.6630   -3.5106   -4.4858 H   0  0  0  0  0  0  0  0  0  0  0  0
  1  2  1  0
  1 21  1  0
  1 22  1  0
  1 23  1  0
  2 12  1  0
  2  3  1  0
  2 24  1  6
  3  4  1  0
  3 25  1  0
  3 26  1  0
  4  5  1  0
  4 27  1  0
  4 28  1  0
  5 11  1  0
  5  6  1  0
  5 29  1  6
  6  7  1  0
  6  8  1  1
  6  9  1  0
  7 30  1  0
  7 31  1  0
  7 32  1  0
  8 33  1  0
  9 10  1  0
  9 34  1  0
  9 35  1  0
 11 10  1  6
 11 17  1  0
 11 12  1  0
 12 13  1  0
 12 36  1  6
 13 14  1  0
 13 37  1  0
 13 38  1  0
 14 18  1  0
 14 15  1  0
 14 39  1  6
 15 16  1  0
 15 40  1  0
 15 41  1  0
 16 17  1  0
 16 42  1  0
 16 43  1  0
 17 18  1  0
 17 44  1  6
 18 19  1  0
 18 20  1  0
 19 45  1  0
 19 46  1  0
 19 47  1  0
 20 48  1  0
 20 49  1  0
 20 50  1  0
M  END
>  <i_m_ct_stereo_status>  (8) 
1

>  <s_m_source_file>  (8) 
/var/tmp/pbs.5076255.sched01/tmpvv81v907/0tx7qkblw.sdf

>  <i_m_source_file_index>  (8) 
6

>  <i_lp_mmshare_version>  (8) 
48012

>  <i_f3d_flags>  (8) 
0

>  <s_epik_input>  (8) 
TzFbQ0gyXVtDQF0oW0NIM10pKFtPSF0pW0NAQEhdKFtDQF0xMjMpW0NIMl1bQ0gyXVtDQEBIXShbQ0gzXSlbQ0BASF0yW0NIMl1bQ0BASF00W0NIMl1bQ0gyXVtDQEhdM0M0KFtDSDNdKVtDSDNd

>  <s_epik_cmdline>  (8) 
J2VwaWtfcHl0aG9uJywgJy1waHQnLCAnMi4wJywgJy1waCcsICc3LjAnLCAnLXRuJywgJzgnLCAnLW1hJywgJzIwMCcsICctaW1hZScsICc8aW5maWxlLm1hZT4nLCAnLW9tYWUnLCAnPG91dGZpbGUubWFlPic=

>  <r_lp_tautomer_probability>  (8) 
1

>  <r_epik_Ionization_Penalty>  (8) 
1.73042e-07

>  <r_epik_Ionization_Penalty_Charging>  (8) 
0

>  <r_epik_Ionization_Penalty_Neutral>  (8) 
1.73042e-07

>  <r_epik_State_Penalty>  (8) 
-0

>  <r_epik_Charging_Adjusted_Penalty>  (8) 
0

>  <i_epik_Tot_Q>  (8) 
0

>  <i_epik_Tot_abs_Q>  (8) 
0

>  <s_lp_Force_Field>  (8) 
OPLS3e

>  <r_lp_Energy>  (8) 
57.0123

>  <b_lp_Chiralities_Consistent>  (8) 
1

>  <s_lp_Variant>  (8) 
3:0-1

>  <s_i_glide_gridfile>  (8) 
pfpi4k_grid

>  <i_i_glide_lignum>  (8) 
6

>  <i_i_glide_rotatable_bonds>  (8) 
1

>  <r_i_docking_score>  (8) 
-1.80836

>  <r_i_glide_ligand_efficiency>  (8) 
-0.0904181

>  <r_i_glide_ligand_efficiency_sa>  (8) 
-0.245432

>  <r_i_glide_ligand_efficiency_ln>  (8) 
-0.452573

>  <r_i_glide_gscore>  (8) 
-1.80836

>  <r_i_glide_lipo>  (8) 
-0.458191

>  <r_i_glide_hbond>  (8) 
0

>  <r_i_glide_metal>  (8) 
-0

>  <r_i_glide_rewards>  (8) 
-1.51071

>  <r_i_glide_evdw>  (8) 
-2.429

>  <r_i_glide_ecoul>  (8) 
1.87991

>  <r_i_glide_erotb>  (8) 
0

>  <r_i_glide_esite>  (8) 
0

>  <r_i_glide_emodel>  (8) 
-2.17502

>  <r_i_glide_energy>  (8) 
-0.549083

>  <r_i_glide_einternal>  (8) 
0.0866333

>  <r_i_glide_intrahb_reward>  (8) 
-0

>  <i_i_glide_confnum>  (8) 
1

>  <i_i_glide_posenum>  (8) 
1

>  <r_i_glide_eff_state_penalty>  (8) 
0

>  <ligand_id>  (8) 
3

>  <original_smiles>  (8) 
CC1CCC2C(C)(O)COC23C1CC1CCC3C1(C)C

>  <smiles>  (8) 
[H]OC1(C([H])([H])[H])C([H])([H])OC23C([H])(C([H])([H])C4([H])C([H])([H])C([H])([H])C2([H])C4(C([H])([H])[H])C([H])([H])[H])C([H])(C([H])([H])[H])C([H])([H])C([H])([H])C13[H]

$$$$
4:0:0
     RDKit          3D

 72 78  0  0  1  0  0  0  0  0999 V2000
    6.1719   -5.0041    6.0104 C   0  0  0  0  0  0  0  0  0  0  0  0
    5.2310   -5.3454    4.8752 C   0  0  0  0  0  0  0  0  0  0  0  0
    3.8910   -5.2483    4.9953 C   0  0  0  0  0  0  0  0  0  0  0  0
    2.9886   -5.5173    3.8189 C   0  0  2  0  0  0  0  0  0  0  0  0
    1.5400   -5.9783    4.0175 C   0  0  2  0  0  0  0  0  0  0  0  0
    1.3150   -7.0864    5.0639 C   0  0  0  0  0  0  0  0  0  0  0  0
   -0.1553   -7.5365    5.0622 C   0  0  0  0  0  0  0  0  0  0  0  0
   -0.6267   -7.9990    3.6972 C   0  0  2  0  0  0  0  0  0  0  0  0
   -2.1131   -8.2426    3.6774 C   0  0  0  0  0  0  0  0  0  0  0  0
    0.2412   -8.8969    2.8561 C   0  0  0  0  0  0  0  0  0  0  0  0
    0.0417   -7.4433    2.4535 C   0  0  2  0  0  0  0  0  0  0  0  0
    1.1490   -6.3970    2.5732 C   0  0  2  0  0  0  0  0  0  0  0  0
    2.4627   -6.7752    1.8244 C   0  0  1  0  0  0  0  0  0  0  0  0
    2.6947   -5.9858    0.5071 C   0  0  0  0  0  0  0  0  0  0  0  0
    3.5176   -4.7207    0.7290 C   0  0  2  0  0  0  0  0  0  0  0  0
    3.8576   -3.9905   -0.4321 O   0  0  0  0  0  0  0  0  0  0  0  0
    4.9755   -3.1854   -0.1371 C   0  0  1  0  0  0  0  0  0  0  0  0
    5.9664   -3.2764   -1.3119 C   0  0  0  0  0  0  0  0  0  0  0  0
    5.3326   -2.7223   -2.5879 C   0  0  0  0  0  0  0  0  0  0  0  0
    4.8300   -1.2982   -2.3383 C   0  0  1  0  0  0  0  0  0  0  0  0
    4.0849   -0.7495   -3.5687 C   0  0  0  0  0  0  0  0  0  0  0  0
    3.9464   -1.2870   -1.0862 C   0  0  0  0  0  0  0  0  0  0  0  0
    4.6178   -1.8510    0.0308 O   0  0  0  0  0  0  0  0  0  0  0  0
    5.6013   -3.7401    1.1897 C   0  0  1  0  0  0  0  0  0  0  0  0
    5.3436   -2.7827    2.3779 C   0  0  0  0  0  0  0  0  0  0  0  0
    4.9111   -5.0985    1.2174 C   0  0  1  0  0  0  0  0  0  0  0  0
    5.0028   -6.1711    2.3695 C   0  0  1  0  0  0  0  0  0  0  0  0
    5.6309   -7.4444    1.7440 C   0  0  0  0  0  0  0  0  0  0  0  0
    5.9180   -5.8185    3.5890 C   0  0  0  0  0  0  0  0  0  0  0  0
    3.5831   -6.5518    2.8674 C   0  0  1  0  0  0  0  0  0  0  0  0
    6.8309   -4.1802    5.7337 H   0  0  0  0  0  0  0  0  0  0  0  0
    6.7928   -5.8653    6.2539 H   0  0  0  0  0  0  0  0  0  0  0  0
    5.6232   -4.7133    6.9063 H   0  0  0  0  0  0  0  0  0  0  0  0
    3.4264   -4.9014    5.9095 H   0  0  0  0  0  0  0  0  0  0  0  0
    2.9233   -4.5394    3.3512 H   0  0  0  0  0  0  0  0  0  0  0  0
    0.9338   -5.1223    4.3198 H   0  0  0  0  0  0  0  0  0  0  0  0
    1.9685   -7.9387    4.8851 H   0  0  0  0  0  0  0  0  0  0  0  0
    1.5687   -6.7131    6.0531 H   0  0  0  0  0  0  0  0  0  0  0  0
   -0.3087   -8.3424    5.7810 H   0  0  0  0  0  0  0  0  0  0  0  0
   -0.7859   -6.7057    5.3824 H   0  0  0  0  0  0  0  0  0  0  0  0
   -2.4341   -8.5944    2.6959 H   0  0  0  0  0  0  0  0  0  0  0  0
   -2.6427   -7.3211    3.9073 H   0  0  0  0  0  0  0  0  0  0  0  0
   -2.3724   -9.0187    4.4027 H   0  0  0  0  0  0  0  0  0  0  0  0
    1.2082   -9.2082    3.2402 H   0  0  0  0  0  0  0  0  0  0  0  0
   -0.2640   -9.6392    2.2472 H   0  0  0  0  0  0  0  0  0  0  0  0
   -0.5959   -7.3093    1.5816 H   0  0  0  0  0  0  0  0  0  0  0  0
    0.7558   -5.4949    2.1052 H   0  0  0  0  0  0  0  0  0  0  0  0
    2.4393   -7.8339    1.5668 H   0  0  0  0  0  0  0  0  0  0  0  0
    3.2792   -6.6034   -0.1751 H   0  0  0  0  0  0  0  0  0  0  0  0
    1.7533   -5.7661    0.0085 H   0  0  0  0  0  0  0  0  0  0  0  0
    2.9838   -4.0326    1.3810 H   0  0  0  0  0  0  0  0  0  0  0  0
    6.8726   -2.7337   -1.0491 H   0  0  0  0  0  0  0  0  0  0  0  0
    6.2210   -4.3152   -1.4594 H   0  0  0  0  0  0  0  0  0  0  0  0
    6.0770   -2.7351   -3.3847 H   0  0  0  0  0  0  0  0  0  0  0  0
    4.5113   -3.3658   -2.9166 H   0  0  0  0  0  0  0  0  0  0  0  0
    5.6848   -0.6594   -2.1305 H   0  0  0  0  0  0  0  0  0  0  0  0
    3.2051   -1.3477   -3.8034 H   0  0  0  0  0  0  0  0  0  0  0  0
    4.7116   -0.7521   -4.4604 H   0  0  0  0  0  0  0  0  0  0  0  0
    3.7538    0.2761   -3.4091 H   0  0  0  0  0  0  0  0  0  0  0  0
    3.7441   -0.2625   -0.7967 H   0  0  0  0  0  0  0  0  0  0  0  0
    3.0020   -1.8047   -1.2721 H   0  0  0  0  0  0  0  0  0  0  0  0
    6.6767   -3.8624    1.0662 H   0  0  0  0  0  0  0  0  0  0  0  0
    4.2852   -2.5902    2.5590 H   0  0  0  0  0  0  0  0  0  0  0  0
    5.8187   -1.8188    2.1897 H   0  0  0  0  0  0  0  0  0  0  0  0
    5.7843   -3.1374    3.3030 H   0  0  0  0  0  0  0  0  0  0  0  0
    5.3468   -5.6097    0.3543 H   0  0  0  0  0  0  0  0  0  0  0  0
    5.6824   -8.2666    2.4589 H   0  0  0  0  0  0  0  0  0  0  0  0
    6.6498   -7.2432    1.4043 H   0  0  0  0  0  0  0  0  0  0  0  0
    5.0642   -7.8057    0.8858 H   0  0  0  0  0  0  0  0  0  0  0  0
    6.7047   -5.1285    3.2939 H   0  0  0  0  0  0  0  0  0  0  0  0
    6.4530   -6.7158    3.9019 H   0  0  0  0  0  0  0  0  0  0  0  0
    3.6821   -7.4765    3.4386 H   0  0  0  0  0  0  0  0  0  0  0  0
  1  2  1  0
  1 31  1  0
  1 32  1  0
  1 33  1  0
  2 29  1  0
  2  3  2  0
  3  4  1  0
  3 34  1  0
  4 30  1  0
  4  5  1  0
  4 35  1  6
  5 12  1  0
  5  6  1  0
  5 36  1  1
  6  7  1  0
  6 37  1  0
  6 38  1  0
  7  8  1  0
  7 39  1  0
  7 40  1  0
  8 11  1  0
  8  9  1  6
  8 10  1  0
  9 41  1  0
  9 42  1  0
  9 43  1  0
 10 11  1  0
 10 44  1  0
 10 45  1  0
 11 12  1  0
 11 46  1  6
 12 13  1  0
 12 47  1  6
 13 30  1  0
 13 14  1  0
 13 48  1  6
 14 15  1  0
 14 49  1  0
 14 50  1  0
 15 26  1  0
 15 16  1  0
 15 51  1  1
 17 16  1  6
 17 23  1  0
 17 18  1  0
 17 24  1  0
 18 19  1  0
 18 52  1  0
 18 53  1  0
 19 20  1  0
 19 54  1  0
 19 55  1  0
 20 21  1  0
 20 22  1  0
 20 56  1  1
 21 57  1  0
 21 58  1  0
 21 59  1  0
 22 23  1  0
 22 60  1  0
 22 61  1  0
 24 25  1  0
 24 26  1  0
 24 62  1  6
 25 63  1  0
 25 64  1  0
 25 65  1  0
 26 27  1  0
 26 66  1  6
 27 28  1  6
 27 29  1  0
 27 30  1  0
 28 67  1  0
 28 68  1  0
 28 69  1  0
 29 70  1  0
 29 71  1  0
 30 72  1  1
M  END
>  <i_m_ct_stereo_status>  (9) 
1

>  <s_m_source_file>  (9) 
/var/tmp/pbs.5076255.sched01/tmpvv81v907/0tx7qkblw.sdf

>  <i_m_source_file_index>  (9) 
7

>  <i_lp_mmshare_version>  (9) 
48012

>  <i_f3d_flags>  (9) 
0

>  <s_epik_input>  (9) 
W0NIMl0xW0NIMl1bQ0BdKFtDSDNdKShbQ0gyXTIpW0NASF0yW0NASF0oW0NASF0zW0NIMl00KVtDQEBIXTFbQ0BASF0oW0NIXT1DKFtDSDNdKVtDSDJdNSlbQ0BASF0zW0NAQF01KFtDSDNdKVtDQEhdKFtDQEBIXTZbQ0gzXSlbQ0BIXTRPW0NAXTY3W0NIMl1bQ0gyXVtDQEBIXShbQ0gzXSlbQ0gyXU83

>  <s_epik_cmdline>  (9) 
J2VwaWtfcHl0aG9uJywgJy1waHQnLCAnMi4wJywgJy1waCcsICc3LjAnLCAnLXRuJywgJzgnLCAnLW1hJywgJzIwMCcsICctaW1hZScsICc8aW5maWxlLm1hZT4nLCAnLW9tYWUnLCAnPG91dGZpbGUubWFlPic=

>  <r_lp_tautomer_probability>  (9) 
1

>  <r_epik_Ionization_Penalty>  (9) 
4.01226e-12

>  <r_epik_Ionization_Penalty_Charging>  (9) 
0

>  <r_epik_Ionization_Penalty_Neutral>  (9) 
4.01226e-12

>  <r_epik_State_Penalty>  (9) 
-0

>  <r_epik_Charging_Adjusted_Penalty>  (9) 
0

>  <i_epik_Tot_Q>  (9) 
0

>  <i_epik_Tot_abs_Q>  (9) 
0

>  <s_lp_Force_Field>  (9) 
OPLS3e

>  <r_lp_Energy>  (9) 
67.5318

>  <b_lp_Chiralities_Consistent>  (9) 
1

>  <s_lp_Variant>  (9) 
4:0-1

>  <s_i_glide_gridfile>  (9) 
pfpi4k_grid

>  <i_i_glide_lignum>  (9) 
7

>  <i_i_glide_rotatable_bonds>  (9) 
0

>  <r_i_docking_score>  (9) 
-2.72578

>  <r_i_glide_ligand_efficiency>  (9) 
-0.0908594

>  <r_i_glide_ligand_efficiency_sa>  (9) 
-0.282321

>  <r_i_glide_ligand_efficiency_ln>  (9) 
-0.619327

>  <r_i_glide_gscore>  (9) 
-2.72578

>  <r_i_glide_lipo>  (9) 
-0.749459

>  <r_i_glide_hbond>  (9) 
0

>  <r_i_glide_metal>  (9) 
-0

>  <r_i_glide_rewards>  (9) 
-0.653153

>  <r_i_glide_evdw>  (9) 
-30.2216

>  <r_i_glide_ecoul>  (9) 
1.25274

>  <r_i_glide_erotb>  (9) 
0

>  <r_i_glide_esite>  (9) 
0

>  <r_i_glide_emodel>  (9) 
-34.6168

>  <r_i_glide_energy>  (9) 
-28.9689

>  <r_i_glide_einternal>  (9) 
0

>  <r_i_glide_intrahb_reward>  (9) 
-0

>  <i_i_glide_confnum>  (9) 
2

>  <i_i_glide_posenum>  (9) 
2

>  <r_i_glide_eff_state_penalty>  (9) 
0

>  <ligand_id>  (9) 
4

>  <original_smiles>  (9) 
CC1=CC2C3CCC4(C)CC4C3C3CC4OC5(CCC(C)CO5)C(C)C4C(C)(C1)C23

>  <smiles>  (9) 
[H]C1=C(C([H])([H])[H])C([H])([H])C2(C([H])([H])[H])C3([H])C([H])(OC4(OC([H])([H])C([H])(C([H])([H])[H])C([H])([H])C4([H])[H])C3([H])C([H])([H])[H])C([H])([H])C3([H])C4([H])C([H])(C([H])([H])C([H])([H])C5(C([H])([H])[H])C([H])([H])C45[H])C1([H])C32[H]

$$$$
4:0:1
     RDKit          3D

 72 78  0  0  1  0  0  0  0  0999 V2000
    5.8779   -1.3023    0.3445 C   0  0  0  0  0  0  0  0  0  0  0  0
    4.7434   -1.4696    1.3314 C   0  0  0  0  0  0  0  0  0  0  0  0
    3.5895   -0.7811    1.2300 C   0  0  0  0  0  0  0  0  0  0  0  0
    2.4470   -1.0308    2.1795 C   0  0  2  0  0  0  0  0  0  0  0  0
    1.4055    0.0540    2.4724 C   0  0  2  0  0  0  0  0  0  0  0  0
    1.9547    1.4713    2.7261 C   0  0  0  0  0  0  0  0  0  0  0  0
    0.8191    2.4271    3.1298 C   0  0  0  0  0  0  0  0  0  0  0  0
    0.0360    1.9446    4.3410 C   0  0  2  0  0  0  0  0  0  0  0  0
   -1.1841    2.8119    4.5938 C   0  0  0  0  0  0  0  0  0  0  0  0
    0.7602    1.3790    5.5338 C   0  0  0  0  0  0  0  0  0  0  0  0
   -0.0257    0.4562    4.6241 C   0  0  2  0  0  0  0  0  0  0  0  0
    0.6589   -0.5516    3.6946 C   0  0  2  0  0  0  0  0  0  0  0  0
    1.6465   -1.5242    4.4132 C   0  0  1  0  0  0  0  0  0  0  0  0
    1.0970   -2.9689    4.5965 C   0  0  0  0  0  0  0  0  0  0  0  0
    1.5101   -3.8733    3.4308 C   0  0  2  0  0  0  0  0  0  0  0  0
    1.1263   -5.2325    3.5180 O   0  0  0  0  0  0  0  0  0  0  0  0
    1.9522   -5.9877    2.6551 C   0  0  1  0  0  0  0  0  0  0  0  0
    2.4194   -7.2470    3.4191 C   0  0  0  0  0  0  0  0  0  0  0  0
    1.2197   -8.1379    3.7516 C   0  0  0  0  0  0  0  0  0  0  0  0
    0.4277   -8.4561    2.4801 C   0  0  1  0  0  0  0  0  0  0  0  0
   -0.8455   -9.2462    2.8162 C   0  0  0  0  0  0  0  0  0  0  0  0
    0.0864   -7.1522    1.7423 C   0  0  0  0  0  0  0  0  0  0  0  0
    1.2559   -6.3741    1.4969 O   0  0  0  0  0  0  0  0  0  0  0  0
    3.1714   -5.0770    2.2753 C   0  0  1  0  0  0  0  0  0  0  0  0
    3.1054   -4.6133    0.7976 C   0  0  0  0  0  0  0  0  0  0  0  0
    3.0226   -4.0186    3.3664 C   0  0  1  0  0  0  0  0  0  0  0  0
    3.8740   -2.6994    3.5130 C   0  0  1  0  0  0  0  0  0  0  0  0
    4.5986   -2.7881    4.8808 C   0  0  0  0  0  0  0  0  0  0  0  0
    5.0130   -2.4721    2.4600 C   0  0  0  0  0  0  0  0  0  0  0  0
    2.9379   -1.4609    3.5585 C   0  0  1  0  0  0  0  0  0  0  0  0
    6.0850   -2.2434   -0.1663 H   0  0  0  0  0  0  0  0  0  0  0  0
    6.7844   -0.9913    0.8632 H   0  0  0  0  0  0  0  0  0  0  0  0
    5.6349   -0.5525   -0.4068 H   0  0  0  0  0  0  0  0  0  0  0  0
    3.4144   -0.0891    0.4176 H   0  0  0  0  0  0  0  0  0  0  0  0
    1.9064   -1.8285    1.6782 H   0  0  0  0  0  0  0  0  0  0  0  0
    0.7186    0.1251    1.6261 H   0  0  0  0  0  0  0  0  0  0  0  0
    2.7341    1.4645    3.4876 H   0  0  0  0  0  0  0  0  0  0  0  0
    2.4247    1.8480    1.8184 H   0  0  0  0  0  0  0  0  0  0  0  0
    1.2083    3.4283    3.3234 H   0  0  0  0  0  0  0  0  0  0  0  0
    0.1229    2.5266    2.2953 H   0  0  0  0  0  0  0  0  0  0  0  0
   -1.7249    2.4562    5.4709 H   0  0  0  0  0  0  0  0  0  0  0  0
   -1.8597    2.7825    3.7386 H   0  0  0  0  0  0  0  0  0  0  0  0
   -0.8855    3.8452    4.7732 H   0  0  0  0  0  0  0  0  0  0  0  0
    1.8477    1.3319    5.5204 H   0  0  0  0  0  0  0  0  0  0  0  0
    0.3341    1.5749    6.5132 H   0  0  0  0  0  0  0  0  0  0  0  0
   -0.9559    0.0819    5.0491 H   0  0  0  0  0  0  0  0  0  0  0  0
   -0.1474   -1.1548    3.2786 H   0  0  0  0  0  0  0  0  0  0  0  0
    1.8760   -1.1415    5.4056 H   0  0  0  0  0  0  0  0  0  0  0  0
    1.4962   -3.3968    5.5187 H   0  0  0  0  0  0  0  0  0  0  0  0
    0.0161   -2.9622    4.7096 H   0  0  0  0  0  0  0  0  0  0  0  0
    1.0779   -3.4951    2.5090 H   0  0  0  0  0  0  0  0  0  0  0  0
    3.1365   -7.7839    2.7999 H   0  0  0  0  0  0  0  0  0  0  0  0
    2.9263   -6.9406    4.3351 H   0  0  0  0  0  0  0  0  0  0  0  0
    1.5719   -9.0605    4.2152 H   0  0  0  0  0  0  0  0  0  0  0  0
    0.5839   -7.6434    4.4904 H   0  0  0  0  0  0  0  0  0  0  0  0
    1.0518   -9.0636    1.8261 H   0  0  0  0  0  0  0  0  0  0  0  0
   -1.5078   -8.6815    3.4714 H   0  0  0  0  0  0  0  0  0  0  0  0
   -0.6088  -10.1801    3.3252 H   0  0  0  0  0  0  0  0  0  0  0  0
   -1.4064   -9.4953    1.9187 H   0  0  0  0  0  0  0  0  0  0  0  0
   -0.3886   -7.3751    0.7878 H   0  0  0  0  0  0  0  0  0  0  0  0
   -0.6293   -6.5673    2.3226 H   0  0  0  0  0  0  0  0  0  0  0  0
    4.1014   -5.6282    2.4123 H   0  0  0  0  0  0  0  0  0  0  0  0
    2.2086   -4.0426    0.5620 H   0  0  0  0  0  0  0  0  0  0  0  0
    3.1294   -5.4757    0.1270 H   0  0  0  0  0  0  0  0  0  0  0  0
    3.9562   -4.0072    0.5073 H   0  0  0  0  0  0  0  0  0  0  0  0
    3.2532   -4.5800    4.2758 H   0  0  0  0  0  0  0  0  0  0  0  0
    5.1686   -1.8851    5.0989 H   0  0  0  0  0  0  0  0  0  0  0  0
    5.2964   -3.6274    4.8924 H   0  0  0  0  0  0  0  0  0  0  0  0
    3.8992   -2.9319    5.7043 H   0  0  0  0  0  0  0  0  0  0  0  0
    5.3802   -3.4175    2.0644 H   0  0  0  0  0  0  0  0  0  0  0  0
    5.8767   -2.0415    2.9654 H   0  0  0  0  0  0  0  0  0  0  0  0
    3.5351   -0.6311    3.9410 H   0  0  0  0  0  0  0  0  0  0  0  0
  1  2  1  0
  1 31  1  0
  1 32  1  0
  1 33  1  0
  2 29  1  0
  2  3  2  0
  3  4  1  0
  3 34  1  0
  4 30  1  0
  4  5  1  0
  4 35  1  6
  5 12  1  0
  5  6  1  0
  5 36  1  6
  6  7  1  0
  6 37  1  0
  6 38  1  0
  7  8  1  0
  7 39  1  0
  7 40  1  0
  8 11  1  0
  8  9  1  1
  8 10  1  0
  9 41  1  0
  9 42  1  0
  9 43  1  0
 10 11  1  0
 10 44  1  0
 10 45  1  0
 11 12  1  0
 11 46  1  1
 12 13  1  0
 12 47  1  6
 13 30  1  0
 13 14  1  0
 13 48  1  1
 14 15  1  0
 14 49  1  0
 14 50  1  0
 15 26  1  0
 15 16  1  0
 15 51  1  6
 17 16  1  1
 17 23  1  0
 17 18  1  0
 17 24  1  0
 18 19  1  0
 18 52  1  0
 18 53  1  0
 19 20  1  0
 19 54  1  0
 19 55  1  0
 20 21  1  0
 20 22  1  0
 20 56  1  6
 21 57  1  0
 21 58  1  0
 21 59  1  0
 22 23  1  0
 22 60  1  0
 22 61  1  0
 24 25  1  0
 24 26  1  0
 24 62  1  6
 25 63  1  0
 25 64  1  0
 25 65  1  0
 26 27  1  0
 26 66  1  1
 27 28  1  1
 27 29  1  0
 27 30  1  0
 28 67  1  0
 28 68  1  0
 28 69  1  0
 29 70  1  0
 29 71  1  0
 30 72  1  1
M  END
>  <i_m_ct_stereo_status>  (10) 
1

>  <s_m_source_file>  (10) 
/var/tmp/pbs.5076255.sched01/tmpvv81v907/0tx7qkblw.sdf

>  <i_m_source_file_index>  (10) 
7

>  <i_lp_mmshare_version>  (10) 
48012

>  <i_f3d_flags>  (10) 
0

>  <s_epik_input>  (10) 
W0NIMl0xW0NIMl1bQ0BdKFtDSDNdKShbQ0gyXTIpW0NASF0yW0NASF0oW0NASF0zW0NIMl00KVtDQEBIXTFbQ0BASF0oW0NIXT1DKFtDSDNdKVtDSDJdNSlbQ0BASF0zW0NAQF01KFtDSDNdKVtDQEhdKFtDQEBIXTZbQ0gzXSlbQ0BIXTRPW0NAXTY3W0NIMl1bQ0gyXVtDQEBIXShbQ0gzXSlbQ0gyXU83

>  <s_epik_cmdline>  (10) 
J2VwaWtfcHl0aG9uJywgJy1waHQnLCAnMi4wJywgJy1waCcsICc3LjAnLCAnLXRuJywgJzgnLCAnLW1hJywgJzIwMCcsICctaW1hZScsICc8aW5maWxlLm1hZT4nLCAnLW9tYWUnLCAnPG91dGZpbGUubWFlPic=

>  <r_lp_tautomer_probability>  (10) 
1

>  <r_epik_Ionization_Penalty>  (10) 
4.01226e-12

>  <r_epik_Ionization_Penalty_Charging>  (10) 
0

>  <r_epik_Ionization_Penalty_Neutral>  (10) 
4.01226e-12

>  <r_epik_State_Penalty>  (10) 
-0

>  <r_epik_Charging_Adjusted_Penalty>  (10) 
0

>  <i_epik_Tot_Q>  (10) 
0

>  <i_epik_Tot_abs_Q>  (10) 
0

>  <s_lp_Force_Field>  (10) 
OPLS3e

>  <r_lp_Energy>  (10) 
67.5318

>  <b_lp_Chiralities_Consistent>  (10) 
1

>  <s_lp_Variant>  (10) 
4:0-1

>  <s_i_glide_gridfile>  (10) 
pfpi4k_grid

>  <i_i_glide_lignum>  (10) 
7

>  <i_i_glide_rotatable_bonds>  (10) 
0

>  <r_i_docking_score>  (10) 
-2.72406

>  <r_i_glide_ligand_efficiency>  (10) 
-0.0908022

>  <r_i_glide_ligand_efficiency_sa>  (10) 
-0.282143

>  <r_i_glide_ligand_efficiency_ln>  (10) 
-0.618937

>  <r_i_glide_gscore>  (10) 
-2.72406

>  <r_i_glide_lipo>  (10) 
-0.238122

>  <r_i_glide_hbond>  (10) 
-0.0486857

>  <r_i_glide_metal>  (10) 
-0

>  <r_i_glide_rewards>  (10) 
-0.609328

>  <r_i_glide_evdw>  (10) 
-31.7967

>  <r_i_glide_ecoul>  (10) 
-1.48198

>  <r_i_glide_erotb>  (10) 
0

>  <r_i_glide_esite>  (10) 
-0.0157965

>  <r_i_glide_emodel>  (10) 
-38.9639

>  <r_i_glide_energy>  (10) 
-33.2787

>  <r_i_glide_einternal>  (10) 
0

>  <r_i_glide_intrahb_reward>  (10) 
-0

>  <i_i_glide_confnum>  (10) 
1

>  <i_i_glide_posenum>  (10) 
7

>  <r_i_glide_eff_state_penalty>  (10) 
0

>  <ligand_id>  (10) 
4

>  <original_smiles>  (10) 
CC1=CC2C3CCC4(C)CC4C3C3CC4OC5(CCC(C)CO5)C(C)C4C(C)(C1)C23

>  <smiles>  (10) 
[H]C1=C(C([H])([H])[H])C([H])([H])C2(C([H])([H])[H])C3([H])C([H])(OC4(OC([H])([H])C([H])(C([H])([H])[H])C([H])([H])C4([H])[H])C3([H])C([H])([H])[H])C([H])([H])C3([H])C4([H])C([H])(C([H])([H])C([H])([H])C5(C([H])([H])[H])C([H])([H])C45[H])C1([H])C32[H]

$$$$
4:0:2
     RDKit          3D

 72 78  0  0  1  0  0  0  0  0999 V2000
    5.0093   -3.4680    6.0598 C   0  0  0  0  0  0  0  0  0  0  0  0
    4.3416   -4.1678    4.8985 C   0  0  0  0  0  0  0  0  0  0  0  0
    3.0035   -4.3113    4.8100 C   0  0  0  0  0  0  0  0  0  0  0  0
    2.3802   -4.9402    3.5944 C   0  0  2  0  0  0  0  0  0  0  0  0
    1.0163   -5.6322    3.6802 C   0  0  2  0  0  0  0  0  0  0  0  0
    0.8044   -6.5803    4.8710 C   0  0  0  0  0  0  0  0  0  0  0  0
   -0.5458   -7.3033    4.7460 C   0  0  0  0  0  0  0  0  0  0  0  0
   -0.6981   -8.0503    3.4359 C   0  0  2  0  0  0  0  0  0  0  0  0
   -2.1052   -8.5532    3.2567 C   0  0  0  0  0  0  0  0  0  0  0  0
    0.4292   -8.8947    2.9137 C   0  0  0  0  0  0  0  0  0  0  0  0
    0.0762   -7.5935    2.2270 C   0  0  2  0  0  0  0  0  0  0  0  0
    0.9624   -6.3557    2.3057 C   0  0  2  0  0  0  0  0  0  0  0  0
    2.4261   -6.5893    1.8395 C   0  0  1  0  0  0  0  0  0  0  0  0
    2.7333   -5.9791    0.4523 C   0  0  0  0  0  0  0  0  0  0  0  0
    3.2959   -4.5590    0.5228 C   0  0  2  0  0  0  0  0  0  0  0  0
    3.7010   -3.9832   -0.7032 O   0  0  0  0  0  0  0  0  0  0  0  0
    4.5973   -2.9349   -0.4280 C   0  0  1  0  0  0  0  0  0  0  0  0
    5.7793   -3.0468   -1.4176 C   0  0  0  0  0  0  0  0  0  0  0  0
    5.2807   -2.8264   -2.8507 C   0  0  0  0  0  0  0  0  0  0  0  0
    4.5093   -1.5005   -2.9405 C   0  0  1  0  0  0  0  0  0  0  0  0
    3.8805   -1.2742   -4.3242 C   0  0  0  0  0  0  0  0  0  0  0  0
    3.4105   -1.4958   -1.8823 C   0  0  0  0  0  0  0  0  0  0  0  0
    3.9861   -1.6860   -0.5905 O   0  0  0  0  0  0  0  0  0  0  0  0
    5.0749   -3.1288    1.0600 C   0  0  1  0  0  0  0  0  0  0  0  0
    4.4602   -2.0607    1.9935 C   0  0  0  0  0  0  0  0  0  0  0  0
    4.6264   -4.5764    1.2550 C   0  0  1  0  0  0  0  0  0  0  0  0
    4.6912   -5.4146    2.5898 C   0  0  1  0  0  0  0  0  0  0  0  0
    5.6162   -6.6238    2.3024 C   0  0  0  0  0  0  0  0  0  0  0  0
    5.3054   -4.7000    3.8318 C   0  0  0  0  0  0  0  0  0  0  0  0
    3.2953   -5.9831    2.9576 C   0  0  1  0  0  0  0  0  0  0  0  0
    5.5595   -2.5895    5.7201 H   0  0  0  0  0  0  0  0  0  0  0  0
    5.7150   -4.1411    6.5444 H   0  0  0  0  0  0  0  0  0  0  0  0
    4.2767   -3.1455    6.8000 H   0  0  0  0  0  0  0  0  0  0  0  0
    2.3334   -3.9119    5.5620 H   0  0  0  0  0  0  0  0  0  0  0  0
    2.2353   -4.0848    2.9424 H   0  0  0  0  0  0  0  0  0  0  0  0
    0.2374   -4.8677    3.7252 H   0  0  0  0  0  0  0  0  0  0  0  0
    1.6104   -7.3071    4.9526 H   0  0  0  0  0  0  0  0  0  0  0  0
    0.8125   -6.0082    5.7978 H   0  0  0  0  0  0  0  0  0  0  0  0
   -0.6644   -8.0116    5.5651 H   0  0  0  0  0  0  0  0  0  0  0  0
   -1.3569   -6.5787    4.8261 H   0  0  0  0  0  0  0  0  0  0  0  0
   -2.1889   -9.1221    2.3294 H   0  0  0  0  0  0  0  0  0  0  0  0
   -2.8192   -7.7345    3.2478 H   0  0  0  0  0  0  0  0  0  0  0  0
   -2.3649   -9.2064    4.0739 H   0  0  0  0  0  0  0  0  0  0  0  0
    1.3604   -8.9558    3.4754 H   0  0  0  0  0  0  0  0  0  0  0  0
    0.1667   -9.8058    2.3840 H   0  0  0  0  0  0  0  0  0  0  0  0
   -0.4129   -7.7178    1.2567 H   0  0  0  0  0  0  0  0  0  0  0  0
    0.5233   -5.6434    1.6199 H   0  0  0  0  0  0  0  0  0  0  0  0
    2.6248   -7.6597    1.7736 H   0  0  0  0  0  0  0  0  0  0  0  0
    3.4838   -6.6006   -0.0421 H   0  0  0  0  0  0  0  0  0  0  0  0
    1.8501   -5.9941   -0.1833 H   0  0  0  0  0  0  0  0  0  0  0  0
    2.5605   -3.8790    0.9499 H   0  0  0  0  0  0  0  0  0  0  0  0
    6.5182   -2.2969   -1.1435 H   0  0  0  0  0  0  0  0  0  0  0  0
    6.2319   -4.0368   -1.3199 H   0  0  0  0  0  0  0  0  0  0  0  0
    6.1378   -2.8309   -3.5223 H   0  0  0  0  0  0  0  0  0  0  0  0
    4.6402   -3.6599   -3.1553 H   0  0  0  0  0  0  0  0  0  0  0  0
    5.1873   -0.6823   -2.7127 H   0  0  0  0  0  0  0  0  0  0  0  0
    3.1759   -2.0684   -4.5621 H   0  0  0  0  0  0  0  0  0  0  0  0
    4.6148   -1.2525   -5.1173 H   0  0  0  0  0  0  0  0  0  0  0  0
    3.3406   -0.3306   -4.3785 H   0  0  0  0  0  0  0  0  0  0  0  0
    2.8986   -0.5440   -1.9226 H   0  0  0  0  0  0  0  0  0  0  0  0
    2.6525   -2.2548   -2.0856 H   0  0  0  0  0  0  0  0  0  0  0  0
    6.1624   -3.0575    1.1148 H   0  0  0  0  0  0  0  0  0  0  0  0
    3.3698   -2.0561    1.9991 H   0  0  0  0  0  0  0  0  0  0  0  0
    4.7844   -1.0653    1.6839 H   0  0  0  0  0  0  0  0  0  0  0  0
    4.7933   -2.1598    3.0196 H   0  0  0  0  0  0  0  0  0  0  0  0
    5.2763   -5.1283    0.5699 H   0  0  0  0  0  0  0  0  0  0  0  0
    5.6822   -7.2973    3.1578 H   0  0  0  0  0  0  0  0  0  0  0  0
    6.6282   -6.2810    2.0704 H   0  0  0  0  0  0  0  0  0  0  0  0
    5.2680   -7.2145    1.4550 H   0  0  0  0  0  0  0  0  0  0  0  0
    5.9746   -3.9120    3.5042 H   0  0  0  0  0  0  0  0  0  0  0  0
    5.9388   -5.4057    4.3718 H   0  0  0  0  0  0  0  0  0  0  0  0
    3.4503   -6.7639    3.7054 H   0  0  0  0  0  0  0  0  0  0  0  0
  1  2  1  0
  1 31  1  0
  1 32  1  0
  1 33  1  0
  2 29  1  0
  2  3  2  0
  3  4  1  0
  3 34  1  0
  4 30  1  0
  4  5  1  0
  4 35  1  6
  5 12  1  0
  5  6  1  0
  5 36  1  6
  6  7  1  0
  6 37  1  0
  6 38  1  0
  7  8  1  0
  7 39  1  0
  7 40  1  0
  8 11  1  0
  8  9  1  6
  8 10  1  0
  9 41  1  0
  9 42  1  0
  9 43  1  0
 10 11  1  0
 10 44  1  0
 10 45  1  0
 11 12  1  0
 11 46  1  6
 12 13  1  0
 12 47  1  6
 13 30  1  0
 13 14  1  0
 13 48  1  6
 14 15  1  0
 14 49  1  0
 14 50  1  0
 15 26  1  0
 15 16  1  0
 15 51  1  1
 17 16  1  6
 17 23  1  0
 17 18  1  0
 17 24  1  0
 18 19  1  0
 18 52  1  0
 18 53  1  0
 19 20  1  0
 19 54  1  0
 19 55  1  0
 20 21  1  0
 20 22  1  0
 20 56  1  1
 21 57  1  0
 21 58  1  0
 21 59  1  0
 22 23  1  0
 22 60  1  0
 22 61  1  0
 24 25  1  0
 24 26  1  0
 24 62  1  6
 25 63  1  0
 25 64  1  0
 25 65  1  0
 26 27  1  0
 26 66  1  6
 27 28  1  6
 27 29  1  0
 27 30  1  0
 28 67  1  0
 28 68  1  0
 28 69  1  0
 29 70  1  0
 29 71  1  0
 30 72  1  1
M  END
>  <i_m_ct_stereo_status>  (11) 
1

>  <s_m_source_file>  (11) 
/var/tmp/pbs.5076255.sched01/tmpvv81v907/0tx7qkblw.sdf

>  <i_m_source_file_index>  (11) 
7

>  <i_lp_mmshare_version>  (11) 
48012

>  <i_f3d_flags>  (11) 
0

>  <s_epik_input>  (11) 
W0NIMl0xW0NIMl1bQ0BdKFtDSDNdKShbQ0gyXTIpW0NASF0yW0NASF0oW0NASF0zW0NIMl00KVtDQEBIXTFbQ0BASF0oW0NIXT1DKFtDSDNdKVtDSDJdNSlbQ0BASF0zW0NAQF01KFtDSDNdKVtDQEhdKFtDQEBIXTZbQ0gzXSlbQ0BIXTRPW0NAXTY3W0NIMl1bQ0gyXVtDQEBIXShbQ0gzXSlbQ0gyXU83

>  <s_epik_cmdline>  (11) 
J2VwaWtfcHl0aG9uJywgJy1waHQnLCAnMi4wJywgJy1waCcsICc3LjAnLCAnLXRuJywgJzgnLCAnLW1hJywgJzIwMCcsICctaW1hZScsICc8aW5maWxlLm1hZT4nLCAnLW9tYWUnLCAnPG91dGZpbGUubWFlPic=

>  <r_lp_tautomer_probability>  (11) 
1

>  <r_epik_Ionization_Penalty>  (11) 
4.01226e-12

>  <r_epik_Ionization_Penalty_Charging>  (11) 
0

>  <r_epik_Ionization_Penalty_Neutral>  (11) 
4.01226e-12

>  <r_epik_State_Penalty>  (11) 
-0

>  <r_epik_Charging_Adjusted_Penalty>  (11) 
0

>  <i_epik_Tot_Q>  (11) 
0

>  <i_epik_Tot_abs_Q>  (11) 
0

>  <s_lp_Force_Field>  (11) 
OPLS3e

>  <r_lp_Energy>  (11) 
67.5318

>  <b_lp_Chiralities_Consistent>  (11) 
1

>  <s_lp_Variant>  (11) 
4:0-1

>  <s_i_glide_gridfile>  (11) 
pfpi4k_grid

>  <i_i_glide_lignum>  (11) 
7

>  <i_i_glide_rotatable_bonds>  (11) 
0

>  <r_i_docking_score>  (11) 
-2.21943

>  <r_i_glide_ligand_efficiency>  (11) 
-0.0739809

>  <r_i_glide_ligand_efficiency_sa>  (11) 
-0.229876

>  <r_i_glide_ligand_efficiency_ln>  (11) 
-0.504278

>  <r_i_glide_gscore>  (11) 
-2.21943

>  <r_i_glide_lipo>  (11) 
-0.326151

>  <r_i_glide_hbond>  (11) 
0

>  <r_i_glide_metal>  (11) 
-0

>  <r_i_glide_rewards>  (11) 
-0.619625

>  <r_i_glide_evdw>  (11) 
-31.2663

>  <r_i_glide_ecoul>  (11) 
1.9311

>  <r_i_glide_erotb>  (11) 
0

>  <r_i_glide_esite>  (11) 
0

>  <r_i_glide_emodel>  (11) 
-33.8065

>  <r_i_glide_energy>  (11) 
-29.3352

>  <r_i_glide_einternal>  (11) 
0

>  <r_i_glide_intrahb_reward>  (11) 
-0

>  <i_i_glide_confnum>  (11) 
2

>  <i_i_glide_posenum>  (11) 
36

>  <r_i_glide_eff_state_penalty>  (11) 
0

>  <ligand_id>  (11) 
4

>  <original_smiles>  (11) 
CC1=CC2C3CCC4(C)CC4C3C3CC4OC5(CCC(C)CO5)C(C)C4C(C)(C1)C23

>  <smiles>  (11) 
[H]C1=C(C([H])([H])[H])C([H])([H])C2(C([H])([H])[H])C3([H])C([H])(OC4(OC([H])([H])C([H])(C([H])([H])[H])C([H])([H])C4([H])[H])C3([H])C([H])([H])[H])C([H])([H])C3([H])C4([H])C([H])(C([H])([H])C([H])([H])C5(C([H])([H])[H])C([H])([H])C45[H])C1([H])C32[H]

$$$$
5:0:0
     RDKit          3D

 61 66  0  0  1  0  0  0  0  0999 V2000
    3.1418   -1.9828    3.3002 C   0  0  0  0  0  0  0  0  0  0  0  0
    3.2752   -3.0168    2.4707 C   0  0  0  0  0  0  0  0  0  0  0  0
    2.3328   -3.1057    1.3899 C   0  0  0  0  0  0  0  0  0  0  0  0
    2.4926   -3.6048    0.1549 C   0  0  0  0  0  0  0  0  0  0  0  0
    3.7657   -4.0199   -0.5799 C   0  0  2  0  0  0  0  0  0  0  0  0
    4.6593   -5.2475    0.0043 C   0  0  2  0  0  0  0  0  0  0  0  0
    3.7959   -6.1126    0.9629 C   0  0  0  0  0  0  0  0  0  0  0  0
    3.5501   -5.5568    2.3963 C   0  0  0  0  0  0  0  0  0  0  0  0
    4.1904   -4.1795    2.7891 C   0  0  1  0  0  0  0  0  0  0  0  0
    5.7006   -3.9328    2.4533 C   0  0  1  0  0  0  0  0  0  0  0  0
    6.3207   -5.2655    2.0460 C   0  0  0  0  0  0  0  0  0  0  0  0
    6.1959   -5.1780    0.5111 C   0  0  2  0  0  0  0  0  0  0  0  0
    6.9537   -3.8489    0.2540 C   0  0  0  0  0  0  0  0  0  0  0  0
    8.4418   -3.8478    0.7046 C   0  0  0  0  0  0  0  0  0  0  0  0
    7.0793   -3.5515   -1.2517 C   0  0  0  0  0  0  0  0  0  0  0  0
    6.0518   -3.0298    1.2223 C   0  0  2  0  0  0  0  0  0  0  0  0
    6.0465   -1.5210    1.2160 C   0  0  1  0  0  0  0  0  0  0  0  0
    7.3560   -1.0466    1.3645 O   0  0  0  0  0  0  0  0  0  0  0  0
    5.7330   -0.9551   -0.1736 C   0  0  0  0  0  0  0  0  0  0  0  0
    4.5130   -1.4298   -1.0291 C   0  0  1  0  0  0  0  0  0  0  0  0
    3.4061   -1.0519   -0.2764 O   0  0  0  0  0  0  0  0  0  0  0  0
    4.5319   -0.6430   -2.3274 C   0  0  2  0  0  0  0  0  0  0  0  0
    3.3111   -0.4039   -3.1737 C   0  0  1  0  0  0  0  0  0  0  0  0
    3.4227    0.5953   -4.1373 O   0  0  0  0  0  0  0  0  0  0  0  0
    4.1767   -1.5818   -3.4369 C   0  0  2  0  0  0  0  0  0  0  0  0
    3.7953   -2.8933   -2.8320 C   0  0  0  0  0  0  0  0  0  0  0  0
    4.3507   -2.9090   -1.4500 N   0  0  2  0  0  0  0  0  0  0  0  0
    3.7630   -1.8891    4.1750 H   0  0  0  0  0  0  0  0  0  0  0  0
    2.4132   -1.1997    3.1186 H   0  0  0  0  0  0  0  0  0  0  0  0
    1.3723   -2.7430    1.6817 H   0  0  0  0  0  0  0  0  0  0  0  0
    1.6368   -3.5931   -0.5137 H   0  0  0  0  0  0  0  0  0  0  0  0
    3.2486   -4.5935   -1.3267 H   0  0  0  0  0  0  0  0  0  0  0  0
    4.7686   -5.8819   -0.8764 H   0  0  0  0  0  0  0  0  0  0  0  0
    2.8341   -6.3288    0.4994 H   0  0  0  0  0  0  0  0  0  0  0  0
    4.2556   -7.0944    1.0510 H   0  0  0  0  0  0  0  0  0  0  0  0
    2.4772   -5.5371    2.5892 H   0  0  0  0  0  0  0  0  0  0  0  0
    3.8882   -6.3080    3.1109 H   0  0  0  0  0  0  0  0  0  0  0  0
    4.1630   -4.2152    3.8784 H   0  0  0  0  0  0  0  0  0  0  0  0
    6.1857   -3.5277    3.3326 H   0  0  0  0  0  0  0  0  0  0  0  0
    7.3527   -5.3253    2.3780 H   0  0  0  0  0  0  0  0  0  0  0  0
    5.9150   -6.1597    2.5097 H   0  0  0  0  0  0  0  0  0  0  0  0
    6.7392   -6.0291    0.0993 H   0  0  0  0  0  0  0  0  0  0  0  0
    8.9827   -3.0074    0.2608 H   0  0  0  0  0  0  0  0  0  0  0  0
    8.9725   -4.7692    0.4512 H   0  0  0  0  0  0  0  0  0  0  0  0
    8.5501   -3.7226    1.7668 H   0  0  0  0  0  0  0  0  0  0  0  0
    7.1591   -2.5656   -1.6496 H   0  0  0  0  0  0  0  0  0  0  0  0
    6.3506   -4.1355   -1.8149 H   0  0  0  0  0  0  0  0  0  0  0  0
    8.0310   -3.9677   -1.5800 H   0  0  0  0  0  0  0  0  0  0  0  0
    5.0871   -2.9944    0.8549 H   0  0  0  0  0  0  0  0  0  0  0  0
    5.3550   -1.1119    1.9710 H   0  0  0  0  0  0  0  0  0  0  0  0
    7.3444   -0.2021    1.6880 H   0  0  0  0  0  0  0  0  0  0  0  0
    5.6115    0.1060    0.0196 H   0  0  0  0  0  0  0  0  0  0  0  0
    6.6431   -0.9734   -0.7434 H   0  0  0  0  0  0  0  0  0  0  0  0
    2.6069   -1.1048   -0.8243 H   0  0  0  0  0  0  0  0  0  0  0  0
    5.3678    0.0379   -2.4861 H   0  0  0  0  0  0  0  0  0  0  0  0
    2.3273   -0.4717   -2.7340 H   0  0  0  0  0  0  0  0  0  0  0  0
    3.0045    1.3733   -3.7731 H   0  0  0  0  0  0  0  0  0  0  0  0
    4.8197   -1.5825   -4.3158 H   0  0  0  0  0  0  0  0  0  0  0  0
    2.7030   -2.9170   -2.7886 H   0  0  0  0  0  0  0  0  0  0  0  0
    4.1517   -3.7260   -3.4351 H   0  0  0  0  0  0  0  0  0  0  0  0
    5.3156   -3.2001   -1.5897 H   0  0  0  0  0  0  0  0  0  0  0  0
  1  2  2  0
  1 28  1  0
  1 29  1  0
  2  9  1  0
  2  3  1  0
  3  4  2  3
  3 30  1  0
  4  5  1  0
  4 31  1  0
  5 27  1  0
  5  6  1  0
  5 32  1  6
  6 12  1  0
  6  7  1  0
  6 33  1  6
  7  8  1  0
  7 34  1  0
  7 35  1  0
  8  9  1  0
  8 36  1  0
  8 37  1  0
  9 10  1  0
  9 38  1  1
 10 16  1  0
 10 11  1  0
 10 39  1  1
 11 12  1  0
 11 40  1  0
 11 41  1  0
 12 13  1  0
 12 42  1  6
 13 14  1  0
 13 15  1  0
 13 16  1  0
 14 43  1  0
 14 44  1  0
 14 45  1  0
 15 46  1  0
 15 47  1  0
 15 48  1  0
 16 17  1  0
 16 49  1  6
 17 18  1  0
 17 19  1  0
 17 50  1  1
 18 51  1  0
 19 20  1  0
 19 52  1  0
 19 53  1  0
 20 27  1  0
 20 21  1  1
 20 22  1  0
 21 54  1  0
 22 25  1  0
 22 23  1  0
 22 55  1  6
 23 24  1  0
 23 25  1  0
 23 56  1  1
 24 57  1  0
 25 26  1  0
 25 58  1  6
 26 27  1  0
 26 59  1  0
 26 60  1  0
 27 61  1  6
M  CHG  1  27   1
M  END
>  <i_m_ct_stereo_status>  (12) 
1

>  <s_m_source_file>  (12) 
/var/tmp/pbs.5076255.sched01/tmpvv81v907/0tx7qkblw.sdf

>  <i_m_source_file_index>  (12) 
8

>  <i_lp_mmshare_version>  (12) 
48012

>  <i_f3d_flags>  (12) 
0

>  <s_epik_input>  (12) 
W0NIXVwxPVtDSF1cQyg9W0NIMl0pW0NAQEhdKFtDSDJdW0NIMl0yKVtDQEhdKFtDSF0oQzMoW0NIM10pW0NIM10pW0NAQEhdKFtPSF0pW0NIMl00KVtDSDJdW0NASF0zW0NAQEhdMltDQEBIXTFONVtDSDJdW0NAQEhdKFtDQEBIXTZbT0hdKVtDQEBIXTZbQ0BdNDVbT0hd

>  <s_epik_cmdline>  (12) 
J2VwaWtfcHl0aG9uJywgJy1waHQnLCAnMi4wJywgJy1waCcsICc3LjAnLCAnLXRuJywgJzgnLCAnLW1hJywgJzIwMCcsICctaW1hZScsICc8aW5maWxlLm1hZT4nLCAnLW9tYWUnLCAnPG91dGZpbGUubWFlPic=

>  <r_epik_Ionization_Penalty>  (12) 
0.174465

>  <r_epik_Ionization_Penalty_Charging>  (12) 
0.172252

>  <r_epik_Ionization_Penalty_Neutral>  (12) 
0.00221273

>  <r_epik_State_Penalty>  (12) 
0.16281

>  <r_epik_Charging_Adjusted_Penalty>  (12) 
0.335063

>  <i_epik_Tot_Q>  (12) 
1

>  <i_epik_Tot_abs_Q>  (12) 
1

>  <s_lp_Force_Field>  (12) 
OPLS3e

>  <r_lp_Energy>  (12) 
133.393

>  <b_lp_Chiralities_Consistent>  (12) 
1

>  <s_lp_Variant>  (12) 
5:0-1

>  <s_i_glide_gridfile>  (12) 
pfpi4k_grid

>  <i_i_glide_lignum>  (12) 
8

>  <i_i_glide_rotatable_bonds>  (12) 
3

>  <r_i_docking_score>  (12) 
-5.10613

>  <r_i_glide_ligand_efficiency>  (12) 
-0.189116

>  <r_i_glide_ligand_efficiency_sa>  (12) 
-0.567348

>  <r_i_glide_ligand_efficiency_ln>  (12) 
-1.18862

>  <r_i_glide_gscore>  (12) 
-5.10613

>  <r_i_glide_lipo>  (12) 
-1.14122

>  <r_i_glide_hbond>  (12) 
-0.709366

>  <r_i_glide_metal>  (12) 
-0

>  <r_i_glide_rewards>  (12) 
-0.869175

>  <r_i_glide_evdw>  (12) 
-1.4277

>  <r_i_glide_ecoul>  (12) 
-15.066

>  <r_i_glide_erotb>  (12) 
0

>  <r_i_glide_esite>  (12) 
-0.0550786

>  <r_i_glide_emodel>  (12) 
-18.2143

>  <r_i_glide_energy>  (12) 
-16.4937

>  <r_i_glide_einternal>  (12) 
1.74188

>  <r_i_glide_intrahb_reward>  (12) 
-0

>  <i_i_glide_confnum>  (12) 
2

>  <i_i_glide_posenum>  (12) 
3

>  <r_i_glide_eff_state_penalty>  (12) 
0

>  <ligand_id>  (12) 
5

>  <original_smiles>  (12) 
C=C1C=CC2C3CCC1C1CC3C(C)(C)C1C(O)CC1(O)C3C(O)C3CN21

>  <smiles>  (12) 
[H]OC1([H])C([H])([H])C2(O[H])C3([H])C([H])(O[H])C3([H])C([H])([H])[N+]2([H])C2([H])C([H])=C([H])C(=C([H])[H])C3([H])C([H])([H])C([H])([H])C2([H])C2([H])C([H])([H])C3([H])C1([H])C2(C([H])([H])[H])C([H])([H])[H]

$$$$
5:0:1
     RDKit          3D

 61 66  0  0  1  0  0  0  0  0999 V2000
    2.9855   -3.2045    3.4107 C   0  0  0  0  0  0  0  0  0  0  0  0
    3.3398   -4.1333    2.4973 C   0  0  0  0  0  0  0  0  0  0  0  0
    2.4482   -4.3647    1.3925 C   0  0  0  0  0  0  0  0  0  0  0  0
    2.8261   -4.6419    0.1039 C   0  0  0  0  0  0  0  0  0  0  0  0
    4.2168   -4.6129   -0.5461 C   0  0  2  0  0  0  0  0  0  0  0  0
    5.3070   -5.6561    0.0170 C   0  0  2  0  0  0  0  0  0  0  0  0
    4.6630   -6.8232    0.8121 C   0  0  0  0  0  0  0  0  0  0  0  0
    4.2386   -6.5016    2.2605 C   0  0  0  0  0  0  0  0  0  0  0  0
    4.5307   -5.0415    2.7509 C   0  0  1  0  0  0  0  0  0  0  0  0
    5.9509   -4.3839    2.5550 C   0  0  1  0  0  0  0  0  0  0  0  0
    6.8886   -5.5167    2.0808 C   0  0  0  0  0  0  0  0  0  0  0  0
    6.8002   -5.3244    0.5503 C   0  0  2  0  0  0  0  0  0  0  0  0
    7.2582   -3.8432    0.3920 C   0  0  0  0  0  0  0  0  0  0  0  0
    8.7138   -3.6085    0.8504 C   0  0  0  0  0  0  0  0  0  0  0  0
    7.3492   -3.4210   -1.1180 C   0  0  0  0  0  0  0  0  0  0  0  0
    6.2185   -3.2802    1.4501 C   0  0  2  0  0  0  0  0  0  0  0  0
    5.7992   -1.8159    1.5018 C   0  0  1  0  0  0  0  0  0  0  0  0
    6.8171   -1.0799    2.0143 O   0  0  0  0  0  0  0  0  0  0  0  0
    5.4222   -1.2094    0.1366 C   0  0  0  0  0  0  0  0  0  0  0  0
    4.3331   -1.8955   -0.7789 C   0  0  1  0  0  0  0  0  0  0  0  0
    3.0917   -1.8971   -0.1077 O   0  0  0  0  0  0  0  0  0  0  0  0
    4.2311   -1.0470   -2.0463 C   0  0  2  0  0  0  0  0  0  0  0  0
    3.0392   -1.0502   -2.9595 C   0  0  1  0  0  0  0  0  0  0  0  0
    3.0795   -0.1204   -4.0045 O   0  0  0  0  0  0  0  0  0  0  0  0
    4.1445   -1.9834   -3.2183 C   0  0  2  0  0  0  0  0  0  0  0  0
    4.0556   -3.3604   -2.7058 C   0  0  0  0  0  0  0  0  0  0  0  0
    4.5467   -3.3264   -1.2908 N   0  0  2  0  0  0  0  0  0  0  0  0
    3.5663   -3.0554    4.2977 H   0  0  0  0  0  0  0  0  0  0  0  0
    2.1082   -2.6030    3.2388 H   0  0  0  0  0  0  0  0  0  0  0  0
    1.4190   -4.4087    1.6506 H   0  0  0  0  0  0  0  0  0  0  0  0
    2.0661   -4.8173   -0.6206 H   0  0  0  0  0  0  0  0  0  0  0  0
    4.1058   -5.0846   -1.4789 H   0  0  0  0  0  0  0  0  0  0  0  0
    5.4767   -6.1924   -0.8800 H   0  0  0  0  0  0  0  0  0  0  0  0
    3.8161   -7.2040    0.2430 H   0  0  0  0  0  0  0  0  0  0  0  0
    5.3662   -7.6628    0.8181 H   0  0  0  0  0  0  0  0  0  0  0  0
    3.1786   -6.7625    2.3730 H   0  0  0  0  0  0  0  0  0  0  0  0
    4.7378   -7.2197    2.9153 H   0  0  0  0  0  0  0  0  0  0  0  0
    4.4725   -5.1990    3.8193 H   0  0  0  0  0  0  0  0  0  0  0  0
    6.2195   -3.9468    3.5391 H   0  0  0  0  0  0  0  0  0  0  0  0
    7.8978   -5.3932    2.4558 H   0  0  0  0  0  0  0  0  0  0  0  0
    6.6921   -6.5421    2.4065 H   0  0  0  0  0  0  0  0  0  0  0  0
    7.5165   -6.0295    0.1106 H   0  0  0  0  0  0  0  0  0  0  0  0
    9.0323   -2.6038    0.5539 H   0  0  0  0  0  0  0  0  0  0  0  0
    9.3998   -4.3588    0.4588 H   0  0  0  0  0  0  0  0  0  0  0  0
    8.7958   -3.6748    1.9309 H   0  0  0  0  0  0  0  0  0  0  0  0
    7.2833   -2.3626   -1.3762 H   0  0  0  0  0  0  0  0  0  0  0  0
    6.6604   -3.9616   -1.7548 H   0  0  0  0  0  0  0  0  0  0  0  0
    8.3250   -3.7182   -1.5181 H   0  0  0  0  0  0  0  0  0  0  0  0
    5.2488   -3.3532    1.1079 H   0  0  0  0  0  0  0  0  0  0  0  0
    4.9494   -1.7164    2.1698 H   0  0  0  0  0  0  0  0  0  0  0  0
    6.8855   -0.2606    1.5390 H   0  0  0  0  0  0  0  0  0  0  0  0
    5.0077   -0.2192    0.3577 H   0  0  0  0  0  0  0  0  0  0  0  0
    6.3186   -0.9605   -0.4206 H   0  0  0  0  0  0  0  0  0  0  0  0
    2.4170   -1.4305   -0.6008 H   0  0  0  0  0  0  0  0  0  0  0  0
    4.9243   -0.2138   -2.1613 H   0  0  0  0  0  0  0  0  0  0  0  0
    2.0775   -1.4375   -2.5916 H   0  0  0  0  0  0  0  0  0  0  0  0
    2.1771    0.0078   -4.2664 H   0  0  0  0  0  0  0  0  0  0  0  0
    4.7840   -1.7972   -4.0838 H   0  0  0  0  0  0  0  0  0  0  0  0
    3.0071   -3.6760   -2.7477 H   0  0  0  0  0  0  0  0  0  0  0  0
    4.6294   -4.0395   -3.3474 H   0  0  0  0  0  0  0  0  0  0  0  0
    5.5432   -3.3660   -1.4087 H   0  0  0  0  0  0  0  0  0  0  0  0
  1  2  2  0
  1 28  1  0
  1 29  1  0
  2  9  1  0
  2  3  1  0
  3  4  2  3
  3 30  1  0
  4  5  1  0
  4 31  1  0
  5 27  1  0
  5  6  1  0
  5 32  1  6
  6 12  1  0
  6  7  1  0
  6 33  1  6
  7  8  1  0
  7 34  1  0
  7 35  1  0
  8  9  1  0
  8 36  1  0
  8 37  1  0
  9 10  1  0
  9 38  1  1
 10 16  1  0
 10 11  1  0
 10 39  1  1
 11 12  1  0
 11 40  1  0
 11 41  1  0
 12 13  1  0
 12 42  1  6
 13 14  1  0
 13 15  1  0
 13 16  1  0
 14 43  1  0
 14 44  1  0
 14 45  1  0
 15 46  1  0
 15 47  1  0
 15 48  1  0
 16 17  1  0
 16 49  1  6
 17 18  1  0
 17 19  1  0
 17 50  1  1
 18 51  1  0
 19 20  1  0
 19 52  1  0
 19 53  1  0
 20 27  1  0
 20 21  1  1
 20 22  1  0
 21 54  1  0
 22 25  1  0
 22 23  1  0
 22 55  1  6
 23 24  1  0
 23 25  1  0
 23 56  1  1
 24 57  1  0
 25 26  1  0
 25 58  1  6
 26 27  1  0
 26 59  1  0
 26 60  1  0
 27 61  1  6
M  CHG  1  27   1
M  END
>  <i_m_ct_stereo_status>  (13) 
1

>  <s_m_source_file>  (13) 
/var/tmp/pbs.5076255.sched01/tmpvv81v907/0tx7qkblw.sdf

>  <i_m_source_file_index>  (13) 
8

>  <i_lp_mmshare_version>  (13) 
48012

>  <i_f3d_flags>  (13) 
0

>  <s_epik_input>  (13) 
W0NIXVwxPVtDSF1cQyg9W0NIMl0pW0NAQEhdKFtDSDJdW0NIMl0yKVtDQEhdKFtDSF0oQzMoW0NIM10pW0NIM10pW0NAQEhdKFtPSF0pW0NIMl00KVtDSDJdW0NASF0zW0NAQEhdMltDQEBIXTFONVtDSDJdW0NAQEhdKFtDQEBIXTZbT0hdKVtDQEBIXTZbQ0BdNDVbT0hd

>  <s_epik_cmdline>  (13) 
J2VwaWtfcHl0aG9uJywgJy1waHQnLCAnMi4wJywgJy1waCcsICc3LjAnLCAnLXRuJywgJzgnLCAnLW1hJywgJzIwMCcsICctaW1hZScsICc8aW5maWxlLm1hZT4nLCAnLW9tYWUnLCAnPG91dGZpbGUubWFlPic=

>  <r_epik_Ionization_Penalty>  (13) 
0.174465

>  <r_epik_Ionization_Penalty_Charging>  (13) 
0.172252

>  <r_epik_Ionization_Penalty_Neutral>  (13) 
0.00221273

>  <r_epik_State_Penalty>  (13) 
0.16281

>  <r_epik_Charging_Adjusted_Penalty>  (13) 
0.335063

>  <i_epik_Tot_Q>  (13) 
1

>  <i_epik_Tot_abs_Q>  (13) 
1

>  <s_lp_Force_Field>  (13) 
OPLS3e

>  <r_lp_Energy>  (13) 
133.393

>  <b_lp_Chiralities_Consistent>  (13) 
1

>  <s_lp_Variant>  (13) 
5:0-1

>  <s_i_glide_gridfile>  (13) 
pfpi4k_grid

>  <i_i_glide_lignum>  (13) 
8

>  <i_i_glide_rotatable_bonds>  (13) 
3

>  <r_i_docking_score>  (13) 
-3.84753

>  <r_i_glide_ligand_efficiency>  (13) 
-0.142501

>  <r_i_glide_ligand_efficiency_sa>  (13) 
-0.427503

>  <r_i_glide_ligand_efficiency_ln>  (13) 
-0.89564

>  <r_i_glide_gscore>  (13) 
-3.84753

>  <r_i_glide_lipo>  (13) 
-1.07839

>  <r_i_glide_hbond>  (13) 
-0.361892

>  <r_i_glide_metal>  (13) 
-0

>  <r_i_glide_rewards>  (13) 
-0.869175

>  <r_i_glide_evdw>  (13) 
-4.28237

>  <r_i_glide_ecoul>  (13) 
-8.85575

>  <r_i_glide_erotb>  (13) 
0

>  <r_i_glide_esite>  (13) 
-0.0309364

>  <r_i_glide_emodel>  (13) 
-11.7124

>  <r_i_glide_energy>  (13) 
-13.1381

>  <r_i_glide_einternal>  (13) 
2.15183

>  <r_i_glide_intrahb_reward>  (13) 
-0

>  <i_i_glide_confnum>  (13) 
1

>  <i_i_glide_posenum>  (13) 
27

>  <r_i_glide_eff_state_penalty>  (13) 
0

>  <ligand_id>  (13) 
5

>  <original_smiles>  (13) 
C=C1C=CC2C3CCC1C1CC3C(C)(C)C1C(O)CC1(O)C3C(O)C3CN21

>  <smiles>  (13) 
[H]OC1([H])C([H])([H])C2(O[H])C3([H])C([H])(O[H])C3([H])C([H])([H])[N+]2([H])C2([H])C([H])=C([H])C(=C([H])[H])C3([H])C([H])([H])C([H])([H])C2([H])C2([H])C([H])([H])C3([H])C1([H])C2(C([H])([H])[H])C([H])([H])[H]

$$$$
5:0:2
     RDKit          3D

 61 66  0  0  1  0  0  0  0  0999 V2000
    2.2204   -3.8119   -1.0332 C   0  0  0  0  0  0  0  0  0  0  0  0
    3.0335   -3.2588   -0.1307 C   0  0  0  0  0  0  0  0  0  0  0  0
    2.4538   -2.6246    1.0454 C   0  0  0  0  0  0  0  0  0  0  0  0
    2.9243   -2.5483    2.2954 C   0  0  0  0  0  0  0  0  0  0  0  0
    4.1290   -3.2503    2.9243 C   0  0  2  0  0  0  0  0  0  0  0  0
    5.6042   -2.9349    2.2931 C   0  0  2  0  0  0  0  0  0  0  0  0
    5.5993   -1.6179    1.4829 C   0  0  0  0  0  0  0  0  0  0  0  0
    5.0191   -1.6814    0.0393 C   0  0  0  0  0  0  0  0  0  0  0  0
    4.4989   -3.0637   -0.4763 C   0  0  1  0  0  0  0  0  0  0  0  0
    5.4000   -4.3458   -0.3125 C   0  0  1  0  0  0  0  0  0  0  0  0
    6.7817   -3.8590    0.1186 C   0  0  0  0  0  0  0  0  0  0  0  0
    6.6451   -3.9957    1.6392 C   0  0  2  0  0  0  0  0  0  0  0  0
    6.2966   -5.4804    1.7883 C   0  0  0  0  0  0  0  0  0  0  0  0
    7.3247   -6.4735    1.1892 C   0  0  0  0  0  0  0  0  0  0  0  0
    6.3014   -5.8377    3.3071 C   0  0  0  0  0  0  0  0  0  0  0  0
    5.0508   -5.3519    0.8505 C   0  0  2  0  0  0  0  0  0  0  0  0
    4.0339   -6.4721    0.7377 C   0  0  1  0  0  0  0  0  0  0  0  0
    4.6178   -7.6219    0.1730 O   0  0  0  0  0  0  0  0  0  0  0  0
    3.4269   -6.8117    2.1213 C   0  0  0  0  0  0  0  0  0  0  0  0
    2.8624   -5.6869    3.0863 C   0  0  1  0  0  0  0  0  0  0  0  0
    1.7322   -5.0535    2.5071 O   0  0  0  0  0  0  0  0  0  0  0  0
    2.3129   -6.3718    4.3250 C   0  0  2  0  0  0  0  0  0  0  0  0
    1.2539   -5.7842    5.2362 C   0  0  1  0  0  0  0  0  0  0  0  0
    0.6457   -6.6938    6.1421 O   0  0  0  0  0  0  0  0  0  0  0  0
    2.7166   -5.5542    5.5227 C   0  0  2  0  0  0  0  0  0  0  0  0
    3.4043   -4.3150    5.0281 C   0  0  0  0  0  0  0  0  0  0  0  0
    3.7676   -4.5502    3.6213 N   0  0  2  0  0  0  0  0  0  0  0  0
    2.6106   -4.2037   -1.9548 H   0  0  0  0  0  0  0  0  0  0  0  0
    1.1576   -3.8924   -0.8952 H   0  0  0  0  0  0  0  0  0  0  0  0
    1.5393   -2.0693    0.8761 H   0  0  0  0  0  0  0  0  0  0  0  0
    2.3187   -1.9868    3.0009 H   0  0  0  0  0  0  0  0  0  0  0  0
    4.2156   -2.5403    3.7585 H   0  0  0  0  0  0  0  0  0  0  0  0
    6.1458   -2.6539    3.1943 H   0  0  0  0  0  0  0  0  0  0  0  0
    5.0784   -0.8339    2.0416 H   0  0  0  0  0  0  0  0  0  0  0  0
    6.6263   -1.2407    1.4256 H   0  0  0  0  0  0  0  0  0  0  0  0
    4.2354   -0.9299   -0.0534 H   0  0  0  0  0  0  0  0  0  0  0  0
    5.7787   -1.3064   -0.6478 H   0  0  0  0  0  0  0  0  0  0  0  0
    4.4863   -2.9043   -1.5565 H   0  0  0  0  0  0  0  0  0  0  0  0
    5.4382   -4.8821   -1.2537 H   0  0  0  0  0  0  0  0  0  0  0  0
    7.5670   -4.4957   -0.2769 H   0  0  0  0  0  0  0  0  0  0  0  0
    7.1161   -2.8922   -0.2289 H   0  0  0  0  0  0  0  0  0  0  0  0
    7.6392   -3.8611    2.0486 H   0  0  0  0  0  0  0  0  0  0  0  0
    7.1214   -7.4928    1.5414 H   0  0  0  0  0  0  0  0  0  0  0  0
    8.3511   -6.2346    1.4610 H   0  0  0  0  0  0  0  0  0  0  0  0
    7.2813   -6.5311    0.1052 H   0  0  0  0  0  0  0  0  0  0  0  0
    5.6470   -6.6509    3.5959 H   0  0  0  0  0  0  0  0  0  0  0  0
    6.1683   -4.9932    3.9753 H   0  0  0  0  0  0  0  0  0  0  0  0
    7.2942   -6.1958    3.5924 H   0  0  0  0  0  0  0  0  0  0  0  0
    4.3249   -4.7560    1.2883 H   0  0  0  0  0  0  0  0  0  0  0  0
    3.2355   -6.1545    0.0703 H   0  0  0  0  0  0  0  0  0  0  0  0
    4.7754   -7.4502   -0.7404 H   0  0  0  0  0  0  0  0  0  0  0  0
    2.5705   -7.4401    1.8867 H   0  0  0  0  0  0  0  0  0  0  0  0
    4.0770   -7.5077    2.6394 H   0  0  0  0  0  0  0  0  0  0  0  0
    1.8459   -4.1289    2.5572 H   0  0  0  0  0  0  0  0  0  0  0  0
    2.4980   -7.4475    4.4106 H   0  0  0  0  0  0  0  0  0  0  0  0
    0.6356   -4.9481    4.9114 H   0  0  0  0  0  0  0  0  0  0  0  0
    1.1278   -7.4986    6.1757 H   0  0  0  0  0  0  0  0  0  0  0  0
    3.2000   -6.0923    6.3455 H   0  0  0  0  0  0  0  0  0  0  0  0
    2.6582   -3.5123    5.1177 H   0  0  0  0  0  0  0  0  0  0  0  0
    4.2532   -4.0656    5.6707 H   0  0  0  0  0  0  0  0  0  0  0  0
    4.6732   -5.0271    3.6932 H   0  0  0  0  0  0  0  0  0  0  0  0
  1  2  2  0
  1 28  1  0
  1 29  1  0
  2  9  1  0
  2  3  1  0
  3  4  2  3
  3 30  1  0
  4  5  1  0
  4 31  1  0
  5 27  1  0
  5  6  1  0
  5 32  1  1
  6 12  1  0
  6  7  1  0
  6 33  1  1
  7  8  1  0
  7 34  1  0
  7 35  1  0
  8  9  1  0
  8 36  1  0
  8 37  1  0
  9 10  1  0
  9 38  1  6
 10 16  1  0
 10 11  1  0
 10 39  1  6
 11 12  1  0
 11 40  1  0
 11 41  1  0
 12 13  1  0
 12 42  1  1
 13 14  1  0
 13 15  1  0
 13 16  1  0
 14 43  1  0
 14 44  1  0
 14 45  1  0
 15 46  1  0
 15 47  1  0
 15 48  1  0
 16 17  1  0
 16 49  1  1
 17 18  1  0
 17 19  1  0
 17 50  1  6
 18 51  1  0
 19 20  1  0
 19 52  1  0
 19 53  1  0
 20 27  1  0
 20 21  1  6
 20 22  1  0
 21 54  1  0
 22 25  1  0
 22 23  1  0
 22 55  1  1
 23 24  1  0
 23 25  1  0
 23 56  1  6
 24 57  1  0
 25 26  1  0
 25 58  1  1
 26 27  1  0
 26 59  1  0
 26 60  1  0
 27 61  1  1
M  CHG  1  27   1
M  END
>  <i_m_ct_stereo_status>  (14) 
1

>  <s_m_source_file>  (14) 
/var/tmp/pbs.5076255.sched01/tmpvv81v907/0tx7qkblw.sdf

>  <i_m_source_file_index>  (14) 
8

>  <i_lp_mmshare_version>  (14) 
48012

>  <i_f3d_flags>  (14) 
0

>  <s_epik_input>  (14) 
W0NIXVwxPVtDSF1cQyg9W0NIMl0pW0NAQEhdKFtDSDJdW0NIMl0yKVtDQEhdKFtDSF0oQzMoW0NIM10pW0NIM10pW0NAQEhdKFtPSF0pW0NIMl00KVtDSDJdW0NASF0zW0NAQEhdMltDQEBIXTFONVtDSDJdW0NAQEhdKFtDQEBIXTZbT0hdKVtDQEBIXTZbQ0BdNDVbT0hd

>  <s_epik_cmdline>  (14) 
J2VwaWtfcHl0aG9uJywgJy1waHQnLCAnMi4wJywgJy1waCcsICc3LjAnLCAnLXRuJywgJzgnLCAnLW1hJywgJzIwMCcsICctaW1hZScsICc8aW5maWxlLm1hZT4nLCAnLW9tYWUnLCAnPG91dGZpbGUubWFlPic=

>  <r_epik_Ionization_Penalty>  (14) 
0.174465

>  <r_epik_Ionization_Penalty_Charging>  (14) 
0.172252

>  <r_epik_Ionization_Penalty_Neutral>  (14) 
0.00221273

>  <r_epik_State_Penalty>  (14) 
0.16281

>  <r_epik_Charging_Adjusted_Penalty>  (14) 
0.335063

>  <i_epik_Tot_Q>  (14) 
1

>  <i_epik_Tot_abs_Q>  (14) 
1

>  <s_lp_Force_Field>  (14) 
OPLS3e

>  <r_lp_Energy>  (14) 
133.393

>  <b_lp_Chiralities_Consistent>  (14) 
1

>  <s_lp_Variant>  (14) 
5:0-1

>  <s_i_glide_gridfile>  (14) 
pfpi4k_grid

>  <i_i_glide_lignum>  (14) 
8

>  <i_i_glide_rotatable_bonds>  (14) 
3

>  <r_i_docking_score>  (14) 
-3.01074

>  <r_i_glide_ligand_efficiency>  (14) 
-0.111509

>  <r_i_glide_ligand_efficiency_sa>  (14) 
-0.334526

>  <r_i_glide_ligand_efficiency_ln>  (14) 
-0.70085

>  <r_i_glide_gscore>  (14) 
-3.01074

>  <r_i_glide_lipo>  (14) 
-0.713379

>  <r_i_glide_hbond>  (14) 
0

>  <r_i_glide_metal>  (14) 
-0

>  <r_i_glide_rewards>  (14) 
-0.869175

>  <r_i_glide_evdw>  (14) 
-15.1834

>  <r_i_glide_ecoul>  (14) 
-4.45229

>  <r_i_glide_erotb>  (14) 
0

>  <r_i_glide_esite>  (14) 
-0.00116825

>  <r_i_glide_emodel>  (14) 
-21.4661

>  <r_i_glide_energy>  (14) 
-19.6357

>  <r_i_glide_einternal>  (14) 
1.45643

>  <r_i_glide_intrahb_reward>  (14) 
-0

>  <i_i_glide_confnum>  (14) 
2

>  <i_i_glide_posenum>  (14) 
20

>  <r_i_glide_eff_state_penalty>  (14) 
0

>  <ligand_id>  (14) 
5

>  <original_smiles>  (14) 
C=C1C=CC2C3CCC1C1CC3C(C)(C)C1C(O)CC1(O)C3C(O)C3CN21

>  <smiles>  (14) 
[H]OC1([H])C([H])([H])C2(O[H])C3([H])C([H])(O[H])C3([H])C([H])([H])[N+]2([H])C2([H])C([H])=C([H])C(=C([H])[H])C3([H])C([H])([H])C([H])([H])C2([H])C2([H])C([H])([H])C3([H])C1([H])C2(C([H])([H])[H])C([H])([H])[H]

$$$$
5:1:0
     RDKit          3D

 61 66  0  0  1  0  0  0  0  0999 V2000
    4.4148   -1.1038    4.3835 C   0  0  0  0  0  0  0  0  0  0  0  0
    3.7527   -2.1457    3.8521 C   0  0  0  0  0  0  0  0  0  0  0  0
    2.5846   -1.9335    3.0300 C   0  0  0  0  0  0  0  0  0  0  0  0
    2.8482   -2.1316    1.7354 C   0  0  0  0  0  0  0  0  0  0  0  0
    2.6108   -3.4355    0.9520 C   0  0  2  0  0  0  0  0  0  0  0  0
    2.7797   -4.8969    1.7408 C   0  0  2  0  0  0  0  0  0  0  0  0
    2.0465   -4.9360    3.1243 C   0  0  0  0  0  0  0  0  0  0  0  0
    2.7921   -4.3859    4.3916 C   0  0  0  0  0  0  0  0  0  0  0  0
    4.1319   -3.5970    4.1636 C   0  0  1  0  0  0  0  0  0  0  0  0
    5.2682   -4.3349    3.3094 C   0  0  1  0  0  0  0  0  0  0  0  0
    4.8291   -5.8055    3.2226 C   0  0  0  0  0  0  0  0  0  0  0  0
    4.1295   -5.8337    1.8527 C   0  0  2  0  0  0  0  0  0  0  0  0
    5.3302   -5.3947    1.0037 C   0  0  0  0  0  0  0  0  0  0  0  0
    6.6712   -6.1906    1.0922 C   0  0  0  0  0  0  0  0  0  0  0  0
    4.9039   -5.6060   -0.4526 C   0  0  0  0  0  0  0  0  0  0  0  0
    5.5184   -4.0557    1.7618 C   0  0  2  0  0  0  0  0  0  0  0  0
    6.2523   -2.8937    1.1033 C   0  0  1  0  0  0  0  0  0  0  0  0
    7.5870   -3.3020    1.0155 O   0  0  0  0  0  0  0  0  0  0  0  0
    5.8236   -2.5566   -0.3597 C   0  0  0  0  0  0  0  0  0  0  0  0
    4.3402   -2.3968   -0.8856 C   0  0  1  0  0  0  0  0  0  0  0  0
    3.8041   -1.0979   -0.6695 O   0  0  0  0  0  0  0  0  0  0  0  0
    4.3310   -2.5384   -2.4064 C   0  0  2  0  0  0  0  0  0  0  0  0
    3.3092   -1.8735   -3.3184 C   0  0  1  0  0  0  0  0  0  0  0  0
    3.6789   -1.8827   -4.6702 O   0  0  0  0  0  0  0  0  0  0  0  0
    3.0629   -3.2538   -2.7996 C   0  0  2  0  0  0  0  0  0  0  0  0
    2.2638   -3.4728   -1.5455 C   0  0  0  0  0  0  0  0  0  0  0  0
    3.2456   -3.3571   -0.4356 N   0  0  2  0  0  0  0  0  0  0  0  0
    5.2610   -1.2590    5.0281 H   0  0  0  0  0  0  0  0  0  0  0  0
    4.1016   -0.0924    4.1829 H   0  0  0  0  0  0  0  0  0  0  0  0
    1.6646   -2.3296    3.4195 H   0  0  0  0  0  0  0  0  0  0  0  0
    3.8042   -1.6986    1.5369 H   0  0  0  0  0  0  0  0  0  0  0  0
    1.5744   -3.3040    0.7455 H   0  0  0  0  0  0  0  0  0  0  0  0
    2.1489   -5.5333    1.1172 H   0  0  0  0  0  0  0  0  0  0  0  0
    1.0820   -4.4362    3.0277 H   0  0  0  0  0  0  0  0  0  0  0  0
    1.7758   -5.9733    3.3417 H   0  0  0  0  0  0  0  0  0  0  0  0
    2.0988   -3.7708    4.9660 H   0  0  0  0  0  0  0  0  0  0  0  0
    2.9481   -5.1922    5.1080 H   0  0  0  0  0  0  0  0  0  0  0  0
    4.5639   -3.5438    5.1617 H   0  0  0  0  0  0  0  0  0  0  0  0
    6.2132   -4.2783    3.8437 H   0  0  0  0  0  0  0  0  0  0  0  0
    5.6918   -6.4621    3.2708 H   0  0  0  0  0  0  0  0  0  0  0  0
    4.2545   -6.2482    4.0250 H   0  0  0  0  0  0  0  0  0  0  0  0
    3.8749   -6.8717    1.6197 H   0  0  0  0  0  0  0  0  0  0  0  0
    7.3146   -5.9559    0.2408 H   0  0  0  0  0  0  0  0  0  0  0  0
    6.5044   -7.2672    1.0879 H   0  0  0  0  0  0  0  0  0  0  0  0
    7.2696   -5.9405    1.9682 H   0  0  0  0  0  0  0  0  0  0  0  0
    5.4136   -5.0233   -1.2132 H   0  0  0  0  0  0  0  0  0  0  0  0
    3.8343   -5.6340   -0.6358 H   0  0  0  0  0  0  0  0  0  0  0  0
    5.1259   -6.6414   -0.6801 H   0  0  0  0  0  0  0  0  0  0  0  0
    4.7019   -3.4816    1.6577 H   0  0  0  0  0  0  0  0  0  0  0  0
    6.1562   -2.0041    1.7344 H   0  0  0  0  0  0  0  0  0  0  0  0
    7.8747   -3.4637    1.9017 H   0  0  0  0  0  0  0  0  0  0  0  0
    6.2985   -1.6100   -0.5802 H   0  0  0  0  0  0  0  0  0  0  0  0
    6.3803   -3.2384   -0.9987 H   0  0  0  0  0  0  0  0  0  0  0  0
    2.8524   -1.1173   -0.7148 H   0  0  0  0  0  0  0  0  0  0  0  0
    5.2166   -2.9691   -2.8612 H   0  0  0  0  0  0  0  0  0  0  0  0
    2.6742   -1.0481   -2.9954 H   0  0  0  0  0  0  0  0  0  0  0  0
    2.8792   -1.8152   -5.1799 H   0  0  0  0  0  0  0  0  0  0  0  0
    3.1681   -4.1039   -3.4932 H   0  0  0  0  0  0  0  0  0  0  0  0
    1.5190   -2.7039   -1.5452 H   0  0  0  0  0  0  0  0  0  0  0  0
    1.7625   -4.4492   -1.5586 H   0  0  0  0  0  0  0  0  0  0  0  0
    3.7389   -4.2560   -0.4958 H   0  0  0  0  0  0  0  0  0  0  0  0
  1  2  2  0
  1 28  1  0
  1 29  1  0
  2  9  1  0
  2  3  1  0
  3  4  2  3
  3 30  1  0
  4  5  1  0
  4 31  1  0
  5 27  1  0
  5  6  1  0
  5 32  1  6
  6 12  1  0
  6  7  1  0
  6 33  1  6
  7  8  1  0
  7 34  1  0
  7 35  1  0
  8  9  1  0
  8 36  1  0
  8 37  1  0
  9 10  1  0
  9 38  1  1
 10 16  1  0
 10 11  1  0
 10 39  1  1
 11 12  1  0
 11 40  1  0
 11 41  1  0
 12 13  1  0
 12 42  1  6
 13 14  1  0
 13 15  1  0
 13 16  1  0
 14 43  1  0
 14 44  1  0
 14 45  1  0
 15 46  1  0
 15 47  1  0
 15 48  1  0
 16 17  1  0
 16 49  1  6
 17 18  1  0
 17 19  1  0
 17 50  1  1
 18 51  1  0
 19 20  1  0
 19 52  1  0
 19 53  1  0
 20 27  1  0
 20 21  1  6
 20 22  1  0
 21 54  1  0
 22 25  1  0
 22 23  1  0
 22 55  1  6
 23 24  1  0
 23 25  1  0
 23 56  1  1
 24 57  1  0
 25 26  1  0
 25 58  1  6
 26 27  1  0
 26 59  1  0
 26 60  1  0
 27 61  1  6
M  CHG  1  27   1
M  END
>  <i_m_ct_stereo_status>  (15) 
1

>  <s_m_source_file>  (15) 
/var/tmp/pbs.5076255.sched01/tmpvv81v907/0tx7qkblw.sdf

>  <i_m_source_file_index>  (15) 
9

>  <i_lp_mmshare_version>  (15) 
48012

>  <i_f3d_flags>  (15) 
0

>  <s_epik_input>  (15) 
W0NIXVwxPVtDSF1cQyg9W0NIMl0pW0NAQEhdKFtDSDJdW0NIMl0yKVtDQEhdKFtDSF0oQzMoW0NIM10pW0NIM10pW0NAQEhdKFtPSF0pW0NIMl00KVtDSDJdW0NASF0zW0NAQEhdMltDQEBIXTFONVtDSDJdW0NAQEhdKFtDQEBIXTZbT0hdKVtDQEBIXTZbQ0BdNDVbT0hd

>  <s_epik_cmdline>  (15) 
J2VwaWtfcHl0aG9uJywgJy1waHQnLCAnMi4wJywgJy1waCcsICc3LjAnLCAnLXRuJywgJzgnLCAnLW1hJywgJzIwMCcsICctaW1hZScsICc8aW5maWxlLm1hZT4nLCAnLW9tYWUnLCAnPG91dGZpbGUubWFlPic=

>  <r_epik_Ionization_Penalty>  (15) 
0.174465

>  <r_epik_Ionization_Penalty_Charging>  (15) 
0.172252

>  <r_epik_Ionization_Penalty_Neutral>  (15) 
0.00221273

>  <r_epik_State_Penalty>  (15) 
0.16281

>  <r_epik_Charging_Adjusted_Penalty>  (15) 
0.335063

>  <i_epik_Tot_Q>  (15) 
1

>  <i_epik_Tot_abs_Q>  (15) 
1

>  <s_lp_Force_Field>  (15) 
OPLS3e

>  <r_lp_Energy>  (15) 
188.903

>  <b_lp_Chiralities_Consistent>  (15) 
1

>  <s_lp_Variant>  (15) 
5:0-2

>  <s_i_glide_gridfile>  (15) 
pfpi4k_grid

>  <i_i_glide_lignum>  (15) 
9

>  <i_i_glide_rotatable_bonds>  (15) 
3

>  <r_i_docking_score>  (15) 
-4.73476

>  <r_i_glide_ligand_efficiency>  (15) 
-0.175362

>  <r_i_glide_ligand_efficiency_sa>  (15) 
-0.526085

>  <r_i_glide_ligand_efficiency_ln>  (15) 
-1.10217

>  <r_i_glide_gscore>  (15) 
-4.73476

>  <r_i_glide_lipo>  (15) 
-0.628072

>  <r_i_glide_hbond>  (15) 
-0.694196

>  <r_i_glide_metal>  (15) 
-0

>  <r_i_glide_rewards>  (15) 
-0.869175

>  <r_i_glide_evdw>  (15) 
-11.5576

>  <r_i_glide_ecoul>  (15) 
-12.9746

>  <r_i_glide_erotb>  (15) 
0

>  <r_i_glide_esite>  (15) 
-0.0192561

>  <r_i_glide_emodel>  (15) 
-33.7847

>  <r_i_glide_energy>  (15) 
-24.5321

>  <r_i_glide_einternal>  (15) 
1.65494

>  <r_i_glide_intrahb_reward>  (15) 
-0

>  <i_i_glide_confnum>  (15) 
2

>  <i_i_glide_posenum>  (15) 
12

>  <r_i_glide_eff_state_penalty>  (15) 
0

>  <ligand_id>  (15) 
5

>  <original_smiles>  (15) 
C=C1C=CC2C3CCC1C1CC3C(C)(C)C1C(O)CC1(O)C3C(O)C3CN21

>  <smiles>  (15) 
[H]OC1([H])C([H])([H])C2(O[H])C3([H])C([H])(O[H])C3([H])C([H])([H])[N+]2([H])C2([H])C([H])=C([H])C(=C([H])[H])C3([H])C([H])([H])C([H])([H])C2([H])C2([H])C([H])([H])C3([H])C1([H])C2(C([H])([H])[H])C([H])([H])[H]

$$$$
5:1:1
     RDKit          3D

 61 66  0  0  1  0  0  0  0  0999 V2000
    4.8889   -1.0958    4.3660 C   0  0  0  0  0  0  0  0  0  0  0  0
    4.1005   -2.0353    3.8435 C   0  0  0  0  0  0  0  0  0  0  0  0
    2.9674   -1.6774    3.0111 C   0  0  0  0  0  0  0  0  0  0  0  0
    3.2151   -1.9231    1.7154 C   0  0  0  0  0  0  0  0  0  0  0  0
    2.7973   -3.1901    0.9274 C   0  0  2  0  0  0  0  0  0  0  0  0
    2.7723   -4.6412    1.7398 C   0  0  2  0  0  0  0  0  0  0  0  0
    2.0333   -4.5776    3.1310 C   0  0  0  0  0  0  0  0  0  0  0  0
    2.8447   -4.1213    4.3925 C   0  0  0  0  0  0  0  0  0  0  0  0
    4.2779   -3.5242    4.1625 C   0  0  1  0  0  0  0  0  0  0  0  0
    5.3013   -4.4167    3.3258 C   0  0  1  0  0  0  0  0  0  0  0  0
    4.6632   -5.8106    3.2462 C   0  0  0  0  0  0  0  0  0  0  0  0
    3.9809   -5.7569    1.8726 C   0  0  2  0  0  0  0  0  0  0  0  0
    5.2437   -5.4895    1.0357 C   0  0  0  0  0  0  0  0  0  0  0  0
    6.4659   -6.4500    1.1458 C   0  0  0  0  0  0  0  0  0  0  0  0
    4.8165   -5.6578   -0.4274 C   0  0  0  0  0  0  0  0  0  0  0  0
    5.6189   -4.1865    1.7781 C   0  0  2  0  0  0  0  0  0  0  0  0
    6.5186   -3.1342    1.1194 C   0  0  1  0  0  0  0  0  0  0  0  0
    7.8437   -3.6040    1.0798 O   0  0  0  0  0  0  0  0  0  0  0  0
    6.1312   -2.7855   -0.3505 C   0  0  0  0  0  0  0  0  0  0  0  0
    4.6802   -2.4252   -0.8708 C   0  0  1  0  0  0  0  0  0  0  0  0
    4.3243   -1.0654   -0.6643 O   0  0  0  0  0  0  0  0  0  0  0  0
    4.6503   -2.5499   -2.4004 C   0  0  2  0  0  0  0  0  0  0  0  0
    3.6877   -1.7532   -3.2884 C   0  0  1  0  0  0  0  0  0  0  0  0
    3.9971   -1.8038   -4.6608 O   0  0  0  0  0  0  0  0  0  0  0  0
    3.3232   -3.1327   -2.7916 C   0  0  2  0  0  0  0  0  0  0  0  0
    2.4893   -3.2833   -1.5662 C   0  0  0  0  0  0  0  0  0  0  0  0
    3.4622   -3.2241   -0.4393 N   0  0  2  0  0  0  0  0  0  0  0  0
    5.7067   -1.3589    5.0189 H   0  0  0  0  0  0  0  0  0  0  0  0
    4.7229   -0.0476    4.1572 H   0  0  0  0  0  0  0  0  0  0  0  0
    2.0047   -1.9427    3.3959 H   0  0  0  0  0  0  0  0  0  0  0  0
    4.2204   -1.6356    1.5314 H   0  0  0  0  0  0  0  0  0  0  0  0
    1.7651   -2.9407    0.7524 H   0  0  0  0  0  0  0  0  0  0  0  0
    2.0630   -5.1976    1.1267 H   0  0  0  0  0  0  0  0  0  0  0  0
    1.1454   -3.9534    3.0247 H   0  0  0  0  0  0  0  0  0  0  0  0
    1.6351   -5.5716    3.3487 H   0  0  0  0  0  0  0  0  0  0  0  0
    2.2367   -3.4096    4.9632 H   0  0  0  0  0  0  0  0  0  0  0  0
    2.8901   -4.9366    5.1191 H   0  0  0  0  0  0  0  0  0  0  0  0
    4.7107   -3.5232    5.1614 H   0  0  0  0  0  0  0  0  0  0  0  0
    6.2144   -4.4993    3.8808 H   0  0  0  0  0  0  0  0  0  0  0  0
    5.4286   -6.5763    3.3037 H   0  0  0  0  0  0  0  0  0  0  0  0
    4.0303   -6.1753    4.0445 H   0  0  0  0  0  0  0  0  0  0  0  0
    3.5867   -6.7498    1.6391 H   0  0  0  0  0  0  0  0  0  0  0  0
    7.1390   -6.2929    0.3026 H   0  0  0  0  0  0  0  0  0  0  0  0
    6.1526   -7.4938    1.1350 H   0  0  0  0  0  0  0  0  0  0  0  0
    7.0796   -6.2813    2.0300 H   0  0  0  0  0  0  0  0  0  0  0  0
    5.3727   -5.1139   -1.1787 H   0  0  0  0  0  0  0  0  0  0  0  0
    3.7477   -5.5750   -0.6022 H   0  0  0  0  0  0  0  0  0  0  0  0
    4.9688   -6.6998   -0.6945 H   0  0  0  0  0  0  0  0  0  0  0  0
    4.8698   -3.5250    1.6422 H   0  0  0  0  0  0  0  0  0  0  0  0
    6.4705   -2.2242    1.7235 H   0  0  0  0  0  0  0  0  0  0  0  0
    7.8411   -4.4845    0.7419 H   0  0  0  0  0  0  0  0  0  0  0  0
    6.7174   -1.9051   -0.5796 H   0  0  0  0  0  0  0  0  0  0  0  0
    6.5971   -3.5335   -0.9880 H   0  0  0  0  0  0  0  0  0  0  0  0
    3.3908   -0.9749   -0.6326 H   0  0  0  0  0  0  0  0  0  0  0  0
    5.4734   -3.0855   -2.8607 H   0  0  0  0  0  0  0  0  0  0  0  0
    3.1773   -0.8450   -2.9427 H   0  0  0  0  0  0  0  0  0  0  0  0
    3.2307   -1.4410   -5.0955 H   0  0  0  0  0  0  0  0  0  0  0  0
    3.3153   -3.9462   -3.5255 H   0  0  0  0  0  0  0  0  0  0  0  0
    1.8673   -2.4192   -1.6665 H   0  0  0  0  0  0  0  0  0  0  0  0
    1.8665   -4.1802   -1.6119 H   0  0  0  0  0  0  0  0  0  0  0  0
    3.8446   -4.1603   -0.4473 H   0  0  0  0  0  0  0  0  0  0  0  0
  1  2  2  0
  1 28  1  0
  1 29  1  0
  2  9  1  0
  2  3  1  0
  3  4  2  3
  3 30  1  0
  4  5  1  0
  4 31  1  0
  5 27  1  0
  5  6  1  0
  5 32  1  6
  6 12  1  0
  6  7  1  0
  6 33  1  6
  7  8  1  0
  7 34  1  0
  7 35  1  0
  8  9  1  0
  8 36  1  0
  8 37  1  0
  9 10  1  0
  9 38  1  1
 10 16  1  0
 10 11  1  0
 10 39  1  1
 11 12  1  0
 11 40  1  0
 11 41  1  0
 12 13  1  0
 12 42  1  6
 13 14  1  0
 13 15  1  0
 13 16  1  0
 14 43  1  0
 14 44  1  0
 14 45  1  0
 15 46  1  0
 15 47  1  0
 15 48  1  0
 16 17  1  0
 16 49  1  6
 17 18  1  0
 17 19  1  0
 17 50  1  1
 18 51  1  0
 19 20  1  0
 19 52  1  0
 19 53  1  0
 20 27  1  0
 20 21  1  6
 20 22  1  0
 21 54  1  0
 22 25  1  0
 22 23  1  0
 22 55  1  6
 23 24  1  0
 23 25  1  0
 23 56  1  1
 24 57  1  0
 25 26  1  0
 25 58  1  6
 26 27  1  0
 26 59  1  0
 26 60  1  0
 27 61  1  1
M  CHG  1  27   1
M  END
>  <i_m_ct_stereo_status>  (16) 
1

>  <s_m_source_file>  (16) 
/var/tmp/pbs.5076255.sched01/tmpvv81v907/0tx7qkblw.sdf

>  <i_m_source_file_index>  (16) 
9

>  <i_lp_mmshare_version>  (16) 
48012

>  <i_f3d_flags>  (16) 
0

>  <s_epik_input>  (16) 
W0NIXVwxPVtDSF1cQyg9W0NIMl0pW0NAQEhdKFtDSDJdW0NIMl0yKVtDQEhdKFtDSF0oQzMoW0NIM10pW0NIM10pW0NAQEhdKFtPSF0pW0NIMl00KVtDSDJdW0NASF0zW0NAQEhdMltDQEBIXTFONVtDSDJdW0NAQEhdKFtDQEBIXTZbT0hdKVtDQEBIXTZbQ0BdNDVbT0hd

>  <s_epik_cmdline>  (16) 
J2VwaWtfcHl0aG9uJywgJy1waHQnLCAnMi4wJywgJy1waCcsICc3LjAnLCAnLXRuJywgJzgnLCAnLW1hJywgJzIwMCcsICctaW1hZScsICc8aW5maWxlLm1hZT4nLCAnLW9tYWUnLCAnPG91dGZpbGUubWFlPic=

>  <r_epik_Ionization_Penalty>  (16) 
0.174465

>  <r_epik_Ionization_Penalty_Charging>  (16) 
0.172252

>  <r_epik_Ionization_Penalty_Neutral>  (16) 
0.00221273

>  <r_epik_State_Penalty>  (16) 
0.16281

>  <r_epik_Charging_Adjusted_Penalty>  (16) 
0.335063

>  <i_epik_Tot_Q>  (16) 
1

>  <i_epik_Tot_abs_Q>  (16) 
1

>  <s_lp_Force_Field>  (16) 
OPLS3e

>  <r_lp_Energy>  (16) 
188.903

>  <b_lp_Chiralities_Consistent>  (16) 
1

>  <s_lp_Variant>  (16) 
5:0-2

>  <s_i_glide_gridfile>  (16) 
pfpi4k_grid

>  <i_i_glide_lignum>  (16) 
9

>  <i_i_glide_rotatable_bonds>  (16) 
3

>  <r_i_docking_score>  (16) 
-4.3618

>  <r_i_glide_ligand_efficiency>  (16) 
-0.161548

>  <r_i_glide_ligand_efficiency_sa>  (16) 
-0.484644

>  <r_i_glide_ligand_efficiency_ln>  (16) 
-1.01535

>  <r_i_glide_gscore>  (16) 
-4.3618

>  <r_i_glide_lipo>  (16) 
-0.690312

>  <r_i_glide_hbond>  (16) 
-0.438967

>  <r_i_glide_metal>  (16) 
-0

>  <r_i_glide_rewards>  (16) 
-0.869175

>  <r_i_glide_evdw>  (16) 
-16.2551

>  <r_i_glide_ecoul>  (16) 
-10.2338

>  <r_i_glide_erotb>  (16) 
0

>  <r_i_glide_esite>  (16) 
-0.0155184

>  <r_i_glide_emodel>  (16) 
-34.9208

>  <r_i_glide_energy>  (16) 
-26.4889

>  <r_i_glide_einternal>  (16) 
1.21853

>  <r_i_glide_intrahb_reward>  (16) 
-0

>  <i_i_glide_confnum>  (16) 
2

>  <i_i_glide_posenum>  (16) 
15

>  <r_i_glide_eff_state_penalty>  (16) 
0

>  <ligand_id>  (16) 
5

>  <original_smiles>  (16) 
C=C1C=CC2C3CCC1C1CC3C(C)(C)C1C(O)CC1(O)C3C(O)C3CN21

>  <smiles>  (16) 
[H]OC1([H])C([H])([H])C2(O[H])C3([H])C([H])(O[H])C3([H])C([H])([H])[N+]2([H])C2([H])C([H])=C([H])C(=C([H])[H])C3([H])C([H])([H])C([H])([H])C2([H])C2([H])C([H])([H])C3([H])C1([H])C2(C([H])([H])[H])C([H])([H])[H]

$$$$
5:1:2
     RDKit          3D

 61 66  0  0  1  0  0  0  0  0999 V2000
    2.7996   -4.9767    0.4317 C   0  0  0  0  0  0  0  0  0  0  0  0
    2.7274   -5.2754    1.7373 C   0  0  0  0  0  0  0  0  0  0  0  0
    1.7992   -6.2745    2.2249 C   0  0  0  0  0  0  0  0  0  0  0  0
    2.3917   -7.4094    2.5822 C   0  0  0  0  0  0  0  0  0  0  0  0
    2.8603   -7.8124    4.0073 C   0  0  2  0  0  0  0  0  0  0  0  0
    3.3781   -6.5913    5.0285 C   0  0  2  0  0  0  0  0  0  0  0  0
    2.4006   -5.3749    5.0763 C   0  0  0  0  0  0  0  0  0  0  0  0
    2.5571   -4.2391    4.0043 C   0  0  0  0  0  0  0  0  0  0  0  0
    3.5241   -4.5060    2.7941 C   0  0  1  0  0  0  0  0  0  0  0  0
    5.0251   -4.9488    3.1417 C   0  0  1  0  0  0  0  0  0  0  0  0
    5.1965   -4.6596    4.6409 C   0  0  0  0  0  0  0  0  0  0  0  0
    4.9198   -6.0476    5.2504 C   0  0  2  0  0  0  0  0  0  0  0  0
    6.0586   -6.8251    4.5470 C   0  0  0  0  0  0  0  0  0  0  0  0
    7.5205   -6.2976    4.6566 C   0  0  0  0  0  0  0  0  0  0  0  0
    6.1584   -8.2177    5.2397 C   0  0  0  0  0  0  0  0  0  0  0  0
    5.5322   -6.4603    3.1178 C   0  0  2  0  0  0  0  0  0  0  0  0
    5.9266   -7.2743    1.8777 C   0  0  1  0  0  0  0  0  0  0  0  0
    7.2464   -6.9605    1.4839 O   0  0  0  0  0  0  0  0  0  0  0  0
    5.7943   -8.8195    2.0999 C   0  0  0  0  0  0  0  0  0  0  0  0
    4.5265   -9.5747    2.7338 C   0  0  1  0  0  0  0  0  0  0  0  0
    3.5449   -9.8572    1.7421 O   0  0  0  0  0  0  0  0  0  0  0  0
    4.9410  -10.9654    3.1915 C   0  0  2  0  0  0  0  0  0  0  0  0
    4.0288  -12.1802    3.2709 C   0  0  1  0  0  0  0  0  0  0  0  0
    4.8033  -13.3578    3.2951 O   0  0  0  0  0  0  0  0  0  0  0  0
    4.1741  -11.2908    4.4573 C   0  0  2  0  0  0  0  0  0  0  0  0
    3.2125  -10.1623    4.6917 C   0  0  0  0  0  0  0  0  0  0  0  0
    3.7436   -9.0267    3.9458 N   0  0  2  0  0  0  0  0  0  0  0  0
    3.4536   -4.1961    0.0725 H   0  0  0  0  0  0  0  0  0  0  0  0
    2.2086   -5.4991   -0.3055 H   0  0  0  0  0  0  0  0  0  0  0  0
    1.0228   -5.9066    2.8729 H   0  0  0  0  0  0  0  0  0  0  0  0
    3.1565   -7.6074    1.8585 H   0  0  0  0  0  0  0  0  0  0  0  0
    1.9118   -8.1186    4.4666 H   0  0  0  0  0  0  0  0  0  0  0  0
    3.2030   -7.0798    5.9932 H   0  0  0  0  0  0  0  0  0  0  0  0
    1.3726   -5.7443    5.0610 H   0  0  0  0  0  0  0  0  0  0  0  0
    2.4831   -4.9049    6.0579 H   0  0  0  0  0  0  0  0  0  0  0  0
    1.5668   -3.9657    3.6341 H   0  0  0  0  0  0  0  0  0  0  0  0
    2.8150   -3.3004    4.4993 H   0  0  0  0  0  0  0  0  0  0  0  0
    3.6410   -3.5133    2.3541 H   0  0  0  0  0  0  0  0  0  0  0  0
    5.7156   -4.3368    2.5629 H   0  0  0  0  0  0  0  0  0  0  0  0
    6.1972   -4.2931    4.8530 H   0  0  0  0  0  0  0  0  0  0  0  0
    4.6482   -3.8474    5.0987 H   0  0  0  0  0  0  0  0  0  0  0  0
    5.1220   -5.9837    6.3218 H   0  0  0  0  0  0  0  0  0  0  0  0
    8.2346   -7.0693    4.3587 H   0  0  0  0  0  0  0  0  0  0  0  0
    7.7737   -6.0002    5.6750 H   0  0  0  0  0  0  0  0  0  0  0  0
    7.7331   -5.4565    3.9949 H   0  0  0  0  0  0  0  0  0  0  0  0
    6.5189   -9.0311    4.6218 H   0  0  0  0  0  0  0  0  0  0  0  0
    5.2671   -8.5199    5.7829 H   0  0  0  0  0  0  0  0  0  0  0  0
    6.8938   -8.1705    6.0462 H   0  0  0  0  0  0  0  0  0  0  0  0
    4.6102   -6.8639    3.0213 H   0  0  0  0  0  0  0  0  0  0  0  0
    5.2796   -6.9763    1.0501 H   0  0  0  0  0  0  0  0  0  0  0  0
    7.8537   -7.2726    2.1267 H   0  0  0  0  0  0  0  0  0  0  0  0
    5.9247   -9.2585    1.1056 H   0  0  0  0  0  0  0  0  0  0  0  0
    6.7075   -9.1408    2.5914 H   0  0  0  0  0  0  0  0  0  0  0  0
    3.8021  -10.6676    1.2917 H   0  0  0  0  0  0  0  0  0  0  0  0
    6.0148  -11.1644    3.2533 H   0  0  0  0  0  0  0  0  0  0  0  0
    3.0950  -12.2321    2.7101 H   0  0  0  0  0  0  0  0  0  0  0  0
    4.7022  -13.7575    2.4489 H   0  0  0  0  0  0  0  0  0  0  0  0
    4.7591  -11.6404    5.3164 H   0  0  0  0  0  0  0  0  0  0  0  0
    2.2421  -10.4815    4.2734 H   0  0  0  0  0  0  0  0  0  0  0  0
    3.0890   -9.9847    5.7621 H   0  0  0  0  0  0  0  0  0  0  0  0
    4.5309   -8.7341    4.5348 H   0  0  0  0  0  0  0  0  0  0  0  0
  1  2  2  0
  1 28  1  0
  1 29  1  0
  2  9  1  0
  2  3  1  0
  3  4  2  3
  3 30  1  0
  4  5  1  0
  4 31  1  0
  5 27  1  0
  5  6  1  0
  5 32  1  1
  6 12  1  0
  6  7  1  0
  6 33  1  1
  7  8  1  0
  7 34  1  0
  7 35  1  0
  8  9  1  0
  8 36  1  0
  8 37  1  0
  9 10  1  0
  9 38  1  6
 10 16  1  0
 10 11  1  0
 10 39  1  6
 11 12  1  0
 11 40  1  0
 11 41  1  0
 12 13  1  0
 12 42  1  1
 13 14  1  0
 13 15  1  0
 13 16  1  0
 14 43  1  0
 14 44  1  0
 14 45  1  0
 15 46  1  0
 15 47  1  0
 15 48  1  0
 16 17  1  0
 16 49  1  1
 17 18  1  0
 17 19  1  0
 17 50  1  6
 18 51  1  0
 19 20  1  0
 19 52  1  0
 19 53  1  0
 20 27  1  0
 20 21  1  6
 20 22  1  0
 21 54  1  0
 22 25  1  0
 22 23  1  0
 22 55  1  1
 23 24  1  0
 23 25  1  0
 23 56  1  6
 24 57  1  0
 25 26  1  0
 25 58  1  1
 26 27  1  0
 26 59  1  0
 26 60  1  0
 27 61  1  1
M  CHG  1  27   1
M  END
>  <i_m_ct_stereo_status>  (17) 
1

>  <s_m_source_file>  (17) 
/var/tmp/pbs.5076255.sched01/tmpvv81v907/0tx7qkblw.sdf

>  <i_m_source_file_index>  (17) 
9

>  <i_lp_mmshare_version>  (17) 
48012

>  <i_f3d_flags>  (17) 
0

>  <s_epik_input>  (17) 
W0NIXVwxPVtDSF1cQyg9W0NIMl0pW0NAQEhdKFtDSDJdW0NIMl0yKVtDQEhdKFtDSF0oQzMoW0NIM10pW0NIM10pW0NAQEhdKFtPSF0pW0NIMl00KVtDSDJdW0NASF0zW0NAQEhdMltDQEBIXTFONVtDSDJdW0NAQEhdKFtDQEBIXTZbT0hdKVtDQEBIXTZbQ0BdNDVbT0hd

>  <s_epik_cmdline>  (17) 
J2VwaWtfcHl0aG9uJywgJy1waHQnLCAnMi4wJywgJy1waCcsICc3LjAnLCAnLXRuJywgJzgnLCAnLW1hJywgJzIwMCcsICctaW1hZScsICc8aW5maWxlLm1hZT4nLCAnLW9tYWUnLCAnPG91dGZpbGUubWFlPic=

>  <r_epik_Ionization_Penalty>  (17) 
0.174465

>  <r_epik_Ionization_Penalty_Charging>  (17) 
0.172252

>  <r_epik_Ionization_Penalty_Neutral>  (17) 
0.00221273

>  <r_epik_State_Penalty>  (17) 
0.16281

>  <r_epik_Charging_Adjusted_Penalty>  (17) 
0.335063

>  <i_epik_Tot_Q>  (17) 
1

>  <i_epik_Tot_abs_Q>  (17) 
1

>  <s_lp_Force_Field>  (17) 
OPLS3e

>  <r_lp_Energy>  (17) 
188.903

>  <b_lp_Chiralities_Consistent>  (17) 
1

>  <s_lp_Variant>  (17) 
5:0-2

>  <s_i_glide_gridfile>  (17) 
pfpi4k_grid

>  <i_i_glide_lignum>  (17) 
9

>  <i_i_glide_rotatable_bonds>  (17) 
3

>  <r_i_docking_score>  (17) 
-3.14985

>  <r_i_glide_ligand_efficiency>  (17) 
-0.116661

>  <r_i_glide_ligand_efficiency_sa>  (17) 
-0.349983

>  <r_i_glide_ligand_efficiency_ln>  (17) 
-0.733233

>  <r_i_glide_gscore>  (17) 
-3.14985

>  <r_i_glide_lipo>  (17) 
-0.0965817

>  <r_i_glide_hbond>  (17) 
-0.16

>  <r_i_glide_metal>  (17) 
-0

>  <r_i_glide_rewards>  (17) 
-0.869175

>  <r_i_glide_evdw>  (17) 
-19.9209

>  <r_i_glide_ecoul>  (17) 
-6.64162

>  <r_i_glide_erotb>  (17) 
0

>  <r_i_glide_esite>  (17) 
-0.0318077

>  <r_i_glide_emodel>  (17) 
-33.0906

>  <r_i_glide_energy>  (17) 
-26.5625

>  <r_i_glide_einternal>  (17) 
0.323994

>  <r_i_glide_intrahb_reward>  (17) 
-0

>  <i_i_glide_confnum>  (17) 
1

>  <i_i_glide_posenum>  (17) 
39

>  <r_i_glide_eff_state_penalty>  (17) 
0

>  <ligand_id>  (17) 
5

>  <original_smiles>  (17) 
C=C1C=CC2C3CCC1C1CC3C(C)(C)C1C(O)CC1(O)C3C(O)C3CN21

>  <smiles>  (17) 
[H]OC1([H])C([H])([H])C2(O[H])C3([H])C([H])(O[H])C3([H])C([H])([H])[N+]2([H])C2([H])C([H])=C([H])C(=C([H])[H])C3([H])C([H])([H])C([H])([H])C2([H])C2([H])C([H])([H])C3([H])C1([H])C2(C([H])([H])[H])C([H])([H])[H]

$$$$
5:2:0
     RDKit          3D

 61 66  0  0  1  0  0  0  0  0999 V2000
    3.1295   -2.6364    4.2357 C   0  0  0  0  0  0  0  0  0  0  0  0
    3.2209   -3.3744    3.1101 C   0  0  0  0  0  0  0  0  0  0  0  0
    2.2857   -3.1223    2.0448 C   0  0  0  0  0  0  0  0  0  0  0  0
    2.4424   -3.3492    0.7258 C   0  0  0  0  0  0  0  0  0  0  0  0
    3.5773   -3.8328   -0.1580 C   0  0  2  0  0  0  0  0  0  0  0  0
    4.4145   -5.1550    0.1381 C   0  0  2  0  0  0  0  0  0  0  0  0
    3.5674   -6.1339    0.9793 C   0  0  0  0  0  0  0  0  0  0  0  0
    3.4284   -5.8137    2.4905 C   0  0  0  0  0  0  0  0  0  0  0  0
    4.1575   -4.5514    3.0374 C   0  0  1  0  0  0  0  0  0  0  0  0
    5.6443   -4.2647    2.6084 C   0  0  1  0  0  0  0  0  0  0  0  0
    6.1895   -5.5406    1.9856 C   0  0  0  0  0  0  0  0  0  0  0  0
    5.9633   -5.2220    0.5086 C   0  0  2  0  0  0  0  0  0  0  0  0
    6.7845   -3.9236    0.3419 C   0  0  0  0  0  0  0  0  0  0  0  0
    8.3136   -4.1685    0.5964 C   0  0  0  0  0  0  0  0  0  0  0  0
    6.8221   -3.4602   -1.1465 C   0  0  0  0  0  0  0  0  0  0  0  0
    6.1398   -3.1548    1.5683 C   0  0  1  0  0  0  0  0  0  0  0  0
    5.4268   -1.7643    1.5083 C   0  0  1  0  0  0  0  0  0  0  0  0
    5.8578   -0.9179    2.5603 O   0  0  0  0  0  0  0  0  0  0  0  0
    5.4786   -0.9755    0.2148 C   0  0  0  0  0  0  0  0  0  0  0  0
    4.3554   -1.3384   -0.7884 C   0  0  1  0  0  0  0  0  0  0  0  0
    3.1724   -0.8902   -0.1549 O   0  0  0  0  0  0  0  0  0  0  0  0
    4.5348   -0.6613   -2.1382 C   0  0  2  0  0  0  0  0  0  0  0  0
    3.4221   -0.3376   -3.1199 C   0  0  1  0  0  0  0  0  0  0  0  0
    3.8018    0.5886   -4.1010 O   0  0  0  0  0  0  0  0  0  0  0  0
    4.1178   -1.6584   -3.2010 C   0  0  2  0  0  0  0  0  0  0  0  0
    3.5469   -2.8568   -2.4986 C   0  0  0  0  0  0  0  0  0  0  0  0
    4.1176   -2.8068   -1.1153 N   0  0  2  0  0  0  0  0  0  0  0  0
    3.7804   -2.8168    5.0768 H   0  0  0  0  0  0  0  0  0  0  0  0
    2.4178   -1.8254    4.3111 H   0  0  0  0  0  0  0  0  0  0  0  0
    1.3337   -2.6889    2.3440 H   0  0  0  0  0  0  0  0  0  0  0  0
    1.6260   -3.0140    0.1116 H   0  0  0  0  0  0  0  0  0  0  0  0
    2.8717   -4.3274   -0.8249 H   0  0  0  0  0  0  0  0  0  0  0  0
    4.4372   -5.6238   -0.8459 H   0  0  0  0  0  0  0  0  0  0  0  0
    2.5640   -6.2310    0.5499 H   0  0  0  0  0  0  0  0  0  0  0  0
    3.9970   -7.1343    0.8745 H   0  0  0  0  0  0  0  0  0  0  0  0
    2.3720   -5.7723    2.7523 H   0  0  0  0  0  0  0  0  0  0  0  0
    3.7792   -6.6821    3.0501 H   0  0  0  0  0  0  0  0  0  0  0  0
    4.2694   -4.8218    4.0853 H   0  0  0  0  0  0  0  0  0  0  0  0
    6.1817   -4.0993    3.5395 H   0  0  0  0  0  0  0  0  0  0  0  0
    7.2345   -5.6847    2.2453 H   0  0  0  0  0  0  0  0  0  0  0  0
    5.7702   -6.4799    2.3322 H   0  0  0  0  0  0  0  0  0  0  0  0
    6.4114   -6.0291   -0.0571 H   0  0  0  0  0  0  0  0  0  0  0  0
    8.9185   -3.3258    0.2402 H   0  0  0  0  0  0  0  0  0  0  0  0
    8.6632   -5.0539    0.0604 H   0  0  0  0  0  0  0  0  0  0  0  0
    8.6093   -4.2939    1.6362 H   0  0  0  0  0  0  0  0  0  0  0  0
    6.8336   -2.4002   -1.3856 H   0  0  0  0  0  0  0  0  0  0  0  0
    6.0866   -3.9624   -1.7641 H   0  0  0  0  0  0  0  0  0  0  0  0
    7.7411   -3.7820   -1.6391 H   0  0  0  0  0  0  0  0  0  0  0  0
    7.0168   -2.8112    2.0762 H   0  0  0  0  0  0  0  0  0  0  0  0
    4.3908   -1.8572    1.7205 H   0  0  0  0  0  0  0  0  0  0  0  0
    6.7341   -0.6042    2.3772 H   0  0  0  0  0  0  0  0  0  0  0  0
    5.2545    0.0561    0.4658 H   0  0  0  0  0  0  0  0  0  0  0  0
    6.4798   -0.8838   -0.1697 H   0  0  0  0  0  0  0  0  0  0  0  0
    2.3856   -1.0335   -0.6722 H   0  0  0  0  0  0  0  0  0  0  0  0
    5.5057   -0.2147   -2.3092 H   0  0  0  0  0  0  0  0  0  0  0  0
    2.3870   -0.2413   -2.7700 H   0  0  0  0  0  0  0  0  0  0  0  0
    3.3560    1.4011   -3.8792 H   0  0  0  0  0  0  0  0  0  0  0  0
    4.8316   -1.8365   -4.0052 H   0  0  0  0  0  0  0  0  0  0  0  0
    2.4536   -2.7360   -2.4934 H   0  0  0  0  0  0  0  0  0  0  0  0
    3.8043   -3.7688   -3.0433 H   0  0  0  0  0  0  0  0  0  0  0  0
    5.0640   -3.1369   -1.2620 H   0  0  0  0  0  0  0  0  0  0  0  0
  1  2  2  0
  1 28  1  0
  1 29  1  0
  2  9  1  0
  2  3  1  0
  3  4  2  3
  3 30  1  0
  4  5  1  0
  4 31  1  0
  5 27  1  0
  5  6  1  0
  5 32  1  6
  6 12  1  0
  6  7  1  0
  6 33  1  6
  7  8  1  0
  7 34  1  0
  7 35  1  0
  8  9  1  0
  8 36  1  0
  8 37  1  0
  9 10  1  0
  9 38  1  1
 10 16  1  0
 10 11  1  0
 10 39  1  1
 11 12  1  0
 11 40  1  0
 11 41  1  0
 12 13  1  0
 12 42  1  6
 13 14  1  0
 13 15  1  0
 13 16  1  0
 14 43  1  0
 14 44  1  0
 14 45  1  0
 15 46  1  0
 15 47  1  0
 15 48  1  0
 16 17  1  0
 16 49  1  1
 17 18  1  0
 17 19  1  0
 17 50  1  1
 18 51  1  0
 19 20  1  0
 19 52  1  0
 19 53  1  0
 20 27  1  0
 20 21  1  1
 20 22  1  0
 21 54  1  0
 22 25  1  0
 22 23  1  0
 22 55  1  6
 23 24  1  0
 23 25  1  0
 23 56  1  1
 24 57  1  0
 25 26  1  0
 25 58  1  6
 26 27  1  0
 26 59  1  0
 26 60  1  0
 27 61  1  6
M  CHG  1  27   1
M  END
>  <i_m_ct_stereo_status>  (18) 
1

>  <s_m_source_file>  (18) 
/var/tmp/pbs.5076255.sched01/tmpvv81v907/0tx7qkblw.sdf

>  <i_m_source_file_index>  (18) 
10

>  <i_lp_mmshare_version>  (18) 
48012

>  <i_f3d_flags>  (18) 
0

>  <s_epik_input>  (18) 
W0NIXVwxPVtDSF1cQyg9W0NIMl0pW0NAQEhdKFtDSDJdW0NIMl0yKVtDQEhdKFtDSF0oQzMoW0NIM10pW0NIM10pW0NAQEhdKFtPSF0pW0NIMl00KVtDSDJdW0NASF0zW0NAQEhdMltDQEBIXTFONVtDSDJdW0NAQEhdKFtDQEBIXTZbT0hdKVtDQEBIXTZbQ0BdNDVbT0hd

>  <s_epik_cmdline>  (18) 
J2VwaWtfcHl0aG9uJywgJy1waHQnLCAnMi4wJywgJy1waCcsICc3LjAnLCAnLXRuJywgJzgnLCAnLW1hJywgJzIwMCcsICctaW1hZScsICc8aW5maWxlLm1hZT4nLCAnLW9tYWUnLCAnPG91dGZpbGUubWFlPic=

>  <r_epik_Ionization_Penalty>  (18) 
0.174465

>  <r_epik_Ionization_Penalty_Charging>  (18) 
0.172252

>  <r_epik_Ionization_Penalty_Neutral>  (18) 
0.00221273

>  <r_epik_State_Penalty>  (18) 
0.16281

>  <r_epik_Charging_Adjusted_Penalty>  (18) 
0.335063

>  <i_epik_Tot_Q>  (18) 
1

>  <i_epik_Tot_abs_Q>  (18) 
1

>  <s_lp_Force_Field>  (18) 
OPLS3e

>  <r_lp_Energy>  (18) 
135.007

>  <b_lp_Chiralities_Consistent>  (18) 
1

>  <s_lp_Variant>  (18) 
5:0-3

>  <s_i_glide_gridfile>  (18) 
pfpi4k_grid

>  <i_i_glide_lignum>  (18) 
10

>  <i_i_glide_rotatable_bonds>  (18) 
3

>  <r_i_docking_score>  (18) 
-5.22161

>  <r_i_glide_ligand_efficiency>  (18) 
-0.193393

>  <r_i_glide_ligand_efficiency_sa>  (18) 
-0.580179

>  <r_i_glide_ligand_efficiency_ln>  (18) 
-1.21551

>  <r_i_glide_gscore>  (18) 
-5.22161

>  <r_i_glide_lipo>  (18) 
-1.06178

>  <r_i_glide_hbond>  (18) 
-0.523725

>  <r_i_glide_metal>  (18) 
-0

>  <r_i_glide_rewards>  (18) 
-0.869175

>  <r_i_glide_evdw>  (18) 
-18.5913

>  <r_i_glide_ecoul>  (18) 
-11.8684

>  <r_i_glide_erotb>  (18) 
0

>  <r_i_glide_esite>  (18) 
-0.0571154

>  <r_i_glide_emodel>  (18) 
-36.1433

>  <r_i_glide_energy>  (18) 
-30.4597

>  <r_i_glide_einternal>  (18) 
1.50913

>  <r_i_glide_intrahb_reward>  (18) 
-0

>  <i_i_glide_confnum>  (18) 
2

>  <i_i_glide_posenum>  (18) 
15

>  <r_i_glide_eff_state_penalty>  (18) 
0

>  <ligand_id>  (18) 
5

>  <original_smiles>  (18) 
C=C1C=CC2C3CCC1C1CC3C(C)(C)C1C(O)CC1(O)C3C(O)C3CN21

>  <smiles>  (18) 
[H]OC1([H])C([H])([H])C2(O[H])C3([H])C([H])(O[H])C3([H])C([H])([H])[N+]2([H])C2([H])C([H])=C([H])C(=C([H])[H])C3([H])C([H])([H])C([H])([H])C2([H])C2([H])C([H])([H])C3([H])C1([H])C2(C([H])([H])[H])C([H])([H])[H]

$$$$
5:2:1
     RDKit          3D

 61 66  0  0  1  0  0  0  0  0999 V2000
    3.0937   -3.1328    4.1129 C   0  0  0  0  0  0  0  0  0  0  0  0
    3.2884   -3.8028    2.9756 C   0  0  0  0  0  0  0  0  0  0  0  0
    2.3824   -3.6009    1.8827 C   0  0  0  0  0  0  0  0  0  0  0  0
    2.5900   -3.7717    0.5646 C   0  0  0  0  0  0  0  0  0  0  0  0
    3.7963   -4.0912   -0.2854 C   0  0  2  0  0  0  0  0  0  0  0  0
    4.7184   -5.3491   -0.0211 C   0  0  2  0  0  0  0  0  0  0  0  0
    3.9428   -6.4368    0.7579 C   0  0  0  0  0  0  0  0  0  0  0  0
    3.7294   -6.1904    2.2748 C   0  0  0  0  0  0  0  0  0  0  0  0
    4.3281   -4.8892    2.8862 C   0  0  1  0  0  0  0  0  0  0  0  0
    5.7777   -4.4430    2.5091 C   0  0  1  0  0  0  0  0  0  0  0  0
    6.4568   -5.6429    1.8884 C   0  0  0  0  0  0  0  0  0  0  0  0
    6.2465   -5.3074    0.4142 C   0  0  2  0  0  0  0  0  0  0  0  0
    6.9418   -3.9463    0.2853 C   0  0  0  0  0  0  0  0  0  0  0  0
    8.4840   -4.0427    0.5822 C   0  0  0  0  0  0  0  0  0  0  0  0
    6.9844   -3.4424   -1.1893 C   0  0  0  0  0  0  0  0  0  0  0  0
    6.1789   -3.2699    1.4965 C   0  0  1  0  0  0  0  0  0  0  0  0
    5.3626   -1.9441    1.4783 C   0  0  1  0  0  0  0  0  0  0  0  0
    5.7362   -1.1276    2.5655 O   0  0  0  0  0  0  0  0  0  0  0  0
    5.3828   -1.0969    0.2229 C   0  0  0  0  0  0  0  0  0  0  0  0
    4.3344   -1.5169   -0.8309 C   0  0  1  0  0  0  0  0  0  0  0  0
    3.0987   -1.2454   -0.2256 O   0  0  0  0  0  0  0  0  0  0  0  0
    4.4679   -0.7894   -2.1348 C   0  0  2  0  0  0  0  0  0  0  0  0
    3.3740   -0.5297   -3.1232 C   0  0  1  0  0  0  0  0  0  0  0  0
    3.7793    0.4520   -4.0374 O   0  0  0  0  0  0  0  0  0  0  0  0
    4.1699   -1.7835   -3.2250 C   0  0  2  0  0  0  0  0  0  0  0  0
    3.7131   -3.0507   -2.5875 C   0  0  0  0  0  0  0  0  0  0  0  0
    4.2374   -2.9834   -1.1911 N   0  0  2  0  0  0  0  0  0  0  0  0
    3.7289   -3.2798    4.9834 H   0  0  0  0  0  0  0  0  0  0  0  0
    2.3060   -2.3881    4.1978 H   0  0  0  0  0  0  0  0  0  0  0  0
    1.3985   -3.2715    2.1885 H   0  0  0  0  0  0  0  0  0  0  0  0
    1.7709   -3.5317   -0.0670 H   0  0  0  0  0  0  0  0  0  0  0  0
    3.1491   -4.6176   -0.9860 H   0  0  0  0  0  0  0  0  0  0  0  0
    4.7970   -5.7780   -1.0191 H   0  0  0  0  0  0  0  0  0  0  0  0
    2.9601   -6.5972    0.3063 H   0  0  0  0  0  0  0  0  0  0  0  0
    4.4601   -7.3901    0.6325 H   0  0  0  0  0  0  0  0  0  0  0  0
    2.6563   -6.2591    2.5048 H   0  0  0  0  0  0  0  0  0  0  0  0
    4.1394   -7.0503    2.8159 H   0  0  0  0  0  0  0  0  0  0  0  0
    4.4219   -5.1926    3.9262 H   0  0  0  0  0  0  0  0  0  0  0  0
    6.2304   -4.2313    3.4699 H   0  0  0  0  0  0  0  0  0  0  0  0
    7.5043   -5.6964    2.1655 H   0  0  0  0  0  0  0  0  0  0  0  0
    6.1217   -6.6344    2.1798 H   0  0  0  0  0  0  0  0  0  0  0  0
    6.7839   -6.0609   -0.1501 H   0  0  0  0  0  0  0  0  0  0  0  0
    9.0090   -3.1316    0.2811 H   0  0  0  0  0  0  0  0  0  0  0  0
    8.9401   -4.8665    0.0280 H   0  0  0  0  0  0  0  0  0  0  0  0
    8.7617   -4.1788    1.6285 H   0  0  0  0  0  0  0  0  0  0  0  0
    6.9189   -2.3801   -1.3594 H   0  0  0  0  0  0  0  0  0  0  0  0
    6.2885   -3.9592   -1.8408 H   0  0  0  0  0  0  0  0  0  0  0  0
    7.9404   -3.6837   -1.6619 H   0  0  0  0  0  0  0  0  0  0  0  0
    7.0390   -2.8291    1.9376 H   0  0  0  0  0  0  0  0  0  0  0  0
    4.3256   -2.1170    1.6654 H   0  0  0  0  0  0  0  0  0  0  0  0
    5.0550   -0.4855    2.7050 H   0  0  0  0  0  0  0  0  0  0  0  0
    5.0655   -0.1010    0.5065 H   0  0  0  0  0  0  0  0  0  0  0  0
    6.3889   -0.9182   -0.1266 H   0  0  0  0  0  0  0  0  0  0  0  0
    2.3605   -1.1162   -0.8073 H   0  0  0  0  0  0  0  0  0  0  0  0
    5.3946   -0.2467   -2.2664 H   0  0  0  0  0  0  0  0  0  0  0  0
    2.3304   -0.5071   -2.8050 H   0  0  0  0  0  0  0  0  0  0  0  0
    3.2691    1.2276   -3.8210 H   0  0  0  0  0  0  0  0  0  0  0  0
    4.9143   -1.8530   -4.0103 H   0  0  0  0  0  0  0  0  0  0  0  0
    2.6242   -3.0348   -2.6305 H   0  0  0  0  0  0  0  0  0  0  0  0
    4.0790   -3.8956   -3.1711 H   0  0  0  0  0  0  0  0  0  0  0  0
    5.1979   -3.2152   -1.3247 H   0  0  0  0  0  0  0  0  0  0  0  0
  1  2  2  0
  1 28  1  0
  1 29  1  0
  2  9  1  0
  2  3  1  0
  3  4  2  3
  3 30  1  0
  4  5  1  0
  4 31  1  0
  5 27  1  0
  5  6  1  0
  5 32  1  6
  6 12  1  0
  6  7  1  0
  6 33  1  6
  7  8  1  0
  7 34  1  0
  7 35  1  0
  8  9  1  0
  8 36  1  0
  8 37  1  0
  9 10  1  0
  9 38  1  1
 10 16  1  0
 10 11  1  0
 10 39  1  1
 11 12  1  0
 11 40  1  0
 11 41  1  0
 12 13  1  0
 12 42  1  6
 13 14  1  0
 13 15  1  0
 13 16  1  0
 14 43  1  0
 14 44  1  0
 14 45  1  0
 15 46  1  0
 15 47  1  0
 15 48  1  0
 16 17  1  0
 16 49  1  1
 17 18  1  0
 17 19  1  0
 17 50  1  1
 18 51  1  0
 19 20  1  0
 19 52  1  0
 19 53  1  0
 20 27  1  0
 20 21  1  1
 20 22  1  0
 21 54  1  0
 22 25  1  0
 22 23  1  0
 22 55  1  6
 23 24  1  0
 23 25  1  0
 23 56  1  1
 24 57  1  0
 25 26  1  0
 25 58  1  6
 26 27  1  0
 26 59  1  0
 26 60  1  0
 27 61  1  6
M  CHG  1  27   1
M  END
>  <i_m_ct_stereo_status>  (19) 
1

>  <s_m_source_file>  (19) 
/var/tmp/pbs.5076255.sched01/tmpvv81v907/0tx7qkblw.sdf

>  <i_m_source_file_index>  (19) 
10

>  <i_lp_mmshare_version>  (19) 
48012

>  <i_f3d_flags>  (19) 
0

>  <s_epik_input>  (19) 
W0NIXVwxPVtDSF1cQyg9W0NIMl0pW0NAQEhdKFtDSDJdW0NIMl0yKVtDQEhdKFtDSF0oQzMoW0NIM10pW0NIM10pW0NAQEhdKFtPSF0pW0NIMl00KVtDSDJdW0NASF0zW0NAQEhdMltDQEBIXTFONVtDSDJdW0NAQEhdKFtDQEBIXTZbT0hdKVtDQEBIXTZbQ0BdNDVbT0hd

>  <s_epik_cmdline>  (19) 
J2VwaWtfcHl0aG9uJywgJy1waHQnLCAnMi4wJywgJy1waCcsICc3LjAnLCAnLXRuJywgJzgnLCAnLW1hJywgJzIwMCcsICctaW1hZScsICc8aW5maWxlLm1hZT4nLCAnLW9tYWUnLCAnPG91dGZpbGUubWFlPic=

>  <r_epik_Ionization_Penalty>  (19) 
0.174465

>  <r_epik_Ionization_Penalty_Charging>  (19) 
0.172252

>  <r_epik_Ionization_Penalty_Neutral>  (19) 
0.00221273

>  <r_epik_State_Penalty>  (19) 
0.16281

>  <r_epik_Charging_Adjusted_Penalty>  (19) 
0.335063

>  <i_epik_Tot_Q>  (19) 
1

>  <i_epik_Tot_abs_Q>  (19) 
1

>  <s_lp_Force_Field>  (19) 
OPLS3e

>  <r_lp_Energy>  (19) 
135.007

>  <b_lp_Chiralities_Consistent>  (19) 
1

>  <s_lp_Variant>  (19) 
5:0-3

>  <s_i_glide_gridfile>  (19) 
pfpi4k_grid

>  <i_i_glide_lignum>  (19) 
10

>  <i_i_glide_rotatable_bonds>  (19) 
3

>  <r_i_docking_score>  (19) 
-5.11011

>  <r_i_glide_ligand_efficiency>  (19) 
-0.189263

>  <r_i_glide_ligand_efficiency_sa>  (19) 
-0.56779

>  <r_i_glide_ligand_efficiency_ln>  (19) 
-1.18955

>  <r_i_glide_gscore>  (19) 
-5.11011

>  <r_i_glide_lipo>  (19) 
-1.0901

>  <r_i_glide_hbond>  (19) 
-0.436468

>  <r_i_glide_metal>  (19) 
-0

>  <r_i_glide_rewards>  (19) 
-0.869175

>  <r_i_glide_evdw>  (19) 
-20.5917

>  <r_i_glide_ecoul>  (19) 
-10.8994

>  <r_i_glide_erotb>  (19) 
0

>  <r_i_glide_esite>  (19) 
-0.049875

>  <r_i_glide_emodel>  (19) 
-36.8768

>  <r_i_glide_energy>  (19) 
-31.4911

>  <r_i_glide_einternal>  (19) 
1.72705

>  <r_i_glide_intrahb_reward>  (19) 
-0

>  <i_i_glide_confnum>  (19) 
1

>  <i_i_glide_posenum>  (19) 
37

>  <r_i_glide_eff_state_penalty>  (19) 
0

>  <ligand_id>  (19) 
5

>  <original_smiles>  (19) 
C=C1C=CC2C3CCC1C1CC3C(C)(C)C1C(O)CC1(O)C3C(O)C3CN21

>  <smiles>  (19) 
[H]OC1([H])C([H])([H])C2(O[H])C3([H])C([H])(O[H])C3([H])C([H])([H])[N+]2([H])C2([H])C([H])=C([H])C(=C([H])[H])C3([H])C([H])([H])C([H])([H])C2([H])C2([H])C([H])([H])C3([H])C1([H])C2(C([H])([H])[H])C([H])([H])[H]

$$$$
5:2:2
     RDKit          3D

 61 66  0  0  1  0  0  0  0  0999 V2000
    4.0099   -0.6148    4.4471 C   0  0  0  0  0  0  0  0  0  0  0  0
    3.5130   -1.6705    3.7703 C   0  0  0  0  0  0  0  0  0  0  0  0
    2.4636   -1.4271    2.8115 C   0  0  0  0  0  0  0  0  0  0  0  0
    2.1537   -2.1799    1.7457 C   0  0  0  0  0  0  0  0  0  0  0  0
    2.8401   -3.3756    1.0600 C   0  0  2  0  0  0  0  0  0  0  0  0
    3.1159   -4.7491    1.8344 C   0  0  2  0  0  0  0  0  0  0  0  0
    2.2315   -4.8646    3.0990 C   0  0  0  0  0  0  0  0  0  0  0  0
    2.6448   -3.9857    4.3063 C   0  0  0  0  0  0  0  0  0  0  0  0
    3.9058   -3.0798    4.1423 C   0  0  1  0  0  0  0  0  0  0  0  0
    5.2228   -3.6748    3.5099 C   0  0  1  0  0  0  0  0  0  0  0  0
    5.0578   -5.1869    3.5050 C   0  0  0  0  0  0  0  0  0  0  0  0
    4.5539   -5.3914    2.0737 C   0  0  2  0  0  0  0  0  0  0  0  0
    5.6994   -4.7707    1.2675 C   0  0  0  0  0  0  0  0  0  0  0  0
    7.0562   -5.5524    1.4558 C   0  0  0  0  0  0  0  0  0  0  0  0
    5.4401   -4.9820   -0.2452 C   0  0  0  0  0  0  0  0  0  0  0  0
    5.7891   -3.3868    2.0313 C   0  0  1  0  0  0  0  0  0  0  0  0
    5.5830   -1.9624    1.4201 C   0  0  1  0  0  0  0  0  0  0  0  0
    6.5254   -1.0730    1.9743 O   0  0  0  0  0  0  0  0  0  0  0  0
    5.6035   -1.8056   -0.0881 C   0  0  0  0  0  0  0  0  0  0  0  0
    4.2089   -1.9768   -0.7271 C   0  0  1  0  0  0  0  0  0  0  0  0
    3.4234   -0.8966   -0.3224 O   0  0  0  0  0  0  0  0  0  0  0  0
    4.2569   -1.9961   -2.2341 C   0  0  2  0  0  0  0  0  0  0  0  0
    3.1324   -1.5741   -3.1445 C   0  0  1  0  0  0  0  0  0  0  0  0
    3.5401   -1.4520   -4.4920 O   0  0  0  0  0  0  0  0  0  0  0  0
    3.2118   -2.9933   -2.6744 C   0  0  2  0  0  0  0  0  0  0  0  0
    2.4841   -3.4586   -1.4508 C   0  0  0  0  0  0  0  0  0  0  0  0
    3.3693   -3.1414   -0.3164 N   0  0  2  0  0  0  0  0  0  0  0  0
    4.7589   -0.7426    5.2102 H   0  0  0  0  0  0  0  0  0  0  0  0
    3.6887    0.3900    4.2152 H   0  0  0  0  0  0  0  0  0  0  0  0
    1.8248   -0.5679    2.9917 H   0  0  0  0  0  0  0  0  0  0  0  0
    1.2988   -1.7941    1.2235 H   0  0  0  0  0  0  0  0  0  0  0  0
    1.8857   -3.7517    0.7310 H   0  0  0  0  0  0  0  0  0  0  0  0
    2.6782   -5.5026    1.1761 H   0  0  0  0  0  0  0  0  0  0  0  0
    1.1861   -4.6531    2.8617 H   0  0  0  0  0  0  0  0  0  0  0  0
    2.2143   -5.9084    3.4271 H   0  0  0  0  0  0  0  0  0  0  0  0
    1.7908   -3.3820    4.6179 H   0  0  0  0  0  0  0  0  0  0  0  0
    2.7886   -4.6408    5.1685 H   0  0  0  0  0  0  0  0  0  0  0  0
    4.1846   -2.9595    5.1868 H   0  0  0  0  0  0  0  0  0  0  0  0
    5.9870   -3.4181    4.2368 H   0  0  0  0  0  0  0  0  0  0  0  0
    6.0020   -5.6848    3.7012 H   0  0  0  0  0  0  0  0  0  0  0  0
    4.4384   -5.6308    4.2787 H   0  0  0  0  0  0  0  0  0  0  0  0
    4.4992   -6.4660    1.8792 H   0  0  0  0  0  0  0  0  0  0  0  0
    7.7979   -5.2615    0.7076 H   0  0  0  0  0  0  0  0  0  0  0  0
    6.9182   -6.6316    1.3490 H   0  0  0  0  0  0  0  0  0  0  0  0
    7.5668   -5.4020    2.4074 H   0  0  0  0  0  0  0  0  0  0  0  0
    5.8070   -4.2254   -0.9279 H   0  0  0  0  0  0  0  0  0  0  0  0
    4.4355   -5.3050   -0.5016 H   0  0  0  0  0  0  0  0  0  0  0  0
    5.9805   -5.8574   -0.5668 H   0  0  0  0  0  0  0  0  0  0  0  0
    6.8692   -3.3363    2.0671 H   0  0  0  0  0  0  0  0  0  0  0  0
    4.6756   -1.5032    1.7261 H   0  0  0  0  0  0  0  0  0  0  0  0
    6.5079   -0.2339    1.5571 H   0  0  0  0  0  0  0  0  0  0  0  0
    5.8516   -0.7697   -0.3014 H   0  0  0  0  0  0  0  0  0  0  0  0
    6.4154   -2.3488   -0.5521 H   0  0  0  0  0  0  0  0  0  0  0  0
    2.5015   -0.9995   -0.5744 H   0  0  0  0  0  0  0  0  0  0  0  0
    5.2373   -2.1378   -2.6827 H   0  0  0  0  0  0  0  0  0  0  0  0
    2.3460   -0.9054   -2.7922 H   0  0  0  0  0  0  0  0  0  0  0  0
    2.7558   -1.3742   -5.0196 H   0  0  0  0  0  0  0  0  0  0  0  0
    3.5543   -3.7561   -3.3751 H   0  0  0  0  0  0  0  0  0  0  0  0
    1.5499   -2.9135   -1.4689 H   0  0  0  0  0  0  0  0  0  0  0  0
    2.1965   -4.5007   -1.5213 H   0  0  0  0  0  0  0  0  0  0  0  0
    4.0421   -3.8956   -0.3880 H   0  0  0  0  0  0  0  0  0  0  0  0
  1  2  2  0
  1 28  1  0
  1 29  1  0
  2  9  1  0
  2  3  1  0
  3  4  2  3
  3 30  1  0
  4  5  1  0
  4 31  1  0
  5 27  1  0
  5  6  1  0
  5 32  1  6
  6 12  1  0
  6  7  1  0
  6 33  1  6
  7  8  1  0
  7 34  1  0
  7 35  1  0
  8  9  1  0
  8 36  1  0
  8 37  1  0
  9 10  1  0
  9 38  1  1
 10 16  1  0
 10 11  1  0
 10 39  1  1
 11 12  1  0
 11 40  1  0
 11 41  1  0
 12 13  1  0
 12 42  1  6
 13 14  1  0
 13 15  1  0
 13 16  1  0
 14 43  1  0
 14 44  1  0
 14 45  1  0
 15 46  1  0
 15 47  1  0
 15 48  1  0
 16 17  1  0
 16 49  1  1
 17 18  1  0
 17 19  1  0
 17 50  1  1
 18 51  1  0
 19 20  1  0
 19 52  1  0
 19 53  1  0
 20 27  1  0
 20 21  1  6
 20 22  1  0
 21 54  1  0
 22 25  1  0
 22 23  1  0
 22 55  1  6
 23 24  1  0
 23 25  1  0
 23 56  1  1
 24 57  1  0
 25 26  1  0
 25 58  1  6
 26 27  1  0
 26 59  1  0
 26 60  1  0
 27 61  1  6
M  CHG  1  27   1
M  END
>  <i_m_ct_stereo_status>  (20) 
1

>  <s_m_source_file>  (20) 
/var/tmp/pbs.5076255.sched01/tmpvv81v907/0tx7qkblw.sdf

>  <i_m_source_file_index>  (20) 
10

>  <i_lp_mmshare_version>  (20) 
48012

>  <i_f3d_flags>  (20) 
0

>  <s_epik_input>  (20) 
W0NIXVwxPVtDSF1cQyg9W0NIMl0pW0NAQEhdKFtDSDJdW0NIMl0yKVtDQEhdKFtDSF0oQzMoW0NIM10pW0NIM10pW0NAQEhdKFtPSF0pW0NIMl00KVtDSDJdW0NASF0zW0NAQEhdMltDQEBIXTFONVtDSDJdW0NAQEhdKFtDQEBIXTZbT0hdKVtDQEBIXTZbQ0BdNDVbT0hd

>  <s_epik_cmdline>  (20) 
J2VwaWtfcHl0aG9uJywgJy1waHQnLCAnMi4wJywgJy1waCcsICc3LjAnLCAnLXRuJywgJzgnLCAnLW1hJywgJzIwMCcsICctaW1hZScsICc8aW5maWxlLm1hZT4nLCAnLW9tYWUnLCAnPG91dGZpbGUubWFlPic=

>  <r_epik_Ionization_Penalty>  (20) 
0.174465

>  <r_epik_Ionization_Penalty_Charging>  (20) 
0.172252

>  <r_epik_Ionization_Penalty_Neutral>  (20) 
0.00221273

>  <r_epik_State_Penalty>  (20) 
0.16281

>  <r_epik_Charging_Adjusted_Penalty>  (20) 
0.335063

>  <i_epik_Tot_Q>  (20) 
1

>  <i_epik_Tot_abs_Q>  (20) 
1

>  <s_lp_Force_Field>  (20) 
OPLS3e

>  <r_lp_Energy>  (20) 
135.007

>  <b_lp_Chiralities_Consistent>  (20) 
1

>  <s_lp_Variant>  (20) 
5:0-3

>  <s_i_glide_gridfile>  (20) 
pfpi4k_grid

>  <i_i_glide_lignum>  (20) 
10

>  <i_i_glide_rotatable_bonds>  (20) 
3

>  <r_i_docking_score>  (20) 
-4.98361

>  <r_i_glide_ligand_efficiency>  (20) 
-0.184578

>  <r_i_glide_ligand_efficiency_sa>  (20) 
-0.553734

>  <r_i_glide_ligand_efficiency_ln>  (20) 
-1.1601

>  <r_i_glide_gscore>  (20) 
-4.98361

>  <r_i_glide_lipo>  (20) 
-0.482381

>  <r_i_glide_hbond>  (20) 
-0.800707

>  <r_i_glide_metal>  (20) 
-0

>  <r_i_glide_rewards>  (20) 
-0.869175

>  <r_i_glide_evdw>  (20) 
-17.4417

>  <r_i_glide_ecoul>  (20) 
-12.8487

>  <r_i_glide_erotb>  (20) 
0

>  <r_i_glide_esite>  (20) 
-0.0319489

>  <r_i_glide_emodel>  (20) 
-36.1901

>  <r_i_glide_energy>  (20) 
-30.2905

>  <r_i_glide_einternal>  (20) 
1.53625

>  <r_i_glide_intrahb_reward>  (20) 
-0

>  <i_i_glide_confnum>  (20) 
1

>  <i_i_glide_posenum>  (20) 
35

>  <r_i_glide_eff_state_penalty>  (20) 
0

>  <ligand_id>  (20) 
5

>  <original_smiles>  (20) 
C=C1C=CC2C3CCC1C1CC3C(C)(C)C1C(O)CC1(O)C3C(O)C3CN21

>  <smiles>  (20) 
[H]OC1([H])C([H])([H])C2(O[H])C3([H])C([H])(O[H])C3([H])C([H])([H])[N+]2([H])C2([H])C([H])=C([H])C(=C([H])[H])C3([H])C([H])([H])C([H])([H])C2([H])C2([H])C([H])([H])C3([H])C1([H])C2(C([H])([H])[H])C([H])([H])[H]

$$$$
5:3:0
     RDKit          3D

 61 66  0  0  1  0  0  0  0  0999 V2000
    4.2203   -0.5303    4.3650 C   0  0  0  0  0  0  0  0  0  0  0  0
    3.6568   -1.6200    3.8134 C   0  0  0  0  0  0  0  0  0  0  0  0
    2.4889   -1.5197    2.9729 C   0  0  0  0  0  0  0  0  0  0  0  0
    2.7925   -1.7747    1.7172 C   0  0  0  0  0  0  0  0  0  0  0  0
    2.7295   -3.1010    0.9659 C   0  0  2  0  0  0  0  0  0  0  0  0
    2.9831   -4.4949    1.7446 C   0  0  2  0  0  0  0  0  0  0  0  0
    2.2125   -4.5830    3.1053 C   0  0  0  0  0  0  0  0  0  0  0  0
    2.8688   -3.9313    4.3665 C   0  0  0  0  0  0  0  0  0  0  0  0
    4.1282   -3.0349    4.1146 C   0  0  1  0  0  0  0  0  0  0  0  0
    5.3182   -3.7107    3.2967 C   0  0  1  0  0  0  0  0  0  0  0  0
    5.0191   -5.2087    3.2189 C   0  0  0  0  0  0  0  0  0  0  0  0
    4.3831   -5.2915    1.8318 C   0  0  2  0  0  0  0  0  0  0  0  0
    5.5703   -4.7791    0.9919 C   0  0  0  0  0  0  0  0  0  0  0  0
    6.8438   -5.7086    1.0670 C   0  0  0  0  0  0  0  0  0  0  0  0
    5.2321   -4.9321   -0.5068 C   0  0  0  0  0  0  0  0  0  0  0  0
    5.8507   -3.4373    1.7944 C   0  0  1  0  0  0  0  0  0  0  0  0
    5.8867   -1.9947    1.1567 C   0  0  1  0  0  0  0  0  0  0  0  0
    7.1907   -1.4586    1.1470 O   0  0  0  0  0  0  0  0  0  0  0  0
    5.5574   -1.7912   -0.3451 C   0  0  0  0  0  0  0  0  0  0  0  0
    4.1552   -1.9854   -0.9552 C   0  0  1  0  0  0  0  0  0  0  0  0
    3.4226   -0.8302   -0.7683 O   0  0  0  0  0  0  0  0  0  0  0  0
    4.1617   -2.1698   -2.4432 C   0  0  2  0  0  0  0  0  0  0  0  0
    3.0480   -1.7540   -3.3480 C   0  0  1  0  0  0  0  0  0  0  0  0
    3.4636   -1.7505   -4.6599 O   0  0  0  0  0  0  0  0  0  0  0  0
    3.0312   -3.1287   -2.7752 C   0  0  2  0  0  0  0  0  0  0  0  0
    2.2912   -3.4285   -1.5110 C   0  0  0  0  0  0  0  0  0  0  0  0
    3.2465   -3.0491   -0.4229 N   0  0  2  0  0  0  0  0  0  0  0  0
    5.0646   -0.6161    5.0308 H   0  0  0  0  0  0  0  0  0  0  0  0
    3.8333    0.4564    4.1650 H   0  0  0  0  0  0  0  0  0  0  0  0
    1.6163   -2.0025    3.3779 H   0  0  0  0  0  0  0  0  0  0  0  0
    3.6106   -1.1801    1.4412 H   0  0  0  0  0  0  0  0  0  0  0  0
    1.6745   -3.0740    0.8192 H   0  0  0  0  0  0  0  0  0  0  0  0
    2.4079   -5.1740    1.1140 H   0  0  0  0  0  0  0  0  0  0  0  0
    1.2075   -4.1761    2.9768 H   0  0  0  0  0  0  0  0  0  0  0  0
    2.0392   -5.6381    3.3343 H   0  0  0  0  0  0  0  0  0  0  0  0
    2.1140   -3.3695    4.9183 H   0  0  0  0  0  0  0  0  0  0  0  0
    3.0936   -4.7005    5.1040 H   0  0  0  0  0  0  0  0  0  0  0  0
    4.5407   -2.9345    5.1178 H   0  0  0  0  0  0  0  0  0  0  0  0
    6.1639   -3.6106    3.9654 H   0  0  0  0  0  0  0  0  0  0  0  0
    5.9306   -5.7836    3.3234 H   0  0  0  0  0  0  0  0  0  0  0  0
    4.4496   -5.6907    4.0027 H   0  0  0  0  0  0  0  0  0  0  0  0
    4.1978   -6.3452    1.6028 H   0  0  0  0  0  0  0  0  0  0  0  0
    7.5553   -5.4794    0.2711 H   0  0  0  0  0  0  0  0  0  0  0  0
    6.5730   -6.7613    0.9490 H   0  0  0  0  0  0  0  0  0  0  0  0
    7.4387   -5.6425    1.9763 H   0  0  0  0  0  0  0  0  0  0  0  0
    5.6476   -4.2015   -1.1882 H   0  0  0  0  0  0  0  0  0  0  0  0
    4.1963   -5.1714   -0.7196 H   0  0  0  0  0  0  0  0  0  0  0  0
    5.6380   -5.8628   -0.8705 H   0  0  0  0  0  0  0  0  0  0  0  0
    6.9197   -3.5431    1.9624 H   0  0  0  0  0  0  0  0  0  0  0  0
    5.4561   -1.2813    1.8462 H   0  0  0  0  0  0  0  0  0  0  0  0
    7.1627   -0.5275    1.3064 H   0  0  0  0  0  0  0  0  0  0  0  0
    5.7778   -0.7439   -0.5582 H   0  0  0  0  0  0  0  0  0  0  0  0
    6.3188   -2.2943   -0.9381 H   0  0  0  0  0  0  0  0  0  0  0  0
    2.4781   -0.9778   -0.8087 H   0  0  0  0  0  0  0  0  0  0  0  0
    5.1146   -2.4415   -2.8924 H   0  0  0  0  0  0  0  0  0  0  0  0
    2.3050   -1.0191   -3.0792 H   0  0  0  0  0  0  0  0  0  0  0  0
    2.7085   -1.8339   -5.2379 H   0  0  0  0  0  0  0  0  0  0  0  0
    3.3086   -3.9716   -3.4111 H   0  0  0  0  0  0  0  0  0  0  0  0
    1.4390   -2.7757   -1.5830 H   0  0  0  0  0  0  0  0  0  0  0  0
    1.9111   -4.4480   -1.4754 H   0  0  0  0  0  0  0  0  0  0  0  0
    3.8693   -3.8312   -0.4352 H   0  0  0  0  0  0  0  0  0  0  0  0
  1  2  2  0
  1 28  1  0
  1 29  1  0
  2  9  1  0
  2  3  1  0
  3  4  2  3
  3 30  1  0
  4  5  1  0
  4 31  1  0
  5 27  1  0
  5  6  1  0
  5 32  1  6
  6 12  1  0
  6  7  1  0
  6 33  1  6
  7  8  1  0
  7 34  1  0
  7 35  1  0
  8  9  1  0
  8 36  1  0
  8 37  1  0
  9 10  1  0
  9 38  1  1
 10 16  1  0
 10 11  1  0
 10 39  1  1
 11 12  1  0
 11 40  1  0
 11 41  1  0
 12 13  1  0
 12 42  1  6
 13 14  1  0
 13 15  1  0
 13 16  1  0
 14 43  1  0
 14 44  1  0
 14 45  1  0
 15 46  1  0
 15 47  1  0
 15 48  1  0
 16 17  1  0
 16 49  1  1
 17 18  1  0
 17 19  1  0
 17 50  1  1
 18 51  1  0
 19 20  1  0
 19 52  1  0
 19 53  1  0
 20 27  1  0
 20 21  1  6
 20 22  1  0
 21 54  1  0
 22 25  1  0
 22 23  1  0
 22 55  1  6
 23 24  1  0
 23 25  1  0
 23 56  1  1
 24 57  1  0
 25 26  1  0
 25 58  1  6
 26 27  1  0
 26 59  1  0
 26 60  1  0
 27 61  1  1
M  CHG  1  27   1
M  END
>  <i_m_ct_stereo_status>  (21) 
1

>  <s_m_source_file>  (21) 
/var/tmp/pbs.5076255.sched01/tmpvv81v907/0tx7qkblw.sdf

>  <i_m_source_file_index>  (21) 
11

>  <i_lp_mmshare_version>  (21) 
48012

>  <i_f3d_flags>  (21) 
0

>  <s_epik_input>  (21) 
W0NIXVwxPVtDSF1cQyg9W0NIMl0pW0NAQEhdKFtDSDJdW0NIMl0yKVtDQEhdKFtDSF0oQzMoW0NIM10pW0NIM10pW0NAQEhdKFtPSF0pW0NIMl00KVtDSDJdW0NASF0zW0NAQEhdMltDQEBIXTFONVtDSDJdW0NAQEhdKFtDQEBIXTZbT0hdKVtDQEBIXTZbQ0BdNDVbT0hd

>  <s_epik_cmdline>  (21) 
J2VwaWtfcHl0aG9uJywgJy1waHQnLCAnMi4wJywgJy1waCcsICc3LjAnLCAnLXRuJywgJzgnLCAnLW1hJywgJzIwMCcsICctaW1hZScsICc8aW5maWxlLm1hZT4nLCAnLW9tYWUnLCAnPG91dGZpbGUubWFlPic=

>  <r_epik_Ionization_Penalty>  (21) 
0.174465

>  <r_epik_Ionization_Penalty_Charging>  (21) 
0.172252

>  <r_epik_Ionization_Penalty_Neutral>  (21) 
0.00221273

>  <r_epik_State_Penalty>  (21) 
0.16281

>  <r_epik_Charging_Adjusted_Penalty>  (21) 
0.335063

>  <i_epik_Tot_Q>  (21) 
1

>  <i_epik_Tot_abs_Q>  (21) 
1

>  <s_lp_Force_Field>  (21) 
OPLS3e

>  <r_lp_Energy>  (21) 
186.138

>  <b_lp_Chiralities_Consistent>  (21) 
1

>  <s_lp_Variant>  (21) 
5:0-4

>  <s_i_glide_gridfile>  (21) 
pfpi4k_grid

>  <i_i_glide_lignum>  (21) 
11

>  <i_i_glide_rotatable_bonds>  (21) 
3

>  <r_i_docking_score>  (21) 
-5.59365

>  <r_i_glide_ligand_efficiency>  (21) 
-0.207172

>  <r_i_glide_ligand_efficiency_sa>  (21) 
-0.621517

>  <r_i_glide_ligand_efficiency_ln>  (21) 
-1.30211

>  <r_i_glide_gscore>  (21) 
-5.59365

>  <r_i_glide_lipo>  (21) 
-0.657649

>  <r_i_glide_hbond>  (21) 
-1.12

>  <r_i_glide_metal>  (21) 
-0

>  <r_i_glide_rewards>  (21) 
-0.869175

>  <r_i_glide_evdw>  (21) 
-7.38637

>  <r_i_glide_ecoul>  (21) 
-16.9152

>  <r_i_glide_erotb>  (21) 
0

>  <r_i_glide_esite>  (21) 
-0.0402228

>  <r_i_glide_emodel>  (21) 
-29.3388

>  <r_i_glide_energy>  (21) 
-24.3016

>  <r_i_glide_einternal>  (21) 
1.65173

>  <r_i_glide_intrahb_reward>  (21) 
-0

>  <i_i_glide_confnum>  (21) 
1

>  <i_i_glide_posenum>  (21) 
36

>  <r_i_glide_eff_state_penalty>  (21) 
0

>  <ligand_id>  (21) 
5

>  <original_smiles>  (21) 
C=C1C=CC2C3CCC1C1CC3C(C)(C)C1C(O)CC1(O)C3C(O)C3CN21

>  <smiles>  (21) 
[H]OC1([H])C([H])([H])C2(O[H])C3([H])C([H])(O[H])C3([H])C([H])([H])[N+]2([H])C2([H])C([H])=C([H])C(=C([H])[H])C3([H])C([H])([H])C([H])([H])C2([H])C2([H])C([H])([H])C3([H])C1([H])C2(C([H])([H])[H])C([H])([H])[H]

$$$$
5:3:1
     RDKit          3D

 61 66  0  0  1  0  0  0  0  0999 V2000
    3.2527   -3.0871    4.5659 C   0  0  0  0  0  0  0  0  0  0  0  0
    3.3181   -3.8371    3.4604 C   0  0  0  0  0  0  0  0  0  0  0  0
    2.3111   -3.7681    2.4342 C   0  0  0  0  0  0  0  0  0  0  0  0
    2.7853   -3.1904    1.3337 C   0  0  0  0  0  0  0  0  0  0  0  0
    3.3657   -3.8383    0.0825 C   0  0  2  0  0  0  0  0  0  0  0  0
    4.2540   -5.1866    0.2586 C   0  0  2  0  0  0  0  0  0  0  0  0
    3.5314   -6.2668    1.1306 C   0  0  0  0  0  0  0  0  0  0  0  0
    3.6919   -6.1931    2.6850 C   0  0  0  0  0  0  0  0  0  0  0  0
    4.3794   -4.9092    3.2447 C   0  0  1  0  0  0  0  0  0  0  0  0
    5.7935   -4.5542    2.6164 C   0  0  1  0  0  0  0  0  0  0  0  0
    6.2689   -5.7549    1.8102 C   0  0  0  0  0  0  0  0  0  0  0  0
    5.8555   -5.3032    0.4085 C   0  0  2  0  0  0  0  0  0  0  0  0
    6.7239   -4.0274    0.2671 C   0  0  0  0  0  0  0  0  0  0  0  0
    8.2768   -4.3118    0.3435 C   0  0  0  0  0  0  0  0  0  0  0  0
    6.6491   -3.4397   -1.1762 C   0  0  0  0  0  0  0  0  0  0  0  0
    6.2228   -3.3568    1.6115 C   0  0  1  0  0  0  0  0  0  0  0  0
    5.6471   -1.8968    1.7112 C   0  0  1  0  0  0  0  0  0  0  0  0
    6.4825   -1.0332    2.4250 O   0  0  0  0  0  0  0  0  0  0  0  0
    5.3731   -1.0607    0.4365 C   0  0  0  0  0  0  0  0  0  0  0  0
    4.2339   -1.3982   -0.5853 C   0  0  1  0  0  0  0  0  0  0  0  0
    3.0495   -0.8485   -0.0552 O   0  0  0  0  0  0  0  0  0  0  0  0
    4.4723   -0.7751   -1.9573 C   0  0  2  0  0  0  0  0  0  0  0  0
    3.4012   -0.4279   -2.9780 C   0  0  1  0  0  0  0  0  0  0  0  0
    3.8554    0.4577   -3.9723 O   0  0  0  0  0  0  0  0  0  0  0  0
    4.0032   -1.7863   -2.9849 C   0  0  2  0  0  0  0  0  0  0  0  0
    3.3486   -2.9130   -2.2341 C   0  0  0  0  0  0  0  0  0  0  0  0
    3.9189   -2.8362   -0.8796 N   0  0  2  0  0  0  0  0  0  0  0  0
    3.9849   -3.1855    5.3564 H   0  0  0  0  0  0  0  0  0  0  0  0
    2.4600   -2.3659    4.7067 H   0  0  0  0  0  0  0  0  0  0  0  0
    1.7533   -4.6694    2.2991 H   0  0  0  0  0  0  0  0  0  0  0  0
    3.2672   -2.3111    1.6227 H   0  0  0  0  0  0  0  0  0  0  0  0
    2.4548   -4.2253   -0.3782 H   0  0  0  0  0  0  0  0  0  0  0  0
    4.1534   -5.6096   -0.7296 H   0  0  0  0  0  0  0  0  0  0  0  0
    2.4679   -6.2696    0.8819 H   0  0  0  0  0  0  0  0  0  0  0  0
    3.8756   -7.2529    0.8094 H   0  0  0  0  0  0  0  0  0  0  0  0
    2.7200   -6.3397    3.1617 H   0  0  0  0  0  0  0  0  0  0  0  0
    4.2095   -7.0844    3.0441 H   0  0  0  0  0  0  0  0  0  0  0  0
    4.6208   -5.2016    4.2669 H   0  0  0  0  0  0  0  0  0  0  0  0
    6.4277   -4.5549    3.4902 H   0  0  0  0  0  0  0  0  0  0  0  0
    7.3371   -5.9004    1.9393 H   0  0  0  0  0  0  0  0  0  0  0  0
    5.9477   -6.7522    2.0840 H   0  0  0  0  0  0  0  0  0  0  0  0
    6.2057   -6.0566   -0.2902 H   0  0  0  0  0  0  0  0  0  0  0  0
    8.8590   -3.4551   -0.0079 H   0  0  0  0  0  0  0  0  0  0  0  0
    8.5582   -5.1586   -0.2909 H   0  0  0  0  0  0  0  0  0  0  0  0
    8.6873   -4.5193    1.3320 H   0  0  0  0  0  0  0  0  0  0  0  0
    6.6696   -2.3686   -1.2855 H   0  0  0  0  0  0  0  0  0  0  0  0
    5.8726   -3.8954   -1.7813 H   0  0  0  0  0  0  0  0  0  0  0  0
    7.5272   -3.7165   -1.7672 H   0  0  0  0  0  0  0  0  0  0  0  0
    7.1838   -3.1453    2.0401 H   0  0  0  0  0  0  0  0  0  0  0  0
    4.8799   -1.8775    2.4643 H   0  0  0  0  0  0  0  0  0  0  0  0
    7.1065   -0.6032    1.8586 H   0  0  0  0  0  0  0  0  0  0  0  0
    5.0950   -0.0666    0.7906 H   0  0  0  0  0  0  0  0  0  0  0  0
    6.3130   -0.8380   -0.0511 H   0  0  0  0  0  0  0  0  0  0  0  0
    2.2678   -1.0039   -0.5890 H   0  0  0  0  0  0  0  0  0  0  0  0
    5.4699   -0.3845   -2.1363 H   0  0  0  0  0  0  0  0  0  0  0  0
    2.3682   -0.2646   -2.6690 H   0  0  0  0  0  0  0  0  0  0  0  0
    3.4004    1.2763   -3.8093 H   0  0  0  0  0  0  0  0  0  0  0  0
    4.7154   -2.0420   -3.7796 H   0  0  0  0  0  0  0  0  0  0  0  0
    2.2732   -2.6958   -2.2372 H   0  0  0  0  0  0  0  0  0  0  0  0
    3.5250   -3.8467   -2.7690 H   0  0  0  0  0  0  0  0  0  0  0  0
    4.8419   -3.2079   -1.0258 H   0  0  0  0  0  0  0  0  0  0  0  0
  1  2  2  0
  1 28  1  0
  1 29  1  0
  2  9  1  0
  2  3  1  0
  3  4  2  3
  3 30  1  0
  4  5  1  0
  4 31  1  0
  5 27  1  0
  5  6  1  0
  5 32  1  6
  6 12  1  0
  6  7  1  0
  6 33  1  6
  7  8  1  0
  7 34  1  0
  7 35  1  0
  8  9  1  0
  8 36  1  0
  8 37  1  0
  9 10  1  0
  9 38  1  1
 10 16  1  0
 10 11  1  0
 10 39  1  1
 11 12  1  0
 11 40  1  0
 11 41  1  0
 12 13  1  0
 12 42  1  6
 13 14  1  0
 13 15  1  0
 13 16  1  0
 14 43  1  0
 14 44  1  0
 14 45  1  0
 15 46  1  0
 15 47  1  0
 15 48  1  0
 16 17  1  0
 16 49  1  1
 17 18  1  0
 17 19  1  0
 17 50  1  1
 18 51  1  0
 19 20  1  0
 19 52  1  0
 19 53  1  0
 20 27  1  0
 20 21  1  1
 20 22  1  0
 21 54  1  0
 22 25  1  0
 22 23  1  0
 22 55  1  6
 23 24  1  0
 23 25  1  0
 23 56  1  1
 24 57  1  0
 25 26  1  0
 25 58  1  6
 26 27  1  0
 26 59  1  0
 26 60  1  0
 27 61  1  6
M  CHG  1  27   1
M  END
>  <i_m_ct_stereo_status>  (22) 
1

>  <s_m_source_file>  (22) 
/var/tmp/pbs.5076255.sched01/tmpvv81v907/0tx7qkblw.sdf

>  <i_m_source_file_index>  (22) 
11

>  <i_lp_mmshare_version>  (22) 
48012

>  <i_f3d_flags>  (22) 
0

>  <s_epik_input>  (22) 
W0NIXVwxPVtDSF1cQyg9W0NIMl0pW0NAQEhdKFtDSDJdW0NIMl0yKVtDQEhdKFtDSF0oQzMoW0NIM10pW0NIM10pW0NAQEhdKFtPSF0pW0NIMl00KVtDSDJdW0NASF0zW0NAQEhdMltDQEBIXTFONVtDSDJdW0NAQEhdKFtDQEBIXTZbT0hdKVtDQEBIXTZbQ0BdNDVbT0hd

>  <s_epik_cmdline>  (22) 
J2VwaWtfcHl0aG9uJywgJy1waHQnLCAnMi4wJywgJy1waCcsICc3LjAnLCAnLXRuJywgJzgnLCAnLW1hJywgJzIwMCcsICctaW1hZScsICc8aW5maWxlLm1hZT4nLCAnLW9tYWUnLCAnPG91dGZpbGUubWFlPic=

>  <r_epik_Ionization_Penalty>  (22) 
0.174465

>  <r_epik_Ionization_Penalty_Charging>  (22) 
0.172252

>  <r_epik_Ionization_Penalty_Neutral>  (22) 
0.00221273

>  <r_epik_State_Penalty>  (22) 
0.16281

>  <r_epik_Charging_Adjusted_Penalty>  (22) 
0.335063

>  <i_epik_Tot_Q>  (22) 
1

>  <i_epik_Tot_abs_Q>  (22) 
1

>  <s_lp_Force_Field>  (22) 
OPLS3e

>  <r_lp_Energy>  (22) 
186.138

>  <b_lp_Chiralities_Consistent>  (22) 
1

>  <s_lp_Variant>  (22) 
5:0-4

>  <s_i_glide_gridfile>  (22) 
pfpi4k_grid

>  <i_i_glide_lignum>  (22) 
11

>  <i_i_glide_rotatable_bonds>  (22) 
3

>  <r_i_docking_score>  (22) 
-5.15349

>  <r_i_glide_ligand_efficiency>  (22) 
-0.19087

>  <r_i_glide_ligand_efficiency_sa>  (22) 
-0.57261

>  <r_i_glide_ligand_efficiency_ln>  (22) 
-1.19965

>  <r_i_glide_gscore>  (22) 
-5.15349

>  <r_i_glide_lipo>  (22) 
-1.02226

>  <r_i_glide_hbond>  (22) 
-0.630251

>  <r_i_glide_metal>  (22) 
-0

>  <r_i_glide_rewards>  (22) 
-0.869175

>  <r_i_glide_evdw>  (22) 
-14.1665

>  <r_i_glide_ecoul>  (22) 
-12.4581

>  <r_i_glide_erotb>  (22) 
0

>  <r_i_glide_esite>  (22) 
-0.0547687

>  <r_i_glide_emodel>  (22) 
-30.9757

>  <r_i_glide_energy>  (22) 
-26.6246

>  <r_i_glide_einternal>  (22) 
2.20627

>  <r_i_glide_intrahb_reward>  (22) 
-0

>  <i_i_glide_confnum>  (22) 
1

>  <i_i_glide_posenum>  (22) 
24

>  <r_i_glide_eff_state_penalty>  (22) 
0

>  <ligand_id>  (22) 
5

>  <original_smiles>  (22) 
C=C1C=CC2C3CCC1C1CC3C(C)(C)C1C(O)CC1(O)C3C(O)C3CN21

>  <smiles>  (22) 
[H]OC1([H])C([H])([H])C2(O[H])C3([H])C([H])(O[H])C3([H])C([H])([H])[N+]2([H])C2([H])C([H])=C([H])C(=C([H])[H])C3([H])C([H])([H])C([H])([H])C2([H])C2([H])C([H])([H])C3([H])C1([H])C2(C([H])([H])[H])C([H])([H])[H]

$$$$
5:3:2
     RDKit          3D

 61 66  0  0  1  0  0  0  0  0999 V2000
    2.8055   -3.4592    4.3025 C   0  0  0  0  0  0  0  0  0  0  0  0
    3.0883   -4.1956    3.2111 C   0  0  0  0  0  0  0  0  0  0  0  0
    2.2304   -4.1968    2.0602 C   0  0  0  0  0  0  0  0  0  0  0  0
    2.7984   -3.5644    1.0227 C   0  0  0  0  0  0  0  0  0  0  0  0
    3.5799   -4.1759   -0.1127 C   0  0  2  0  0  0  0  0  0  0  0  0
    4.5518   -5.4385    0.1503 C   0  0  2  0  0  0  0  0  0  0  0  0
    3.8047   -6.5713    0.9331 C   0  0  0  0  0  0  0  0  0  0  0  0
    3.7489   -6.5046    2.4942 C   0  0  0  0  0  0  0  0  0  0  0  0
    4.2414   -5.1770    3.1571 C   0  0  1  0  0  0  0  0  0  0  0  0
    5.6739   -4.6751    2.7050 C   0  0  1  0  0  0  0  0  0  0  0  0
    6.3649   -5.8351    1.9862 C   0  0  0  0  0  0  0  0  0  0  0  0
    6.1169   -5.4212    0.5303 C   0  0  2  0  0  0  0  0  0  0  0  0
    6.8615   -4.0697    0.4900 C   0  0  0  0  0  0  0  0  0  0  0  0
    8.4097   -4.2332    0.7951 C   0  0  0  0  0  0  0  0  0  0  0  0
    6.9576   -3.4585   -0.9390 C   0  0  0  0  0  0  0  0  0  0  0  0
    6.0564   -3.4691    1.7063 C   0  0  1  0  0  0  0  0  0  0  0  0
    5.4048   -2.0410    1.7866 C   0  0  1  0  0  0  0  0  0  0  0  0
    6.1439   -1.1359    2.5945 O   0  0  0  0  0  0  0  0  0  0  0  0
    5.2834   -1.2196    0.4781 C   0  0  0  0  0  0  0  0  0  0  0  0
    4.3506   -1.6517   -0.6892 C   0  0  1  0  0  0  0  0  0  0  0  0
    3.0934   -1.1875   -0.3220 O   0  0  0  0  0  0  0  0  0  0  0  0
    4.6986   -0.9827   -2.0102 C   0  0  2  0  0  0  0  0  0  0  0  0
    3.6931   -0.6896   -3.1009 C   0  0  1  0  0  0  0  0  0  0  0  0
    4.1684    0.1871   -4.0838 O   0  0  0  0  0  0  0  0  0  0  0  0
    4.4075   -2.0005   -3.0795 C   0  0  2  0  0  0  0  0  0  0  0  0
    3.7860   -3.1993   -2.4488 C   0  0  0  0  0  0  0  0  0  0  0  0
    4.1946   -3.1162   -1.0154 N   0  0  2  0  0  0  0  0  0  0  0  0
    3.4258   -3.5060    5.1810 H   0  0  0  0  0  0  0  0  0  0  0  0
    1.9484   -2.8087    4.3267 H   0  0  0  0  0  0  0  0  0  0  0  0
    1.7772   -5.1400    1.8558 H   0  0  0  0  0  0  0  0  0  0  0  0
    3.1379   -2.6332    1.3541 H   0  0  0  0  0  0  0  0  0  0  0  0
    2.7736   -4.6084   -0.6941 H   0  0  0  0  0  0  0  0  0  0  0  0
    4.6174   -5.8516   -0.8493 H   0  0  0  0  0  0  0  0  0  0  0  0
    2.7901   -6.6466    0.5527 H   0  0  0  0  0  0  0  0  0  0  0  0
    4.2526   -7.5279    0.6643 H   0  0  0  0  0  0  0  0  0  0  0  0
    2.7421   -6.7286    2.8375 H   0  0  0  0  0  0  0  0  0  0  0  0
    4.2792   -7.3499    2.9229 H   0  0  0  0  0  0  0  0  0  0  0  0
    4.3761   -5.4588    4.2005 H   0  0  0  0  0  0  0  0  0  0  0  0
    6.1902   -4.5234    3.6463 H   0  0  0  0  0  0  0  0  0  0  0  0
    7.4080   -5.9025    2.2577 H   0  0  0  0  0  0  0  0  0  0  0  0
    6.0989   -6.8596    2.2222 H   0  0  0  0  0  0  0  0  0  0  0  0
    6.6398   -6.1609   -0.0724 H   0  0  0  0  0  0  0  0  0  0  0  0
    8.9735   -3.3407    0.5227 H   0  0  0  0  0  0  0  0  0  0  0  0
    8.8413   -5.0484    0.2115 H   0  0  0  0  0  0  0  0  0  0  0  0
    8.7000   -4.4132    1.8291 H   0  0  0  0  0  0  0  0  0  0  0  0
    6.9196   -2.3831   -1.0382 H   0  0  0  0  0  0  0  0  0  0  0  0
    6.2866   -3.9527   -1.6292 H   0  0  0  0  0  0  0  0  0  0  0  0
    7.9135   -3.7009   -1.4017 H   0  0  0  0  0  0  0  0  0  0  0  0
    6.9539   -3.1446    2.1776 H   0  0  0  0  0  0  0  0  0  0  0  0
    4.5400   -2.0712    2.4434 H   0  0  0  0  0  0  0  0  0  0  0  0
    5.5908   -0.3791    2.8108 H   0  0  0  0  0  0  0  0  0  0  0  0
    4.8853   -0.2582    0.7903 H   0  0  0  0  0  0  0  0  0  0  0  0
    6.2844   -0.9248    0.1566 H   0  0  0  0  0  0  0  0  0  0  0  0
    2.4388   -1.2143   -1.0217 H   0  0  0  0  0  0  0  0  0  0  0  0
    5.6869   -0.5339   -2.0705 H   0  0  0  0  0  0  0  0  0  0  0  0
    2.6245   -0.6252   -2.9274 H   0  0  0  0  0  0  0  0  0  0  0  0
    3.7496    1.0344   -3.9303 H   0  0  0  0  0  0  0  0  0  0  0  0
    5.2319   -2.2086   -3.7488 H   0  0  0  0  0  0  0  0  0  0  0  0
    2.7178   -3.0959   -2.5736 H   0  0  0  0  0  0  0  0  0  0  0  0
    4.1364   -4.1108   -2.9325 H   0  0  0  0  0  0  0  0  0  0  0  0
    5.1429   -3.4104   -1.0307 H   0  0  0  0  0  0  0  0  0  0  0  0
  1  2  2  0
  1 28  1  0
  1 29  1  0
  2  9  1  0
  2  3  1  0
  3  4  2  3
  3 30  1  0
  4  5  1  0
  4 31  1  0
  5 27  1  0
  5  6  1  0
  5 32  1  6
  6 12  1  0
  6  7  1  0
  6 33  1  6
  7  8  1  0
  7 34  1  0
  7 35  1  0
  8  9  1  0
  8 36  1  0
  8 37  1  0
  9 10  1  0
  9 38  1  1
 10 16  1  0
 10 11  1  0
 10 39  1  1
 11 12  1  0
 11 40  1  0
 11 41  1  0
 12 13  1  0
 12 42  1  6
 13 14  1  0
 13 15  1  0
 13 16  1  0
 14 43  1  0
 14 44  1  0
 14 45  1  0
 15 46  1  0
 15 47  1  0
 15 48  1  0
 16 17  1  0
 16 49  1  1
 17 18  1  0
 17 19  1  0
 17 50  1  1
 18 51  1  0
 19 20  1  0
 19 52  1  0
 19 53  1  0
 20 27  1  0
 20 21  1  1
 20 22  1  0
 21 54  1  0
 22 25  1  0
 22 23  1  0
 22 55  1  1
 23 24  1  0
 23 25  1  0
 23 56  1  1
 24 57  1  0
 25 26  1  0
 25 58  1  6
 26 27  1  0
 26 59  1  0
 26 60  1  0
 27 61  1  6
M  CHG  1  27   1
M  END
>  <i_m_ct_stereo_status>  (23) 
1

>  <s_m_source_file>  (23) 
/var/tmp/pbs.5076255.sched01/tmpvv81v907/0tx7qkblw.sdf

>  <i_m_source_file_index>  (23) 
11

>  <i_lp_mmshare_version>  (23) 
48012

>  <i_f3d_flags>  (23) 
0

>  <s_epik_input>  (23) 
W0NIXVwxPVtDSF1cQyg9W0NIMl0pW0NAQEhdKFtDSDJdW0NIMl0yKVtDQEhdKFtDSF0oQzMoW0NIM10pW0NIM10pW0NAQEhdKFtPSF0pW0NIMl00KVtDSDJdW0NASF0zW0NAQEhdMltDQEBIXTFONVtDSDJdW0NAQEhdKFtDQEBIXTZbT0hdKVtDQEBIXTZbQ0BdNDVbT0hd

>  <s_epik_cmdline>  (23) 
J2VwaWtfcHl0aG9uJywgJy1waHQnLCAnMi4wJywgJy1waCcsICc3LjAnLCAnLXRuJywgJzgnLCAnLW1hJywgJzIwMCcsICctaW1hZScsICc8aW5maWxlLm1hZT4nLCAnLW9tYWUnLCAnPG91dGZpbGUubWFlPic=

>  <r_epik_Ionization_Penalty>  (23) 
0.174465

>  <r_epik_Ionization_Penalty_Charging>  (23) 
0.172252

>  <r_epik_Ionization_Penalty_Neutral>  (23) 
0.00221273

>  <r_epik_State_Penalty>  (23) 
0.16281

>  <r_epik_Charging_Adjusted_Penalty>  (23) 
0.335063

>  <i_epik_Tot_Q>  (23) 
1

>  <i_epik_Tot_abs_Q>  (23) 
1

>  <s_lp_Force_Field>  (23) 
OPLS3e

>  <r_lp_Energy>  (23) 
186.138

>  <b_lp_Chiralities_Consistent>  (23) 
1

>  <s_lp_Variant>  (23) 
5:0-4

>  <s_i_glide_gridfile>  (23) 
pfpi4k_grid

>  <i_i_glide_lignum>  (23) 
11

>  <i_i_glide_rotatable_bonds>  (23) 
3

>  <r_i_docking_score>  (23) 
-3.99916

>  <r_i_glide_ligand_efficiency>  (23) 
-0.148117

>  <r_i_glide_ligand_efficiency_sa>  (23) 
-0.444352

>  <r_i_glide_ligand_efficiency_ln>  (23) 
-0.93094

>  <r_i_glide_gscore>  (23) 
-3.99916

>  <r_i_glide_lipo>  (23) 
-1.05187

>  <r_i_glide_hbond>  (23) 
-0.0887038

>  <r_i_glide_metal>  (23) 
-0

>  <r_i_glide_rewards>  (23) 
-0.869175

>  <r_i_glide_evdw>  (23) 
-17.7691

>  <r_i_glide_ecoul>  (23) 
-7.07614

>  <r_i_glide_erotb>  (23) 
0

>  <r_i_glide_esite>  (23) 
-0.0395404

>  <r_i_glide_emodel>  (23) 
-28.5581

>  <r_i_glide_energy>  (23) 
-24.8452

>  <r_i_glide_einternal>  (23) 
1.87661

>  <r_i_glide_intrahb_reward>  (23) 
-0

>  <i_i_glide_confnum>  (23) 
1

>  <i_i_glide_posenum>  (23) 
27

>  <r_i_glide_eff_state_penalty>  (23) 
0

>  <ligand_id>  (23) 
5

>  <original_smiles>  (23) 
C=C1C=CC2C3CCC1C1CC3C(C)(C)C1C(O)CC1(O)C3C(O)C3CN21

>  <smiles>  (23) 
[H]OC1([H])C([H])([H])C2(O[H])C3([H])C([H])(O[H])C3([H])C([H])([H])[N+]2([H])C2([H])C([H])=C([H])C(=C([H])[H])C3([H])C([H])([H])C([H])([H])C2([H])C2([H])C([H])([H])C3([H])C1([H])C2(C([H])([H])[H])C([H])([H])[H]

$$$$
5:4:0
     RDKit          3D

 61 66  0  0  1  0  0  0  0  0999 V2000
    3.1905   -1.7630    3.2917 C   0  0  0  0  0  0  0  0  0  0  0  0
    3.2327   -2.8685    2.5214 C   0  0  0  0  0  0  0  0  0  0  0  0
    2.2285   -3.0228    1.5042 C   0  0  0  0  0  0  0  0  0  0  0  0
    2.3504   -3.5756    0.2812 C   0  0  0  0  0  0  0  0  0  0  0  0
    3.5968   -4.0268   -0.4657 C   0  0  2  0  0  0  0  0  0  0  0  0
    4.5297   -5.2453    0.1367 C   0  0  2  0  0  0  0  0  0  0  0  0
    3.6812   -6.0391    1.1581 C   0  0  0  0  0  0  0  0  0  0  0  0
    3.4819   -5.4099    2.5715 C   0  0  0  0  0  0  0  0  0  0  0  0
    4.1459   -4.0193    2.8896 C   0  0  1  0  0  0  0  0  0  0  0  0
    5.6597   -3.8121    2.5015 C   0  0  1  0  0  0  0  0  0  0  0  0
    6.2420   -5.1862    2.1547 C   0  0  0  0  0  0  0  0  0  0  0  0
    6.0747   -5.1839    0.6284 C   0  0  2  0  0  0  0  0  0  0  0  0
    6.8412   -3.8879    0.2802 C   0  0  0  0  0  0  0  0  0  0  0  0
    8.3519   -3.8938    0.6604 C   0  0  0  0  0  0  0  0  0  0  0  0
    6.8546   -3.6954   -1.2236 C   0  0  0  0  0  0  0  0  0  0  0  0
    6.0071   -2.9675    1.2092 C   0  0  2  0  0  0  0  0  0  0  0  0
    6.1250   -1.4506    1.0928 C   0  0  1  0  0  0  0  0  0  0  0  0
    7.4630   -1.0566    1.2352 O   0  0  0  0  0  0  0  0  0  0  0  0
    5.7290   -0.9799   -0.3052 C   0  0  0  0  0  0  0  0  0  0  0  0
    4.4002   -1.4017   -0.9978 C   0  0  1  0  0  0  0  0  0  0  0  0
    3.3935   -0.9620   -0.1171 O   0  0  0  0  0  0  0  0  0  0  0  0
    4.2708   -0.6688   -2.3265 C   0  0  2  0  0  0  0  0  0  0  0  0
    3.0195   -0.7989   -3.1522 C   0  0  1  0  0  0  0  0  0  0  0  0
    2.8650    0.2077   -4.1066 O   0  0  0  0  0  0  0  0  0  0  0  0
    4.2005   -1.6633   -3.4362 C   0  0  2  0  0  0  0  0  0  0  0  0
    4.1938   -3.0663   -2.8839 C   0  0  0  0  0  0  0  0  0  0  0  0
    4.0634   -2.8688   -1.3863 N   0  0  1  0  0  0  0  0  0  0  0  0
    3.8555   -1.6188    4.1403 H   0  0  0  0  0  0  0  0  0  0  0  0
    2.4668   -0.9865    3.0903 H   0  0  0  0  0  0  0  0  0  0  0  0
    1.2637   -2.6657    1.8053 H   0  0  0  0  0  0  0  0  0  0  0  0
    1.4548   -3.6214   -0.3093 H   0  0  0  0  0  0  0  0  0  0  0  0
    3.0611   -4.6042   -1.1939 H   0  0  0  0  0  0  0  0  0  0  0  0
    4.5984   -5.9045   -0.7345 H   0  0  0  0  0  0  0  0  0  0  0  0
    2.7059   -6.2764    0.7346 H   0  0  0  0  0  0  0  0  0  0  0  0
    4.1406   -7.0108    1.2810 H   0  0  0  0  0  0  0  0  0  0  0  0
    2.4162   -5.3650    2.7931 H   0  0  0  0  0  0  0  0  0  0  0  0
    3.8226   -6.1359    3.3117 H   0  0  0  0  0  0  0  0  0  0  0  0
    4.1600   -4.0102    3.9846 H   0  0  0  0  0  0  0  0  0  0  0  0
    6.1735   -3.3545    3.3396 H   0  0  0  0  0  0  0  0  0  0  0  0
    7.2819   -5.2398    2.4484 H   0  0  0  0  0  0  0  0  0  0  0  0
    5.8319   -6.0459    2.6725 H   0  0  0  0  0  0  0  0  0  0  0  0
    6.5777   -6.0645    0.2326 H   0  0  0  0  0  0  0  0  0  0  0  0
    8.8891   -3.1015    0.1319 H   0  0  0  0  0  0  0  0  0  0  0  0
    8.8372   -4.8454    0.4293 H   0  0  0  0  0  0  0  0  0  0  0  0
    8.5142   -3.6821    1.7058 H   0  0  0  0  0  0  0  0  0  0  0  0
    7.8448   -3.9557   -1.5900 H   0  0  0  0  0  0  0  0  0  0  0  0
    6.7197   -2.7648   -1.7167 H   0  0  0  0  0  0  0  0  0  0  0  0
    6.1462   -4.3795   -1.6604 H   0  0  0  0  0  0  0  0  0  0  0  0
    5.0242   -2.9388    0.8633 H   0  0  0  0  0  0  0  0  0  0  0  0
    5.4612   -1.0123    1.8515 H   0  0  0  0  0  0  0  0  0  0  0  0
    7.4322   -0.1267    1.5167 H   0  0  0  0  0  0  0  0  0  0  0  0
    5.6878    0.0924   -0.1841 H   0  0  0  0  0  0  0  0  0  0  0  0
    6.5739   -1.0433   -0.9508 H   0  0  0  0  0  0  0  0  0  0  0  0
    2.5334   -0.9890   -0.5367 H   0  0  0  0  0  0  0  0  0  0  0  0
    4.8629    0.2369   -2.4656 H   0  0  0  0  0  0  0  0  0  0  0  0
    2.1473   -1.2407   -2.6988 H   0  0  0  0  0  0  0  0  0  0  0  0
    2.4803    0.9659   -3.6641 H   0  0  0  0  0  0  0  0  0  0  0  0
    4.7582   -1.4899   -4.3576 H   0  0  0  0  0  0  0  0  0  0  0  0
    3.3237   -3.6111   -3.2652 H   0  0  0  0  0  0  0  0  0  0  0  0
    5.1064   -3.5729   -3.1872 H   0  0  0  0  0  0  0  0  0  0  0  0
    3.1057   -2.5875   -1.4826 H   0  0  0  0  0  0  0  0  0  0  0  0
  1  2  2  0
  1 28  1  0
  1 29  1  0
  2  9  1  0
  2  3  1  0
  3  4  2  3
  3 30  1  0
  4  5  1  0
  4 31  1  0
  5 27  1  0
  5  6  1  0
  5 32  1  6
  6 12  1  0
  6  7  1  0
  6 33  1  6
  7  8  1  0
  7 34  1  0
  7 35  1  0
  8  9  1  0
  8 36  1  0
  8 37  1  0
  9 10  1  0
  9 38  1  1
 10 16  1  0
 10 11  1  0
 10 39  1  1
 11 12  1  0
 11 40  1  0
 11 41  1  0
 12 13  1  0
 12 42  1  6
 13 14  1  0
 13 15  1  0
 13 16  1  0
 14 43  1  0
 14 44  1  0
 14 45  1  0
 15 46  1  0
 15 47  1  0
 15 48  1  0
 16 17  1  0
 16 49  1  6
 17 18  1  0
 17 19  1  0
 17 50  1  1
 18 51  1  0
 19 20  1  0
 19 52  1  0
 19 53  1  0
 20 27  1  0
 20 21  1  1
 20 22  1  0
 21 54  1  0
 22 25  1  0
 22 23  1  0
 22 55  1  6
 23 24  1  0
 23 25  1  0
 23 56  1  1
 24 57  1  0
 25 26  1  0
 25 58  1  6
 26 27  1  0
 26 59  1  0
 26 60  1  0
 27 61  1  1
M  CHG  1  27   1
M  END
>  <i_m_ct_stereo_status>  (24) 
1

>  <s_m_source_file>  (24) 
/var/tmp/pbs.5076255.sched01/tmpvv81v907/0tx7qkblw.sdf

>  <i_m_source_file_index>  (24) 
12

>  <i_lp_mmshare_version>  (24) 
48012

>  <i_f3d_flags>  (24) 
0

>  <s_epik_input>  (24) 
W0NIXVwxPVtDSF1cQyg9W0NIMl0pW0NAQEhdKFtDSDJdW0NIMl0yKVtDQEhdKFtDSF0oQzMoW0NIM10pW0NIM10pW0NAQEhdKFtPSF0pW0NIMl00KVtDSDJdW0NASF0zW0NAQEhdMltDQEBIXTFONVtDSDJdW0NAQEhdKFtDQEBIXTZbT0hdKVtDQEBIXTZbQ0BdNDVbT0hd

>  <s_epik_cmdline>  (24) 
J2VwaWtfcHl0aG9uJywgJy1waHQnLCAnMi4wJywgJy1waCcsICc3LjAnLCAnLXRuJywgJzgnLCAnLW1hJywgJzIwMCcsICctaW1hZScsICc8aW5maWxlLm1hZT4nLCAnLW9tYWUnLCAnPG91dGZpbGUubWFlPic=

>  <r_epik_Ionization_Penalty>  (24) 
0.174465

>  <r_epik_Ionization_Penalty_Charging>  (24) 
0.172252

>  <r_epik_Ionization_Penalty_Neutral>  (24) 
0.00221273

>  <r_epik_State_Penalty>  (24) 
0.16281

>  <r_epik_Charging_Adjusted_Penalty>  (24) 
0.335063

>  <i_epik_Tot_Q>  (24) 
1

>  <i_epik_Tot_abs_Q>  (24) 
1

>  <s_lp_Force_Field>  (24) 
OPLS3e

>  <r_lp_Energy>  (24) 
154.288

>  <b_lp_Chiralities_Consistent>  (24) 
1

>  <s_lp_Variant>  (24) 
5:0-5

>  <s_i_glide_gridfile>  (24) 
pfpi4k_grid

>  <i_i_glide_lignum>  (24) 
12

>  <i_i_glide_rotatable_bonds>  (24) 
3

>  <r_i_docking_score>  (24) 
-5.19726

>  <r_i_glide_ligand_efficiency>  (24) 
-0.192491

>  <r_i_glide_ligand_efficiency_sa>  (24) 
-0.577473

>  <r_i_glide_ligand_efficiency_ln>  (24) 
-1.20984

>  <r_i_glide_gscore>  (24) 
-5.19726

>  <r_i_glide_lipo>  (24) 
-1.0791

>  <r_i_glide_hbond>  (24) 
-0.71076

>  <r_i_glide_metal>  (24) 
-0

>  <r_i_glide_rewards>  (24) 
-0.869175

>  <r_i_glide_evdw>  (24) 
1.89572

>  <r_i_glide_ecoul>  (24) 
-17.1453

>  <r_i_glide_erotb>  (24) 
0

>  <r_i_glide_esite>  (24) 
-0.0612127

>  <r_i_glide_emodel>  (24) 
-16.1849

>  <r_i_glide_energy>  (24) 
-15.2496

>  <r_i_glide_einternal>  (24) 
1.65073

>  <r_i_glide_intrahb_reward>  (24) 
-0

>  <i_i_glide_confnum>  (24) 
1

>  <i_i_glide_posenum>  (24) 
37

>  <r_i_glide_eff_state_penalty>  (24) 
0

>  <ligand_id>  (24) 
5

>  <original_smiles>  (24) 
C=C1C=CC2C3CCC1C1CC3C(C)(C)C1C(O)CC1(O)C3C(O)C3CN21

>  <smiles>  (24) 
[H]OC1([H])C([H])([H])C2(O[H])C3([H])C([H])(O[H])C3([H])C([H])([H])[N+]2([H])C2([H])C([H])=C([H])C(=C([H])[H])C3([H])C([H])([H])C([H])([H])C2([H])C2([H])C([H])([H])C3([H])C1([H])C2(C([H])([H])[H])C([H])([H])[H]

$$$$
5:4:1
     RDKit          3D

 61 66  0  0  1  0  0  0  0  0999 V2000
    3.4778   -1.4514    2.7992 C   0  0  0  0  0  0  0  0  0  0  0  0
    3.5199   -2.6240    2.1407 C   0  0  0  0  0  0  0  0  0  0  0  0
    2.4296   -2.9341    1.2548 C   0  0  0  0  0  0  0  0  0  0  0  0
    2.4881   -3.5967    0.0752 C   0  0  0  0  0  0  0  0  0  0  0  0
    3.6854   -4.0060   -0.7645 C   0  0  2  0  0  0  0  0  0  0  0  0
    4.7266   -5.1143   -0.1627 C   0  0  2  0  0  0  0  0  0  0  0  0
    4.0379   -5.8737    1.0071 C   0  0  0  0  0  0  0  0  0  0  0  0
    3.9348   -5.1318    2.3766 C   0  0  0  0  0  0  0  0  0  0  0  0
    4.5380   -3.6858    2.5001 C   0  0  1  0  0  0  0  0  0  0  0  0
    5.9884   -3.4367    1.9516 C   0  0  1  0  0  0  0  0  0  0  0  0
    6.6228   -4.7941    1.6660 C   0  0  0  0  0  0  0  0  0  0  0  0
    6.2984   -4.9263    0.1641 C   0  0  2  0  0  0  0  0  0  0  0  0
    6.9681   -3.6275   -0.3673 C   0  0  0  0  0  0  0  0  0  0  0  0
    8.5030   -3.5268   -0.1120 C   0  0  0  0  0  0  0  0  0  0  0  0
    6.8321   -3.5057   -1.9158 C   0  0  0  0  0  0  0  0  0  0  0  0
    6.1624   -2.7295    0.5759 C   0  0  2  0  0  0  0  0  0  0  0  0
    6.1714   -1.2349    0.3479 C   0  0  1  0  0  0  0  0  0  0  0  0
    7.4734   -0.7900    0.3952 O   0  0  0  0  0  0  0  0  0  0  0  0
    5.6351   -0.9439   -1.0641 C   0  0  0  0  0  0  0  0  0  0  0  0
    4.2942   -1.4484   -1.6095 C   0  0  1  0  0  0  0  0  0  0  0  0
    3.3879   -1.0346   -0.6393 O   0  0  0  0  0  0  0  0  0  0  0  0
    3.9840   -0.8060   -2.9460 C   0  0  2  0  0  0  0  0  0  0  0  0
    2.7024   -1.0605   -3.6671 C   0  0  1  0  0  0  0  0  0  0  0  0
    2.4143   -0.1736   -4.7498 O   0  0  0  0  0  0  0  0  0  0  0  0
    3.8776   -1.8986   -3.9681 C   0  0  2  0  0  0  0  0  0  0  0  0
    3.9874   -3.2434   -3.2932 C   0  0  0  0  0  0  0  0  0  0  0  0
    3.9718   -2.9408   -1.8238 N   0  0  0  0  0  0  0  0  0  0  0  0
    4.2269   -1.2007    3.5336 H   0  0  0  0  0  0  0  0  0  0  0  0
    2.7022   -0.7246    2.6050 H   0  0  0  0  0  0  0  0  0  0  0  0
    1.4666   -2.6558    1.6143 H   0  0  0  0  0  0  0  0  0  0  0  0
    1.5450   -3.7444   -0.4341 H   0  0  0  0  0  0  0  0  0  0  0  0
    3.1074   -4.6568   -1.3848 H   0  0  0  0  0  0  0  0  0  0  0  0
    4.7543   -5.8474   -0.9696 H   0  0  0  0  0  0  0  0  0  0  0  0
    3.0434   -6.2021    0.7074 H   0  0  0  0  0  0  0  0  0  0  0  0
    4.5693   -6.8088    1.1687 H   0  0  0  0  0  0  0  0  0  0  0  0
    2.8937   -5.1242    2.6978 H   0  0  0  0  0  0  0  0  0  0  0  0
    4.3913   -5.7616    3.1400 H   0  0  0  0  0  0  0  0  0  0  0  0
    4.6483   -3.5676    3.5765 H   0  0  0  0  0  0  0  0  0  0  0  0
    6.5478   -2.8413    2.6549 H   0  0  0  0  0  0  0  0  0  0  0  0
    7.6905   -4.7710    1.8652 H   0  0  0  0  0  0  0  0  0  0  0  0
    6.3222   -5.6234    2.2991 H   0  0  0  0  0  0  0  0  0  0  0  0
    6.8157   -5.8260   -0.1597 H   0  0  0  0  0  0  0  0  0  0  0  0
    8.9571   -2.7766   -0.7598 H   0  0  0  0  0  0  0  0  0  0  0  0
    9.0184   -4.4694   -0.3016 H   0  0  0  0  0  0  0  0  0  0  0  0
    8.7443   -3.2060    0.8986 H   0  0  0  0  0  0  0  0  0  0  0  0
    7.7629   -3.8337   -2.3674 H   0  0  0  0  0  0  0  0  0  0  0  0
    6.6013   -2.7114   -2.5538 H   0  0  0  0  0  0  0  0  0  0  0  0
    6.1376   -4.2618   -2.2152 H   0  0  0  0  0  0  0  0  0  0  0  0
    5.1603   -2.7640    0.3246 H   0  0  0  0  0  0  0  0  0  0  0  0
    5.5594   -0.7426    1.0933 H   0  0  0  0  0  0  0  0  0  0  0  0
    7.5012   -0.0249    1.0607 H   0  0  0  0  0  0  0  0  0  0  0  0
    5.5250    0.1430   -1.0594 H   0  0  0  0  0  0  0  0  0  0  0  0
    6.4072   -1.0636   -1.7933 H   0  0  0  0  0  0  0  0  0  0  0  0
    2.5041   -0.9690   -0.9951 H   0  0  0  0  0  0  0  0  0  0  0  0
    4.5073    0.1217   -3.2117 H   0  0  0  0  0  0  0  0  0  0  0  0
    1.8961   -1.5161   -3.1083 H   0  0  0  0  0  0  0  0  0  0  0  0
    1.8156   -0.5780   -5.3369 H   0  0  0  0  0  0  0  0  0  0  0  0
    4.3378   -1.7700   -4.9400 H   0  0  0  0  0  0  0  0  0  0  0  0
    3.1295   -3.8592   -3.5647 H   0  0  0  0  0  0  0  0  0  0  0  0
    4.8833   -3.7340   -3.6636 H   0  0  0  0  0  0  0  0  0  0  0  0
    2.9879   -2.7100   -1.8532 H   0  0  0  0  0  0  0  0  0  0  0  0
  1  2  2  0
  1 28  1  0
  1 29  1  0
  2  9  1  0
  2  3  1  0
  3  4  2  3
  3 30  1  0
  4  5  1  0
  4 31  1  0
  5 27  1  0
  5  6  1  0
  5 32  1  6
  6 12  1  0
  6  7  1  0
  6 33  1  6
  7  8  1  0
  7 34  1  0
  7 35  1  0
  8  9  1  0
  8 36  1  0
  8 37  1  0
  9 10  1  0
  9 38  1  1
 10 16  1  0
 10 11  1  0
 10 39  1  1
 11 12  1  0
 11 40  1  0
 11 41  1  0
 12 13  1  0
 12 42  1  6
 13 14  1  0
 13 15  1  0
 13 16  1  0
 14 43  1  0
 14 44  1  0
 14 45  1  0
 15 46  1  0
 15 47  1  0
 15 48  1  0
 16 17  1  0
 16 49  1  6
 17 18  1  0
 17 19  1  0
 17 50  1  1
 18 51  1  0
 19 20  1  0
 19 52  1  0
 19 53  1  0
 20 27  1  0
 20 21  1  1
 20 22  1  0
 21 54  1  0
 22 25  1  0
 22 23  1  0
 22 55  1  6
 23 24  1  0
 23 25  1  0
 23 56  1  1
 24 57  1  0
 25 26  1  0
 25 58  1  6
 26 27  1  0
 26 59  1  0
 26 60  1  0
 27 61  1  0
M  CHG  1  27   1
M  END
>  <i_m_ct_stereo_status>  (25) 
1

>  <s_m_source_file>  (25) 
/var/tmp/pbs.5076255.sched01/tmpvv81v907/0tx7qkblw.sdf

>  <i_m_source_file_index>  (25) 
12

>  <i_lp_mmshare_version>  (25) 
48012

>  <i_f3d_flags>  (25) 
0

>  <s_epik_input>  (25) 
W0NIXVwxPVtDSF1cQyg9W0NIMl0pW0NAQEhdKFtDSDJdW0NIMl0yKVtDQEhdKFtDSF0oQzMoW0NIM10pW0NIM10pW0NAQEhdKFtPSF0pW0NIMl00KVtDSDJdW0NASF0zW0NAQEhdMltDQEBIXTFONVtDSDJdW0NAQEhdKFtDQEBIXTZbT0hdKVtDQEBIXTZbQ0BdNDVbT0hd

>  <s_epik_cmdline>  (25) 
J2VwaWtfcHl0aG9uJywgJy1waHQnLCAnMi4wJywgJy1waCcsICc3LjAnLCAnLXRuJywgJzgnLCAnLW1hJywgJzIwMCcsICctaW1hZScsICc8aW5maWxlLm1hZT4nLCAnLW9tYWUnLCAnPG91dGZpbGUubWFlPic=

>  <r_epik_Ionization_Penalty>  (25) 
0.174465

>  <r_epik_Ionization_Penalty_Charging>  (25) 
0.172252

>  <r_epik_Ionization_Penalty_Neutral>  (25) 
0.00221273

>  <r_epik_State_Penalty>  (25) 
0.16281

>  <r_epik_Charging_Adjusted_Penalty>  (25) 
0.335063

>  <i_epik_Tot_Q>  (25) 
1

>  <i_epik_Tot_abs_Q>  (25) 
1

>  <s_lp_Force_Field>  (25) 
OPLS3e

>  <r_lp_Energy>  (25) 
154.288

>  <b_lp_Chiralities_Consistent>  (25) 
1

>  <s_lp_Variant>  (25) 
5:0-5

>  <s_i_glide_gridfile>  (25) 
pfpi4k_grid

>  <i_i_glide_lignum>  (25) 
12

>  <i_i_glide_rotatable_bonds>  (25) 
3

>  <r_i_docking_score>  (25) 
-4.45824

>  <r_i_glide_ligand_efficiency>  (25) 
-0.16512

>  <r_i_glide_ligand_efficiency_sa>  (25) 
-0.49536

>  <r_i_glide_ligand_efficiency_ln>  (25) 
-1.0378

>  <r_i_glide_gscore>  (25) 
-4.45824

>  <r_i_glide_lipo>  (25) 
-1.13484

>  <r_i_glide_hbond>  (25) 
-0.695486

>  <r_i_glide_metal>  (25) 
-0

>  <r_i_glide_rewards>  (25) 
-0.869175

>  <r_i_glide_evdw>  (25) 
10.4608

>  <r_i_glide_ecoul>  (25) 
-14.7791

>  <r_i_glide_erotb>  (25) 
0

>  <r_i_glide_esite>  (25) 
-0.0649143

>  <r_i_glide_emodel>  (25) 
-4.71958

>  <r_i_glide_energy>  (25) 
-4.31826

>  <r_i_glide_einternal>  (25) 
2.68739

>  <r_i_glide_intrahb_reward>  (25) 
-0

>  <i_i_glide_confnum>  (25) 
2

>  <i_i_glide_posenum>  (25) 
36

>  <r_i_glide_eff_state_penalty>  (25) 
0

>  <ligand_id>  (25) 
5

>  <original_smiles>  (25) 
C=C1C=CC2C3CCC1C1CC3C(C)(C)C1C(O)CC1(O)C3C(O)C3CN21

>  <smiles>  (25) 
[H]OC1([H])C([H])([H])C2(O[H])C3([H])C([H])(O[H])C3([H])C([H])([H])[N+]2([H])C2([H])C([H])=C([H])C(=C([H])[H])C3([H])C([H])([H])C([H])([H])C2([H])C2([H])C([H])([H])C3([H])C1([H])C2(C([H])([H])[H])C([H])([H])[H]

$$$$
5:4:2
     RDKit          3D

 61 66  0  0  1  0  0  0  0  0999 V2000
    2.9638   -2.9860    3.2604 C   0  0  0  0  0  0  0  0  0  0  0  0
    3.3234   -3.9089    2.3787 C   0  0  0  0  0  0  0  0  0  0  0  0
    2.4133   -4.1422    1.2834 C   0  0  0  0  0  0  0  0  0  0  0  0
    2.7954   -4.4115    0.0354 C   0  0  0  0  0  0  0  0  0  0  0  0
    4.1742   -4.4111   -0.6269 C   0  0  2  0  0  0  0  0  0  0  0  0
    5.2507   -5.4907   -0.0949 C   0  0  2  0  0  0  0  0  0  0  0  0
    4.5533   -6.6407    0.6704 C   0  0  0  0  0  0  0  0  0  0  0  0
    4.1052   -6.3258    2.1198 C   0  0  0  0  0  0  0  0  0  0  0  0
    4.4399   -4.8920    2.6830 C   0  0  1  0  0  0  0  0  0  0  0  0
    5.8936   -4.3191    2.4939 C   0  0  1  0  0  0  0  0  0  0  0  0
    6.7733   -5.4585    2.0287 C   0  0  0  0  0  0  0  0  0  0  0  0
    6.7287   -5.2378    0.5079 C   0  0  2  0  0  0  0  0  0  0  0  0
    7.2461   -3.7932    0.3875 C   0  0  0  0  0  0  0  0  0  0  0  0
    8.6917   -3.5939    0.8723 C   0  0  0  0  0  0  0  0  0  0  0  0
    7.3664   -3.4188   -1.0915 C   0  0  0  0  0  0  0  0  0  0  0  0
    6.1850   -3.2337    1.3951 C   0  0  2  0  0  0  0  0  0  0  0  0
    5.8155   -1.7543    1.4723 C   0  0  1  0  0  0  0  0  0  0  0  0
    6.8776   -1.0592    1.9071 O   0  0  0  0  0  0  0  0  0  0  0  0
    5.5055   -1.0935    0.1072 C   0  0  0  0  0  0  0  0  0  0  0  0
    4.3587   -1.6826   -0.7686 C   0  0  1  0  0  0  0  0  0  0  0  0
    3.1651   -1.6628   -0.0124 O   0  0  0  0  0  0  0  0  0  0  0  0
    4.1688   -0.8263   -1.9900 C   0  0  2  0  0  0  0  0  0  0  0  0
    3.0427   -1.0489   -2.9668 C   0  0  1  0  0  0  0  0  0  0  0  0
    2.8751    0.0870   -3.7786 O   0  0  0  0  0  0  0  0  0  0  0  0
    4.3865   -1.6473   -3.2242 C   0  0  2  0  0  0  0  0  0  0  0  0
    4.6914   -3.0515   -2.8244 C   0  0  0  0  0  0  0  0  0  0  0  0
    4.4287   -3.0906   -1.3433 N   0  0  1  0  0  0  0  0  0  0  0  0
    3.4887   -2.8421    4.1929 H   0  0  0  0  0  0  0  0  0  0  0  0
    2.0952   -2.3744    3.0770 H   0  0  0  0  0  0  0  0  0  0  0  0
    1.4196   -4.2024    1.5521 H   0  0  0  0  0  0  0  0  0  0  0  0
    2.0381   -4.6105   -0.6928 H   0  0  0  0  0  0  0  0  0  0  0  0
    3.9129   -4.9383   -1.5173 H   0  0  0  0  0  0  0  0  0  0  0  0
    5.4065   -5.9670   -1.0457 H   0  0  0  0  0  0  0  0  0  0  0  0
    3.7088   -7.0057    0.0943 H   0  0  0  0  0  0  0  0  0  0  0  0
    5.2060   -7.5105    0.6866 H   0  0  0  0  0  0  0  0  0  0  0  0
    3.0369   -6.5420    2.2043 H   0  0  0  0  0  0  0  0  0  0  0  0
    4.5351   -7.0821    2.7761 H   0  0  0  0  0  0  0  0  0  0  0  0
    4.3338   -5.0545    3.7656 H   0  0  0  0  0  0  0  0  0  0  0  0
    6.1955   -3.9335    3.4536 H   0  0  0  0  0  0  0  0  0  0  0  0
    7.7625   -5.3539    2.4396 H   0  0  0  0  0  0  0  0  0  0  0  0
    6.5154   -6.4542    2.3765 H   0  0  0  0  0  0  0  0  0  0  0  0
    7.4298   -5.9588    0.0855 H   0  0  0  0  0  0  0  0  0  0  0  0
    9.0535   -2.5967    0.5935 H   0  0  0  0  0  0  0  0  0  0  0  0
    9.3848   -4.3772    0.5505 H   0  0  0  0  0  0  0  0  0  0  0  0
    8.7444   -3.6823    1.9193 H   0  0  0  0  0  0  0  0  0  0  0  0
    8.3885   -3.5541   -1.4612 H   0  0  0  0  0  0  0  0  0  0  0  0
    7.1021   -2.4145   -1.4096 H   0  0  0  0  0  0  0  0  0  0  0  0
    6.7030   -4.0416   -1.6342 H   0  0  0  0  0  0  0  0  0  0  0  0
    5.2323   -3.2739    0.9916 H   0  0  0  0  0  0  0  0  0  0  0  0
    4.9824   -1.5907    2.1823 H   0  0  0  0  0  0  0  0  0  0  0  0
    7.1096   -1.3752    2.7933 H   0  0  0  0  0  0  0  0  0  0  0  0
    5.2253   -0.0718    0.3777 H   0  0  0  0  0  0  0  0  0  0  0  0
    6.4424   -0.8947   -0.4162 H   0  0  0  0  0  0  0  0  0  0  0  0
    2.4478   -1.2242   -0.4710 H   0  0  0  0  0  0  0  0  0  0  0  0
    4.6183    0.1590   -1.9754 H   0  0  0  0  0  0  0  0  0  0  0  0
    2.1910   -1.6862   -2.7091 H   0  0  0  0  0  0  0  0  0  0  0  0
    2.3807    0.7410   -3.2830 H   0  0  0  0  0  0  0  0  0  0  0  0
    4.9568   -1.2300   -4.0460 H   0  0  0  0  0  0  0  0  0  0  0  0
    4.0309   -3.7109   -3.3751 H   0  0  0  0  0  0  0  0  0  0  0  0
    5.7027   -3.2769   -3.1305 H   0  0  0  0  0  0  0  0  0  0  0  0
    3.4389   -3.0191   -1.5080 H   0  0  0  0  0  0  0  0  0  0  0  0
  1  2  2  0
  1 28  1  0
  1 29  1  0
  2  9  1  0
  2  3  1  0
  3  4  2  3
  3 30  1  0
  4  5  1  0
  4 31  1  0
  5 27  1  0
  5  6  1  0
  5 32  1  6
  6 12  1  0
  6  7  1  0
  6 33  1  6
  7  8  1  0
  7 34  1  0
  7 35  1  0
  8  9  1  0
  8 36  1  0
  8 37  1  0
  9 10  1  0
  9 38  1  1
 10 16  1  0
 10 11  1  0
 10 39  1  1
 11 12  1  0
 11 40  1  0
 11 41  1  0
 12 13  1  0
 12 42  1  6
 13 14  1  0
 13 15  1  0
 13 16  1  0
 14 43  1  0
 14 44  1  0
 14 45  1  0
 15 46  1  0
 15 47  1  0
 15 48  1  0
 16 17  1  0
 16 49  1  6
 17 18  1  0
 17 19  1  0
 17 50  1  1
 18 51  1  0
 19 20  1  0
 19 52  1  0
 19 53  1  0
 20 27  1  0
 20 21  1  1
 20 22  1  0
 21 54  1  0
 22 25  1  0
 22 23  1  0
 22 55  1  1
 23 24  1  0
 23 25  1  0
 23 56  1  1
 24 57  1  0
 25 26  1  0
 25 58  1  6
 26 27  1  0
 26 59  1  0
 26 60  1  0
 27 61  1  1
M  CHG  1  27   1
M  END
>  <i_m_ct_stereo_status>  (26) 
1

>  <s_m_source_file>  (26) 
/var/tmp/pbs.5076255.sched01/tmpvv81v907/0tx7qkblw.sdf

>  <i_m_source_file_index>  (26) 
12

>  <i_lp_mmshare_version>  (26) 
48012

>  <i_f3d_flags>  (26) 
0

>  <s_epik_input>  (26) 
W0NIXVwxPVtDSF1cQyg9W0NIMl0pW0NAQEhdKFtDSDJdW0NIMl0yKVtDQEhdKFtDSF0oQzMoW0NIM10pW0NIM10pW0NAQEhdKFtPSF0pW0NIMl00KVtDSDJdW0NASF0zW0NAQEhdMltDQEBIXTFONVtDSDJdW0NAQEhdKFtDQEBIXTZbT0hdKVtDQEBIXTZbQ0BdNDVbT0hd

>  <s_epik_cmdline>  (26) 
J2VwaWtfcHl0aG9uJywgJy1waHQnLCAnMi4wJywgJy1waCcsICc3LjAnLCAnLXRuJywgJzgnLCAnLW1hJywgJzIwMCcsICctaW1hZScsICc8aW5maWxlLm1hZT4nLCAnLW9tYWUnLCAnPG91dGZpbGUubWFlPic=

>  <r_epik_Ionization_Penalty>  (26) 
0.174465

>  <r_epik_Ionization_Penalty_Charging>  (26) 
0.172252

>  <r_epik_Ionization_Penalty_Neutral>  (26) 
0.00221273

>  <r_epik_State_Penalty>  (26) 
0.16281

>  <r_epik_Charging_Adjusted_Penalty>  (26) 
0.335063

>  <i_epik_Tot_Q>  (26) 
1

>  <i_epik_Tot_abs_Q>  (26) 
1

>  <s_lp_Force_Field>  (26) 
OPLS3e

>  <r_lp_Energy>  (26) 
154.288

>  <b_lp_Chiralities_Consistent>  (26) 
1

>  <s_lp_Variant>  (26) 
5:0-5

>  <s_i_glide_gridfile>  (26) 
pfpi4k_grid

>  <i_i_glide_lignum>  (26) 
12

>  <i_i_glide_rotatable_bonds>  (26) 
3

>  <r_i_docking_score>  (26) 
-4.03633

>  <r_i_glide_ligand_efficiency>  (26) 
-0.149494

>  <r_i_glide_ligand_efficiency_sa>  (26) 
-0.448481

>  <r_i_glide_ligand_efficiency_ln>  (26) 
-0.93959

>  <r_i_glide_gscore>  (26) 
-4.03633

>  <r_i_glide_lipo>  (26) 
-1.1478

>  <r_i_glide_hbond>  (26) 
-0.456

>  <r_i_glide_metal>  (26) 
-0

>  <r_i_glide_rewards>  (26) 
-0.869175

>  <r_i_glide_evdw>  (26) 
-0.894158

>  <r_i_glide_ecoul>  (26) 
-9.84801

>  <r_i_glide_erotb>  (26) 
0

>  <r_i_glide_esite>  (26) 
-0.0414373

>  <r_i_glide_emodel>  (26) 
-11.5862

>  <r_i_glide_energy>  (26) 
-10.7422

>  <r_i_glide_einternal>  (26) 
1.74572

>  <r_i_glide_intrahb_reward>  (26) 
-0

>  <i_i_glide_confnum>  (26) 
1

>  <i_i_glide_posenum>  (26) 
35

>  <r_i_glide_eff_state_penalty>  (26) 
0

>  <ligand_id>  (26) 
5

>  <original_smiles>  (26) 
C=C1C=CC2C3CCC1C1CC3C(C)(C)C1C(O)CC1(O)C3C(O)C3CN21

>  <smiles>  (26) 
[H]OC1([H])C([H])([H])C2(O[H])C3([H])C([H])(O[H])C3([H])C([H])([H])[N+]2([H])C2([H])C([H])=C([H])C(=C([H])[H])C3([H])C([H])([H])C([H])([H])C2([H])C2([H])C([H])([H])C3([H])C1([H])C2(C([H])([H])[H])C([H])([H])[H]

$$$$
5:5:0
     RDKit          3D

 61 66  0  0  1  0  0  0  0  0999 V2000
    2.7022   -3.0921    4.1675 C   0  0  0  0  0  0  0  0  0  0  0  0
    3.1130   -3.6201    3.0088 C   0  0  0  0  0  0  0  0  0  0  0  0
    2.6511   -3.0433    1.7879 C   0  0  0  0  0  0  0  0  0  0  0  0
    2.5168   -3.8265    0.7173 C   0  0  0  0  0  0  0  0  0  0  0  0
    3.5103   -4.0566   -0.3947 C   0  0  2  0  0  0  0  0  0  0  0  0
    4.6002   -5.2216   -0.1253 C   0  0  2  0  0  0  0  0  0  0  0  0
    3.9045   -6.3228    0.7648 C   0  0  0  0  0  0  0  0  0  0  0  0
    3.6439   -6.0235    2.2851 C   0  0  0  0  0  0  0  0  0  0  0  0
    4.1908   -4.6933    2.9351 C   0  0  1  0  0  0  0  0  0  0  0  0
    5.6348   -4.2072    2.5025 C   0  0  1  0  0  0  0  0  0  0  0  0
    6.3157   -5.4264    1.8798 C   0  0  0  0  0  0  0  0  0  0  0  0
    6.1336   -5.1112    0.3794 C   0  0  2  0  0  0  0  0  0  0  0  0
    6.8451   -3.7430    0.3168 C   0  0  0  0  0  0  0  0  0  0  0  0
    8.3362   -3.7570    0.7844 C   0  0  0  0  0  0  0  0  0  0  0  0
    6.9857   -3.1242   -1.0949 C   0  0  0  0  0  0  0  0  0  0  0  0
    5.9074   -3.1140    1.3846 C   0  0  2  0  0  0  0  0  0  0  0  0
    5.7213   -1.6033    1.4309 C   0  0  1  0  0  0  0  0  0  0  0  0
    6.9992   -1.0864    1.6627 O   0  0  0  0  0  0  0  0  0  0  0  0
    5.3675   -0.9994    0.0415 C   0  0  0  0  0  0  0  0  0  0  0  0
    4.1290   -1.4069   -0.8502 C   0  0  1  0  0  0  0  0  0  0  0  0
    3.0166   -0.9589   -0.1291 O   0  0  0  0  0  0  0  0  0  0  0  0
    4.2645   -0.6891   -2.1908 C   0  0  2  0  0  0  0  0  0  0  0  0
    3.2026   -0.6751   -3.2197 C   0  0  1  0  0  0  0  0  0  0  0  0
    3.3694    0.3538   -4.1501 O   0  0  0  0  0  0  0  0  0  0  0  0
    4.2230   -1.7247   -3.2783 C   0  0  2  0  0  0  0  0  0  0  0  0
    3.9668   -3.0748   -2.7133 C   0  0  0  0  0  0  0  0  0  0  0  0
    3.7337   -2.8249   -1.2531 N   0  0  1  0  0  0  0  0  0  0  0  0
    3.0775   -3.4535    5.1101 H   0  0  0  0  0  0  0  0  0  0  0  0
    1.9796   -2.2885    4.1970 H   0  0  0  0  0  0  0  0  0  0  0  0
    3.2099   -2.1519    1.6863 H   0  0  0  0  0  0  0  0  0  0  0  0
    1.9620   -4.7316    0.9104 H   0  0  0  0  0  0  0  0  0  0  0  0
    2.8234   -4.5553   -1.0526 H   0  0  0  0  0  0  0  0  0  0  0  0
    4.6949   -5.6795   -1.1072 H   0  0  0  0  0  0  0  0  0  0  0  0
    2.9662   -6.6199    0.3170 H   0  0  0  0  0  0  0  0  0  0  0  0
    4.4943   -7.2283    0.6909 H   0  0  0  0  0  0  0  0  0  0  0  0
    2.5781   -6.0970    2.4917 H   0  0  0  0  0  0  0  0  0  0  0  0
    4.0336   -6.8632    2.8578 H   0  0  0  0  0  0  0  0  0  0  0  0
    4.3298   -4.9839    3.9711 H   0  0  0  0  0  0  0  0  0  0  0  0
    6.1736   -3.9132    3.3997 H   0  0  0  0  0  0  0  0  0  0  0  0
    7.3485   -5.5088    2.1711 H   0  0  0  0  0  0  0  0  0  0  0  0
    6.0043   -6.4166    2.2100 H   0  0  0  0  0  0  0  0  0  0  0  0
    6.7033   -5.8625   -0.1509 H   0  0  0  0  0  0  0  0  0  0  0  0
    8.8361   -2.8227    0.5535 H   0  0  0  0  0  0  0  0  0  0  0  0
    8.9182   -4.5802    0.3608 H   0  0  0  0  0  0  0  0  0  0  0  0
    8.4434   -3.8750    1.8547 H   0  0  0  0  0  0  0  0  0  0  0  0
    7.7752   -2.3921   -1.2053 H   0  0  0  0  0  0  0  0  0  0  0  0
    6.0897   -2.7995   -1.5562 H   0  0  0  0  0  0  0  0  0  0  0  0
    7.3305   -3.8053   -1.8460 H   0  0  0  0  0  0  0  0  0  0  0  0
    4.9741   -3.1315    0.9546 H   0  0  0  0  0  0  0  0  0  0  0  0
    5.0100   -1.3127    2.2159 H   0  0  0  0  0  0  0  0  0  0  0  0
    6.9913   -0.1386    1.7503 H   0  0  0  0  0  0  0  0  0  0  0  0
    5.2407    0.0528    0.2701 H   0  0  0  0  0  0  0  0  0  0  0  0
    6.2957   -0.9304   -0.5451 H   0  0  0  0  0  0  0  0  0  0  0  0
    2.1357   -0.9518   -0.5698 H   0  0  0  0  0  0  0  0  0  0  0  0
    5.0330    0.0651   -2.2999 H   0  0  0  0  0  0  0  0  0  0  0  0
    2.2202   -0.9527   -2.8952 H   0  0  0  0  0  0  0  0  0  0  0  0
    2.8304    1.0758   -3.8493 H   0  0  0  0  0  0  0  0  0  0  0  0
    4.9030   -1.6590   -4.1106 H   0  0  0  0  0  0  0  0  0  0  0  0
    3.0856   -3.4835   -3.1795 H   0  0  0  0  0  0  0  0  0  0  0  0
    4.7945   -3.7458   -2.8928 H   0  0  0  0  0  0  0  0  0  0  0  0
    2.7667   -2.5793   -1.3461 H   0  0  0  0  0  0  0  0  0  0  0  0
  1  2  2  0
  1 28  1  0
  1 29  1  0
  2  9  1  0
  2  3  1  0
  3  4  2  3
  3 30  1  0
  4  5  1  0
  4 31  1  0
  5 27  1  0
  5  6  1  0
  5 32  1  6
  6 12  1  0
  6  7  1  0
  6 33  1  6
  7  8  1  0
  7 34  1  0
  7 35  1  0
  8  9  1  0
  8 36  1  0
  8 37  1  0
  9 10  1  0
  9 38  1  1
 10 16  1  0
 10 11  1  0
 10 39  1  1
 11 12  1  0
 11 40  1  0
 11 41  1  0
 12 13  1  0
 12 42  1  6
 13 14  1  0
 13 15  1  0
 13 16  1  0
 14 43  1  0
 14 44  1  0
 14 45  1  0
 15 46  1  0
 15 47  1  0
 15 48  1  0
 16 17  1  0
 16 49  1  6
 17 18  1  0
 17 19  1  0
 17 50  1  1
 18 51  1  0
 19 20  1  0
 19 52  1  0
 19 53  1  0
 20 27  1  0
 20 21  1  1
 20 22  1  0
 21 54  1  0
 22 25  1  0
 22 23  1  0
 22 55  1  1
 23 24  1  0
 23 25  1  0
 23 56  1  1
 24 57  1  0
 25 26  1  0
 25 58  1  6
 26 27  1  0
 26 59  1  0
 26 60  1  0
 27 61  1  6
M  CHG  1  27   1
M  END
>  <i_m_ct_stereo_status>  (27) 
1

>  <s_m_source_file>  (27) 
/var/tmp/pbs.5076255.sched01/tmpvv81v907/0tx7qkblw.sdf

>  <i_m_source_file_index>  (27) 
13

>  <i_lp_mmshare_version>  (27) 
48012

>  <i_f3d_flags>  (27) 
0

>  <s_epik_input>  (27) 
W0NIXVwxPVtDSF1cQyg9W0NIMl0pW0NAQEhdKFtDSDJdW0NIMl0yKVtDQEhdKFtDSF0oQzMoW0NIM10pW0NIM10pW0NAQEhdKFtPSF0pW0NIMl00KVtDSDJdW0NASF0zW0NAQEhdMltDQEBIXTFONVtDSDJdW0NAQEhdKFtDQEBIXTZbT0hdKVtDQEBIXTZbQ0BdNDVbT0hd

>  <s_epik_cmdline>  (27) 
J2VwaWtfcHl0aG9uJywgJy1waHQnLCAnMi4wJywgJy1waCcsICc3LjAnLCAnLXRuJywgJzgnLCAnLW1hJywgJzIwMCcsICctaW1hZScsICc8aW5maWxlLm1hZT4nLCAnLW9tYWUnLCAnPG91dGZpbGUubWFlPic=

>  <r_epik_Ionization_Penalty>  (27) 
0.174465

>  <r_epik_Ionization_Penalty_Charging>  (27) 
0.172252

>  <r_epik_Ionization_Penalty_Neutral>  (27) 
0.00221273

>  <r_epik_State_Penalty>  (27) 
0.16281

>  <r_epik_Charging_Adjusted_Penalty>  (27) 
0.335063

>  <i_epik_Tot_Q>  (27) 
1

>  <i_epik_Tot_abs_Q>  (27) 
1

>  <s_lp_Force_Field>  (27) 
OPLS3e

>  <r_lp_Energy>  (27) 
188.054

>  <b_lp_Chiralities_Consistent>  (27) 
1

>  <s_lp_Variant>  (27) 
5:0-6

>  <s_i_glide_gridfile>  (27) 
pfpi4k_grid

>  <i_i_glide_lignum>  (27) 
13

>  <i_i_glide_rotatable_bonds>  (27) 
3

>  <r_i_docking_score>  (27) 
-5.57064

>  <r_i_glide_ligand_efficiency>  (27) 
-0.20632

>  <r_i_glide_ligand_efficiency_sa>  (27) 
-0.61896

>  <r_i_glide_ligand_efficiency_ln>  (27) 
-1.29675

>  <r_i_glide_gscore>  (27) 
-5.57064

>  <r_i_glide_lipo>  (27) 
-1.06661

>  <r_i_glide_hbond>  (27) 
-0.67115

>  <r_i_glide_metal>  (27) 
-0

>  <r_i_glide_rewards>  (27) 
-0.869175

>  <r_i_glide_evdw>  (27) 
-12.8664

>  <r_i_glide_ecoul>  (27) 
-16.075

>  <r_i_glide_erotb>  (27) 
0

>  <r_i_glide_esite>  (27) 
-0.0636977

>  <r_i_glide_emodel>  (27) 
-37.3781

>  <r_i_glide_energy>  (27) 
-28.9414

>  <r_i_glide_einternal>  (27) 
1.80624

>  <r_i_glide_intrahb_reward>  (27) 
-0

>  <i_i_glide_confnum>  (27) 
2

>  <i_i_glide_posenum>  (27) 
31

>  <r_i_glide_eff_state_penalty>  (27) 
0

>  <ligand_id>  (27) 
5

>  <original_smiles>  (27) 
C=C1C=CC2C3CCC1C1CC3C(C)(C)C1C(O)CC1(O)C3C(O)C3CN21

>  <smiles>  (27) 
[H]OC1([H])C([H])([H])C2(O[H])C3([H])C([H])(O[H])C3([H])C([H])([H])[N+]2([H])C2([H])C([H])=C([H])C(=C([H])[H])C3([H])C([H])([H])C([H])([H])C2([H])C2([H])C([H])([H])C3([H])C1([H])C2(C([H])([H])[H])C([H])([H])[H]

$$$$
5:5:1
     RDKit          3D

 61 66  0  0  1  0  0  0  0  0999 V2000
    5.4798   -0.3026    4.1061 C   0  0  0  0  0  0  0  0  0  0  0  0
    4.7174   -1.1709    3.4383 C   0  0  0  0  0  0  0  0  0  0  0  0
    4.2685   -0.8300    2.1097 C   0  0  0  0  0  0  0  0  0  0  0  0
    3.0636   -1.2523    1.7174 C   0  0  0  0  0  0  0  0  0  0  0  0
    2.8388   -2.5331    0.9032 C   0  0  2  0  0  0  0  0  0  0  0  0
    2.6383   -3.9080    1.7970 C   0  0  2  0  0  0  0  0  0  0  0  0
    1.9916   -3.5229    3.1634 C   0  0  0  0  0  0  0  0  0  0  0  0
    2.8832   -2.7871    4.2381 C   0  0  0  0  0  0  0  0  0  0  0  0
    4.4212   -2.5815    3.9744 C   0  0  1  0  0  0  0  0  0  0  0  0
    5.2350   -3.7834    3.3173 C   0  0  1  0  0  0  0  0  0  0  0  0
    4.3497   -5.0237    3.4927 C   0  0  0  0  0  0  0  0  0  0  0  0
    3.6895   -5.1214    2.1019 C   0  0  2  0  0  0  0  0  0  0  0  0
    4.9725   -5.2217    1.2431 C   0  0  0  0  0  0  0  0  0  0  0  0
    5.9632   -6.3722    1.5932 C   0  0  0  0  0  0  0  0  0  0  0  0
    4.6081   -5.5265   -0.2178 C   0  0  0  0  0  0  0  0  0  0  0  0
    5.5349   -3.8686    1.7500 C   0  0  2  0  0  0  0  0  0  0  0  0
    6.6044   -3.1246    0.9463 C   0  0  1  0  0  0  0  0  0  0  0  0
    7.8071   -3.8651    0.9524 O   0  0  0  0  0  0  0  0  0  0  0  0
    6.1441   -2.8994   -0.5387 C   0  0  0  0  0  0  0  0  0  0  0  0
    4.7899   -2.1666   -1.0082 C   0  0  1  0  0  0  0  0  0  0  0  0
    4.9426   -0.7637   -0.8394 O   0  0  0  0  0  0  0  0  0  0  0  0
    4.6473   -2.3287   -2.5128 C   0  0  2  0  0  0  0  0  0  0  0  0
    3.5887   -1.5979   -3.3190 C   0  0  1  0  0  0  0  0  0  0  0  0
    3.8137   -1.5720   -4.7164 O   0  0  0  0  0  0  0  0  0  0  0  0
    3.3266   -2.9940   -2.8111 C   0  0  2  0  0  0  0  0  0  0  0  0
    2.5686   -3.1696   -1.5313 C   0  0  0  0  0  0  0  0  0  0  0  0
    3.3649   -2.4743   -0.5058 N   0  0  1  0  0  0  0  0  0  0  0  0
    5.8926   -0.5418    5.0782 H   0  0  0  0  0  0  0  0  0  0  0  0
    5.7300    0.6623    3.6888 H   0  0  0  0  0  0  0  0  0  0  0  0
    5.0883   -1.0064    1.4526 H   0  0  0  0  0  0  0  0  0  0  0  0
    2.2658   -1.0900    2.4176 H   0  0  0  0  0  0  0  0  0  0  0  0
    1.7883   -2.3251    0.6955 H   0  0  0  0  0  0  0  0  0  0  0  0
    1.8558   -4.4338    1.2444 H   0  0  0  0  0  0  0  0  0  0  0  0
    1.0887   -2.9259    2.9950 H   0  0  0  0  0  0  0  0  0  0  0  0
    1.5921   -4.4334    3.6233 H   0  0  0  0  0  0  0  0  0  0  0  0
    2.4300   -1.8250    4.4827 H   0  0  0  0  0  0  0  0  0  0  0  0
    2.7646   -3.3250    5.1824 H   0  0  0  0  0  0  0  0  0  0  0  0
    4.8234   -2.5536    4.9914 H   0  0  0  0  0  0  0  0  0  0  0  0
    6.1509   -3.9478    3.8683 H   0  0  0  0  0  0  0  0  0  0  0  0
    4.9472   -5.8976    3.7363 H   0  0  0  0  0  0  0  0  0  0  0  0
    3.6770   -5.0537    4.3371 H   0  0  0  0  0  0  0  0  0  0  0  0
    3.1468   -6.0657    2.0538 H   0  0  0  0  0  0  0  0  0  0  0  0
    6.7108   -6.5191    0.8050 H   0  0  0  0  0  0  0  0  0  0  0  0
    5.4483   -7.3201    1.7247 H   0  0  0  0  0  0  0  0  0  0  0  0
    6.5725   -6.1773    2.4744 H   0  0  0  0  0  0  0  0  0  0  0  0
    5.4546   -5.8965   -0.7867 H   0  0  0  0  0  0  0  0  0  0  0  0
    4.2823   -4.6995   -0.7870 H   0  0  0  0  0  0  0  0  0  0  0  0
    3.8350   -6.2924   -0.2899 H   0  0  0  0  0  0  0  0  0  0  0  0
    4.8824   -3.1413    1.4424 H   0  0  0  0  0  0  0  0  0  0  0  0
    6.8300   -2.1717    1.4210 H   0  0  0  0  0  0  0  0  0  0  0  0
    8.0678   -4.0008    1.8474 H   0  0  0  0  0  0  0  0  0  0  0  0
    6.9428   -2.2966   -0.9670 H   0  0  0  0  0  0  0  0  0  0  0  0
    6.2736   -3.8279   -1.0790 H   0  0  0  0  0  0  0  0  0  0  0  0
    4.1332   -0.3097   -0.7610 H   0  0  0  0  0  0  0  0  0  0  0  0
    5.5169   -2.6928   -3.0648 H   0  0  0  0  0  0  0  0  0  0  0  0
    3.0513   -0.7522   -2.9011 H   0  0  0  0  0  0  0  0  0  0  0  0
    2.9723   -1.4076   -5.1433 H   0  0  0  0  0  0  0  0  0  0  0  0
    3.2917   -3.8099   -3.5351 H   0  0  0  0  0  0  0  0  0  0  0  0
    1.5989   -2.6982   -1.7029 H   0  0  0  0  0  0  0  0  0  0  0  0
    2.3607   -4.2269   -1.3284 H   0  0  0  0  0  0  0  0  0  0  0  0
    2.9374   -1.5786   -0.7053 H   0  0  0  0  0  0  0  0  0  0  0  0
  1  2  2  0
  1 28  1  0
  1 29  1  0
  2  9  1  0
  2  3  1  0
  3  4  2  3
  3 30  1  0
  4  5  1  0
  4 31  1  0
  5 27  1  0
  5  6  1  0
  5 32  1  6
  6 12  1  0
  6  7  1  0
  6 33  1  6
  7  8  1  0
  7 34  1  0
  7 35  1  0
  8  9  1  0
  8 36  1  0
  8 37  1  0
  9 10  1  0
  9 38  1  1
 10 16  1  0
 10 11  1  0
 10 39  1  1
 11 12  1  0
 11 40  1  0
 11 41  1  0
 12 13  1  0
 12 42  1  1
 13 14  1  0
 13 15  1  0
 13 16  1  0
 14 43  1  0
 14 44  1  0
 14 45  1  0
 15 46  1  0
 15 47  1  0
 15 48  1  0
 16 17  1  0
 16 49  1  6
 17 18  1  0
 17 19  1  0
 17 50  1  1
 18 51  1  0
 19 20  1  0
 19 52  1  0
 19 53  1  0
 20 27  1  0
 20 21  1  6
 20 22  1  0
 21 54  1  0
 22 25  1  0
 22 23  1  0
 22 55  1  6
 23 24  1  0
 23 25  1  0
 23 56  1  1
 24 57  1  0
 25 26  1  0
 25 58  1  6
 26 27  1  0
 26 59  1  0
 26 60  1  0
 27 61  1  6
M  CHG  1  27   1
M  END
>  <i_m_ct_stereo_status>  (28) 
1

>  <s_m_source_file>  (28) 
/var/tmp/pbs.5076255.sched01/tmpvv81v907/0tx7qkblw.sdf

>  <i_m_source_file_index>  (28) 
13

>  <i_lp_mmshare_version>  (28) 
48012

>  <i_f3d_flags>  (28) 
0

>  <s_epik_input>  (28) 
W0NIXVwxPVtDSF1cQyg9W0NIMl0pW0NAQEhdKFtDSDJdW0NIMl0yKVtDQEhdKFtDSF0oQzMoW0NIM10pW0NIM10pW0NAQEhdKFtPSF0pW0NIMl00KVtDSDJdW0NASF0zW0NAQEhdMltDQEBIXTFONVtDSDJdW0NAQEhdKFtDQEBIXTZbT0hdKVtDQEBIXTZbQ0BdNDVbT0hd

>  <s_epik_cmdline>  (28) 
J2VwaWtfcHl0aG9uJywgJy1waHQnLCAnMi4wJywgJy1waCcsICc3LjAnLCAnLXRuJywgJzgnLCAnLW1hJywgJzIwMCcsICctaW1hZScsICc8aW5maWxlLm1hZT4nLCAnLW9tYWUnLCAnPG91dGZpbGUubWFlPic=

>  <r_epik_Ionization_Penalty>  (28) 
0.174465

>  <r_epik_Ionization_Penalty_Charging>  (28) 
0.172252

>  <r_epik_Ionization_Penalty_Neutral>  (28) 
0.00221273

>  <r_epik_State_Penalty>  (28) 
0.16281

>  <r_epik_Charging_Adjusted_Penalty>  (28) 
0.335063

>  <i_epik_Tot_Q>  (28) 
1

>  <i_epik_Tot_abs_Q>  (28) 
1

>  <s_lp_Force_Field>  (28) 
OPLS3e

>  <r_lp_Energy>  (28) 
188.054

>  <b_lp_Chiralities_Consistent>  (28) 
1

>  <s_lp_Variant>  (28) 
5:0-6

>  <s_i_glide_gridfile>  (28) 
pfpi4k_grid

>  <i_i_glide_lignum>  (28) 
13

>  <i_i_glide_rotatable_bonds>  (28) 
3

>  <r_i_docking_score>  (28) 
-5.28358

>  <r_i_glide_ligand_efficiency>  (28) 
-0.195688

>  <r_i_glide_ligand_efficiency_sa>  (28) 
-0.587064

>  <r_i_glide_ligand_efficiency_ln>  (28) 
-1.22993

>  <r_i_glide_gscore>  (28) 
-5.28358

>  <r_i_glide_lipo>  (28) 
-0.81491

>  <r_i_glide_hbond>  (28) 
-0.595413

>  <r_i_glide_metal>  (28) 
-0

>  <r_i_glide_rewards>  (28) 
-0.869175

>  <r_i_glide_evdw>  (28) 
-24.5936

>  <r_i_glide_ecoul>  (28) 
-11.3178

>  <r_i_glide_erotb>  (28) 
0

>  <r_i_glide_esite>  (28) 
-0.0767365

>  <r_i_glide_emodel>  (28) 
-47.3428

>  <r_i_glide_energy>  (28) 
-35.9113

>  <r_i_glide_einternal>  (28) 
1.41572

>  <r_i_glide_intrahb_reward>  (28) 
-0

>  <i_i_glide_confnum>  (28) 
2

>  <i_i_glide_posenum>  (28) 
40

>  <r_i_glide_eff_state_penalty>  (28) 
0

>  <ligand_id>  (28) 
5

>  <original_smiles>  (28) 
C=C1C=CC2C3CCC1C1CC3C(C)(C)C1C(O)CC1(O)C3C(O)C3CN21

>  <smiles>  (28) 
[H]OC1([H])C([H])([H])C2(O[H])C3([H])C([H])(O[H])C3([H])C([H])([H])[N+]2([H])C2([H])C([H])=C([H])C(=C([H])[H])C3([H])C([H])([H])C([H])([H])C2([H])C2([H])C([H])([H])C3([H])C1([H])C2(C([H])([H])[H])C([H])([H])[H]

$$$$
5:5:2
     RDKit          3D

 61 66  0  0  1  0  0  0  0  0999 V2000
    5.4092   -0.3202    4.0854 C   0  0  0  0  0  0  0  0  0  0  0  0
    4.6489   -1.2064    3.4153 C   0  0  0  0  0  0  0  0  0  0  0  0
    4.1683   -0.8560    2.1090 C   0  0  0  0  0  0  0  0  0  0  0  0
    2.9654   -1.3175    1.7287 C   0  0  0  0  0  0  0  0  0  0  0  0
    2.7663   -2.5954    0.9039 C   0  0  2  0  0  0  0  0  0  0  0  0
    2.6317   -3.9872    1.7799 C   0  0  2  0  0  0  0  0  0  0  0  0
    1.9946   -3.6413    3.1654 C   0  0  0  0  0  0  0  0  0  0  0  0
    2.8821   -2.8881    4.2303 C   0  0  0  0  0  0  0  0  0  0  0  0
    4.4126   -2.6271    3.9424 C   0  0  1  0  0  0  0  0  0  0  0  0
    5.2492   -3.7944    3.2532 C   0  0  1  0  0  0  0  0  0  0  0  0
    4.4120   -5.0644    3.4303 C   0  0  0  0  0  0  0  0  0  0  0  0
    3.7281   -5.1663    2.0509 C   0  0  2  0  0  0  0  0  0  0  0  0
    4.9974   -5.2118    1.1721 C   0  0  0  0  0  0  0  0  0  0  0  0
    6.0365   -6.3312    1.4833 C   0  0  0  0  0  0  0  0  0  0  0  0
    4.6128   -5.5180   -0.2819 C   0  0  0  0  0  0  0  0  0  0  0  0
    5.5258   -3.8489    1.6844 C   0  0  2  0  0  0  0  0  0  0  0  0
    6.5572   -3.0628    0.8700 C   0  0  1  0  0  0  0  0  0  0  0  0
    7.7831   -3.7626    0.8291 O   0  0  0  0  0  0  0  0  0  0  0  0
    6.0542   -2.8305   -0.6013 C   0  0  0  0  0  0  0  0  0  0  0  0
    4.6688   -2.1376   -1.0356 C   0  0  1  0  0  0  0  0  0  0  0  0
    4.7782   -0.7331   -0.8467 O   0  0  0  0  0  0  0  0  0  0  0  0
    4.5081   -2.2879   -2.5376 C   0  0  2  0  0  0  0  0  0  0  0  0
    3.4151   -1.5864   -3.3220 C   0  0  1  0  0  0  0  0  0  0  0  0
    3.6525   -1.5259   -4.7111 O   0  0  0  0  0  0  0  0  0  0  0  0
    3.2039   -2.9952   -2.8253 C   0  0  2  0  0  0  0  0  0  0  0  0
    2.4733   -3.2135   -1.5373 C   0  0  0  0  0  0  0  0  0  0  0  0
    3.2615   -2.5034   -0.5137 N   0  0  1  0  0  0  0  0  0  0  0  0
    5.8390   -0.5583    5.0463 H   0  0  0  0  0  0  0  0  0  0  0  0
    5.6086    0.6568    3.6771 H   0  0  0  0  0  0  0  0  0  0  0  0
    4.9786   -0.9993    1.4310 H   0  0  0  0  0  0  0  0  0  0  0  0
    2.1761   -1.1924    2.4437 H   0  0  0  0  0  0  0  0  0  0  0  0
    1.7078   -2.4176    0.7204 H   0  0  0  0  0  0  0  0  0  0  0  0
    1.8566   -4.5329    1.2338 H   0  0  0  0  0  0  0  0  0  0  0  0
    1.0725   -3.0718    3.0166 H   0  0  0  0  0  0  0  0  0  0  0  0
    1.6386   -4.5702    3.6184 H   0  0  0  0  0  0  0  0  0  0  0  0
    2.4013   -1.9432    4.4965 H   0  0  0  0  0  0  0  0  0  0  0  0
    2.7988   -3.4406    5.1701 H   0  0  0  0  0  0  0  0  0  0  0  0
    4.8268   -2.5972    4.9512 H   0  0  0  0  0  0  0  0  0  0  0  0
    6.1809   -3.9350    3.7911 H   0  0  0  0  0  0  0  0  0  0  0  0
    5.0423   -5.9218    3.6535 H   0  0  0  0  0  0  0  0  0  0  0  0
    3.7521   -5.1273    4.2882 H   0  0  0  0  0  0  0  0  0  0  0  0
    3.2164   -6.1306    2.0017 H   0  0  0  0  0  0  0  0  0  0  0  0
    6.7711   -6.4403    0.6823 H   0  0  0  0  0  0  0  0  0  0  0  0
    5.5540   -7.3005    1.6140 H   0  0  0  0  0  0  0  0  0  0  0  0
    6.6524   -6.1254    2.3586 H   0  0  0  0  0  0  0  0  0  0  0  0
    5.4460   -5.8566   -0.8836 H   0  0  0  0  0  0  0  0  0  0  0  0
    4.2481   -4.6956   -0.8394 H   0  0  0  0  0  0  0  0  0  0  0  0
    3.8608   -6.3055   -0.3223 H   0  0  0  0  0  0  0  0  0  0  0  0
    4.8430   -3.1376    1.3984 H   0  0  0  0  0  0  0  0  0  0  0  0
    6.7590   -2.1071    1.3557 H   0  0  0  0  0  0  0  0  0  0  0  0
    8.4357   -3.2102    0.4507 H   0  0  0  0  0  0  0  0  0  0  0  0
    6.8231   -2.1974   -1.0442 H   0  0  0  0  0  0  0  0  0  0  0  0
    6.1978   -3.7507   -1.1565 H   0  0  0  0  0  0  0  0  0  0  0  0
    3.9544   -0.3106   -0.7412 H   0  0  0  0  0  0  0  0  0  0  0  0
    5.3788   -2.6133   -3.1060 H   0  0  0  0  0  0  0  0  0  0  0  0
    2.8505   -0.7633   -2.8932 H   0  0  0  0  0  0  0  0  0  0  0  0
    2.8123   -1.4598   -5.1576 H   0  0  0  0  0  0  0  0  0  0  0  0
    3.1858   -3.8063   -3.5588 H   0  0  0  0  0  0  0  0  0  0  0  0
    1.4745   -2.7908   -1.6841 H   0  0  0  0  0  0  0  0  0  0  0  0
    2.3092   -4.2749   -1.3405 H   0  0  0  0  0  0  0  0  0  0  0  0
    2.8048   -1.6192   -0.6978 H   0  0  0  0  0  0  0  0  0  0  0  0
  1  2  2  0
  1 28  1  0
  1 29  1  0
  2  9  1  0
  2  3  1  0
  3  4  2  3
  3 30  1  0
  4  5  1  0
  4 31  1  0
  5 27  1  0
  5  6  1  0
  5 32  1  6
  6 12  1  0
  6  7  1  0
  6 33  1  6
  7  8  1  0
  7 34  1  0
  7 35  1  0
  8  9  1  0
  8 36  1  0
  8 37  1  0
  9 10  1  0
  9 38  1  1
 10 16  1  0
 10 11  1  0
 10 39  1  1
 11 12  1  0
 11 40  1  0
 11 41  1  0
 12 13  1  0
 12 42  1  1
 13 14  1  0
 13 15  1  0
 13 16  1  0
 14 43  1  0
 14 44  1  0
 14 45  1  0
 15 46  1  0
 15 47  1  0
 15 48  1  0
 16 17  1  0
 16 49  1  6
 17 18  1  0
 17 19  1  0
 17 50  1  1
 18 51  1  0
 19 20  1  0
 19 52  1  0
 19 53  1  0
 20 27  1  0
 20 21  1  6
 20 22  1  0
 21 54  1  0
 22 25  1  0
 22 23  1  0
 22 55  1  6
 23 24  1  0
 23 25  1  0
 23 56  1  1
 24 57  1  0
 25 26  1  0
 25 58  1  6
 26 27  1  0
 26 59  1  0
 26 60  1  0
 27 61  1  6
M  CHG  1  27   1
M  END
>  <i_m_ct_stereo_status>  (29) 
1

>  <s_m_source_file>  (29) 
/var/tmp/pbs.5076255.sched01/tmpvv81v907/0tx7qkblw.sdf

>  <i_m_source_file_index>  (29) 
13

>  <i_lp_mmshare_version>  (29) 
48012

>  <i_f3d_flags>  (29) 
0

>  <s_epik_input>  (29) 
W0NIXVwxPVtDSF1cQyg9W0NIMl0pW0NAQEhdKFtDSDJdW0NIMl0yKVtDQEhdKFtDSF0oQzMoW0NIM10pW0NIM10pW0NAQEhdKFtPSF0pW0NIMl00KVtDSDJdW0NASF0zW0NAQEhdMltDQEBIXTFONVtDSDJdW0NAQEhdKFtDQEBIXTZbT0hdKVtDQEBIXTZbQ0BdNDVbT0hd

>  <s_epik_cmdline>  (29) 
J2VwaWtfcHl0aG9uJywgJy1waHQnLCAnMi4wJywgJy1waCcsICc3LjAnLCAnLXRuJywgJzgnLCAnLW1hJywgJzIwMCcsICctaW1hZScsICc8aW5maWxlLm1hZT4nLCAnLW9tYWUnLCAnPG91dGZpbGUubWFlPic=

>  <r_epik_Ionization_Penalty>  (29) 
0.174465

>  <r_epik_Ionization_Penalty_Charging>  (29) 
0.172252

>  <r_epik_Ionization_Penalty_Neutral>  (29) 
0.00221273

>  <r_epik_State_Penalty>  (29) 
0.16281

>  <r_epik_Charging_Adjusted_Penalty>  (29) 
0.335063

>  <i_epik_Tot_Q>  (29) 
1

>  <i_epik_Tot_abs_Q>  (29) 
1

>  <s_lp_Force_Field>  (29) 
OPLS3e

>  <r_lp_Energy>  (29) 
188.054

>  <b_lp_Chiralities_Consistent>  (29) 
1

>  <s_lp_Variant>  (29) 
5:0-6

>  <s_i_glide_gridfile>  (29) 
pfpi4k_grid

>  <i_i_glide_lignum>  (29) 
13

>  <i_i_glide_rotatable_bonds>  (29) 
3

>  <r_i_docking_score>  (29) 
-5.23881

>  <r_i_glide_ligand_efficiency>  (29) 
-0.19403

>  <r_i_glide_ligand_efficiency_sa>  (29) 
-0.58209

>  <r_i_glide_ligand_efficiency_ln>  (29) 
-1.21951

>  <r_i_glide_gscore>  (29) 
-5.23881

>  <r_i_glide_lipo>  (29) 
-0.804658

>  <r_i_glide_hbond>  (29) 
-0.662257

>  <r_i_glide_metal>  (29) 
-0

>  <r_i_glide_rewards>  (29) 
-0.869175

>  <r_i_glide_evdw>  (29) 
-24.2368

>  <r_i_glide_ecoul>  (29) 
-10.7304

>  <r_i_glide_erotb>  (29) 
0

>  <r_i_glide_esite>  (29) 
-0.0813224

>  <r_i_glide_emodel>  (29) 
-46.2209

>  <r_i_glide_energy>  (29) 
-34.9672

>  <r_i_glide_einternal>  (29) 
1.42136

>  <r_i_glide_intrahb_reward>  (29) 
-0

>  <i_i_glide_confnum>  (29) 
1

>  <i_i_glide_posenum>  (29) 
3

>  <r_i_glide_eff_state_penalty>  (29) 
0

>  <ligand_id>  (29) 
5

>  <original_smiles>  (29) 
C=C1C=CC2C3CCC1C1CC3C(C)(C)C1C(O)CC1(O)C3C(O)C3CN21

>  <smiles>  (29) 
[H]OC1([H])C([H])([H])C2(O[H])C3([H])C([H])(O[H])C3([H])C([H])([H])[N+]2([H])C2([H])C([H])=C([H])C(=C([H])[H])C3([H])C([H])([H])C([H])([H])C2([H])C2([H])C([H])([H])C3([H])C1([H])C2(C([H])([H])[H])C([H])([H])[H]

$$$$
5:6:0
     RDKit          3D

 61 66  0  0  1  0  0  0  0  0999 V2000
    4.5258   -2.0322    4.8859 C   0  0  0  0  0  0  0  0  0  0  0  0
    3.8993   -2.8931    4.0715 C   0  0  0  0  0  0  0  0  0  0  0  0
    2.6442   -2.4968    3.4905 C   0  0  0  0  0  0  0  0  0  0  0  0
    2.1858   -2.8883    2.2902 C   0  0  0  0  0  0  0  0  0  0  0  0
    2.8601   -3.6421    1.1435 C   0  0  2  0  0  0  0  0  0  0  0  0
    3.4314   -5.1435    1.2667 C   0  0  2  0  0  0  0  0  0  0  0  0
    2.6938   -5.8105    2.4648 C   0  0  0  0  0  0  0  0  0  0  0  0
    3.1267   -5.3297    3.8823 C   0  0  0  0  0  0  0  0  0  0  0  0
    4.3376   -4.3309    3.9796 C   0  0  1  0  0  0  0  0  0  0  0  0
    5.6366   -4.6188    3.1577 C   0  0  1  0  0  0  0  0  0  0  0  0
    5.4965   -6.0267    2.6042 C   0  0  0  0  0  0  0  0  0  0  0  0
    4.9413   -5.7010    1.2081 C   0  0  2  0  0  0  0  0  0  0  0  0
    6.0962   -4.8141    0.6944 C   0  0  0  0  0  0  0  0  0  0  0  0
    7.4642   -5.5839    0.5537 C   0  0  0  0  0  0  0  0  0  0  0  0
    5.8784   -4.2447   -0.6994 C   0  0  0  0  0  0  0  0  0  0  0  0
    6.1758   -3.8225    1.8668 C   0  0  1  0  0  0  0  0  0  0  0  0
    6.1795   -2.2644    1.6059 C   0  0  1  0  0  0  0  0  0  0  0  0
    7.1730   -1.8844    0.6697 O   0  0  0  0  0  0  0  0  0  0  0  0
    4.9458   -1.3837    1.3273 C   0  0  0  0  0  0  0  0  0  0  0  0
    3.9489   -1.5061    0.1383 C   0  0  1  0  0  0  0  0  0  0  0  0
    3.0090   -0.5391    0.5164 O   0  0  0  0  0  0  0  0  0  0  0  0
    4.3917   -1.1374   -1.2695 C   0  0  2  0  0  0  0  0  0  0  0  0
    3.4104   -0.7987   -2.3784 C   0  0  1  0  0  0  0  0  0  0  0  0
    4.0102   -0.0956   -3.4322 O   0  0  0  0  0  0  0  0  0  0  0  0
    3.8506   -2.2113   -2.1985 C   0  0  2  0  0  0  0  0  0  0  0  0
    3.0118   -3.1891   -1.3965 C   0  0  0  0  0  0  0  0  0  0  0  0
    3.0715   -2.6987    0.0061 N   0  0  1  0  0  0  0  0  0  0  0  0
    5.4206   -2.3165    5.4192 H   0  0  0  0  0  0  0  0  0  0  0  0
    4.1524   -1.0259    5.0233 H   0  0  0  0  0  0  0  0  0  0  0  0
    1.9732   -1.9092    4.0994 H   0  0  0  0  0  0  0  0  0  0  0  0
    1.2061   -2.4991    2.0711 H   0  0  0  0  0  0  0  0  0  0  0  0
    1.9023   -3.9960    0.7641 H   0  0  0  0  0  0  0  0  0  0  0  0
    3.0104   -5.6366    0.3892 H   0  0  0  0  0  0  0  0  0  0  0  0
    1.6143   -5.6875    2.3669 H   0  0  0  0  0  0  0  0  0  0  0  0
    2.8380   -6.8925    2.3992 H   0  0  0  0  0  0  0  0  0  0  0  0
    2.2555   -4.9304    4.4065 H   0  0  0  0  0  0  0  0  0  0  0  0
    3.3545   -6.2156    4.4793 H   0  0  0  0  0  0  0  0  0  0  0  0
    4.6487   -4.5169    5.0065 H   0  0  0  0  0  0  0  0  0  0  0  0
    6.4340   -4.6604    3.8959 H   0  0  0  0  0  0  0  0  0  0  0  0
    6.4551   -6.5242    2.5953 H   0  0  0  0  0  0  0  0  0  0  0  0
    4.9452   -6.7547    3.1913 H   0  0  0  0  0  0  0  0  0  0  0  0
    4.9254   -6.6306    0.6346 H   0  0  0  0  0  0  0  0  0  0  0  0
    8.2041   -5.0101   -0.0058 H   0  0  0  0  0  0  0  0  0  0  0  0
    7.3262   -6.5473    0.0897 H   0  0  0  0  0  0  0  0  0  0  0  0
    7.9823   -5.8303    1.4837 H   0  0  0  0  0  0  0  0  0  0  0  0
    6.7976   -3.8939   -1.1644 H   0  0  0  0  0  0  0  0  0  0  0  0
    5.3454   -3.3414   -0.6258 H   0  0  0  0  0  0  0  0  0  0  0  0
    5.3851   -4.9531   -1.3659 H   0  0  0  0  0  0  0  0  0  0  0  0
    7.2419   -3.8736    2.0619 H   0  0  0  0  0  0  0  0  0  0  0  0
    6.5589   -1.8519    2.5344 H   0  0  0  0  0  0  0  0  0  0  0  0
    7.4867   -1.0164    0.9138 H   0  0  0  0  0  0  0  0  0  0  0  0
    4.4019   -1.2746    2.2499 H   0  0  0  0  0  0  0  0  0  0  0  0
    5.3478   -0.3806    1.2292 H   0  0  0  0  0  0  0  0  0  0  0  0
    2.1935   -0.6003    0.0099 H   0  0  0  0  0  0  0  0  0  0  0  0
    5.4303   -0.8526   -1.3917 H   0  0  0  0  0  0  0  0  0  0  0  0
    2.3682   -0.5412   -2.2151 H   0  0  0  0  0  0  0  0  0  0  0  0
    3.5635    0.7474   -3.4630 H   0  0  0  0  0  0  0  0  0  0  0  0
    4.5171   -2.6214   -2.9606 H   0  0  0  0  0  0  0  0  0  0  0  0
    1.9894   -3.1537   -1.7850 H   0  0  0  0  0  0  0  0  0  0  0  0
    3.3785   -4.2048   -1.5146 H   0  0  0  0  0  0  0  0  0  0  0  0
    2.1777   -2.2268    0.0112 H   0  0  0  0  0  0  0  0  0  0  0  0
  1  2  2  0
  1 28  1  0
  1 29  1  0
  2  9  1  0
  2  3  1  0
  3  4  2  3
  3 30  1  0
  4  5  1  0
  4 31  1  0
  5 27  1  0
  5  6  1  0
  5 32  1  6
  6 12  1  0
  6  7  1  0
  6 33  1  6
  7  8  1  0
  7 34  1  0
  7 35  1  0
  8  9  1  0
  8 36  1  0
  8 37  1  0
  9 10  1  0
  9 38  1  1
 10 16  1  0
 10 11  1  0
 10 39  1  1
 11 12  1  0
 11 40  1  0
 11 41  1  0
 12 13  1  0
 12 42  1  6
 13 14  1  0
 13 15  1  0
 13 16  1  0
 14 43  1  0
 14 44  1  0
 14 45  1  0
 15 46  1  0
 15 47  1  0
 15 48  1  0
 16 17  1  0
 16 49  1  1
 17 18  1  0
 17 19  1  0
 17 50  1  1
 18 51  1  0
 19 20  1  0
 19 52  1  0
 19 53  1  0
 20 27  1  0
 20 21  1  1
 20 22  1  0
 21 54  1  0
 22 25  1  0
 22 23  1  0
 22 55  1  1
 23 24  1  0
 23 25  1  0
 23 56  1  1
 24 57  1  0
 25 26  1  0
 25 58  1  6
 26 27  1  0
 26 59  1  0
 26 60  1  0
 27 61  1  6
M  CHG  1  27   1
M  END
>  <i_m_ct_stereo_status>  (30) 
1

>  <s_m_source_file>  (30) 
/var/tmp/pbs.5076255.sched01/tmpvv81v907/0tx7qkblw.sdf

>  <i_m_source_file_index>  (30) 
14

>  <i_lp_mmshare_version>  (30) 
48012

>  <i_f3d_flags>  (30) 
0

>  <s_epik_input>  (30) 
W0NIXVwxPVtDSF1cQyg9W0NIMl0pW0NAQEhdKFtDSDJdW0NIMl0yKVtDQEhdKFtDSF0oQzMoW0NIM10pW0NIM10pW0NAQEhdKFtPSF0pW0NIMl00KVtDSDJdW0NASF0zW0NAQEhdMltDQEBIXTFONVtDSDJdW0NAQEhdKFtDQEBIXTZbT0hdKVtDQEBIXTZbQ0BdNDVbT0hd

>  <s_epik_cmdline>  (30) 
J2VwaWtfcHl0aG9uJywgJy1waHQnLCAnMi4wJywgJy1waCcsICc3LjAnLCAnLXRuJywgJzgnLCAnLW1hJywgJzIwMCcsICctaW1hZScsICc8aW5maWxlLm1hZT4nLCAnLW9tYWUnLCAnPG91dGZpbGUubWFlPic=

>  <r_epik_Ionization_Penalty>  (30) 
0.174465

>  <r_epik_Ionization_Penalty_Charging>  (30) 
0.172252

>  <r_epik_Ionization_Penalty_Neutral>  (30) 
0.00221273

>  <r_epik_State_Penalty>  (30) 
0.16281

>  <r_epik_Charging_Adjusted_Penalty>  (30) 
0.335063

>  <i_epik_Tot_Q>  (30) 
1

>  <i_epik_Tot_abs_Q>  (30) 
1

>  <s_lp_Force_Field>  (30) 
OPLS3e

>  <r_lp_Energy>  (30) 
169.706

>  <b_lp_Chiralities_Consistent>  (30) 
1

>  <s_lp_Variant>  (30) 
5:0-7

>  <s_i_glide_gridfile>  (30) 
pfpi4k_grid

>  <i_i_glide_lignum>  (30) 
14

>  <i_i_glide_rotatable_bonds>  (30) 
3

>  <r_i_docking_score>  (30) 
-4.77312

>  <r_i_glide_ligand_efficiency>  (30) 
-0.176782

>  <r_i_glide_ligand_efficiency_sa>  (30) 
-0.530347

>  <r_i_glide_ligand_efficiency_ln>  (30) 
-1.1111

>  <r_i_glide_gscore>  (30) 
-4.77312

>  <r_i_glide_lipo>  (30) 
-0.581077

>  <r_i_glide_hbond>  (30) 
-0.449835

>  <r_i_glide_metal>  (30) 
-0

>  <r_i_glide_rewards>  (30) 
-0.869175

>  <r_i_glide_evdw>  (30) 
-16.4028

>  <r_i_glide_ecoul>  (30) 
-13.1337

>  <r_i_glide_erotb>  (30) 
0

>  <r_i_glide_esite>  (30) 
-0.0828443

>  <r_i_glide_emodel>  (30) 
-36.6364

>  <r_i_glide_energy>  (30) 
-29.5365

>  <r_i_glide_einternal>  (30) 
1.99896

>  <r_i_glide_intrahb_reward>  (30) 
-0

>  <i_i_glide_confnum>  (30) 
1

>  <i_i_glide_posenum>  (30) 
9

>  <r_i_glide_eff_state_penalty>  (30) 
0

>  <ligand_id>  (30) 
5

>  <original_smiles>  (30) 
C=C1C=CC2C3CCC1C1CC3C(C)(C)C1C(O)CC1(O)C3C(O)C3CN21

>  <smiles>  (30) 
[H]OC1([H])C([H])([H])C2(O[H])C3([H])C([H])(O[H])C3([H])C([H])([H])[N+]2([H])C2([H])C([H])=C([H])C(=C([H])[H])C3([H])C([H])([H])C([H])([H])C2([H])C2([H])C([H])([H])C3([H])C1([H])C2(C([H])([H])[H])C([H])([H])[H]

$$$$
5:6:1
     RDKit          3D

 61 66  0  0  1  0  0  0  0  0999 V2000
    4.5496   -1.9846    4.8708 C   0  0  0  0  0  0  0  0  0  0  0  0
    3.9178   -2.8545    4.0680 C   0  0  0  0  0  0  0  0  0  0  0  0
    2.6582   -2.4636    3.4898 C   0  0  0  0  0  0  0  0  0  0  0  0
    2.1965   -2.8684    2.2954 C   0  0  0  0  0  0  0  0  0  0  0  0
    2.8710   -3.6320    1.1559 C   0  0  2  0  0  0  0  0  0  0  0  0
    3.4377   -5.1313    1.2869 C   0  0  2  0  0  0  0  0  0  0  0  0
    2.7064   -5.7859    2.4950 C   0  0  0  0  0  0  0  0  0  0  0  0
    3.1447   -5.2931    3.9072 C   0  0  0  0  0  0  0  0  0  0  0  0
    4.3550   -4.2943    3.9876 C   0  0  1  0  0  0  0  0  0  0  0  0
    5.6486   -4.5993    3.1616 C   0  0  1  0  0  0  0  0  0  0  0  0
    5.5063   -6.0053    2.6140 C   0  0  0  0  0  0  0  0  0  0  0  0
    4.9452   -5.6902    1.2202 C   0  0  2  0  0  0  0  0  0  0  0  0
    6.0965   -4.8041    0.6926 C   0  0  0  0  0  0  0  0  0  0  0  0
    7.4612   -5.5764    0.5434 C   0  0  0  0  0  0  0  0  0  0  0  0
    5.8668   -4.2470   -0.7027 C   0  0  0  0  0  0  0  0  0  0  0  0
    6.1843   -3.8115    1.8682 C   0  0  1  0  0  0  0  0  0  0  0  0
    6.1912   -2.2581    1.5862 C   0  0  1  0  0  0  0  0  0  0  0  0
    7.1701   -1.9242    0.6195 O   0  0  0  0  0  0  0  0  0  0  0  0
    4.9554   -1.3700    1.3037 C   0  0  0  0  0  0  0  0  0  0  0  0
    3.9458   -1.4983    0.1260 C   0  0  1  0  0  0  0  0  0  0  0  0
    2.9999   -0.5356    0.5093 O   0  0  0  0  0  0  0  0  0  0  0  0
    4.3793   -1.1436   -1.2889 C   0  0  2  0  0  0  0  0  0  0  0  0
    3.3979   -0.8133   -2.3949 C   0  0  1  0  0  0  0  0  0  0  0  0
    3.9893   -0.1180   -3.4599 O   0  0  0  0  0  0  0  0  0  0  0  0
    3.8353   -2.2254   -2.2056 C   0  0  2  0  0  0  0  0  0  0  0  0
    3.0030   -3.1984   -1.3908 C   0  0  0  0  0  0  0  0  0  0  0  0
    3.0737   -2.6971    0.0070 N   0  0  1  0  0  0  0  0  0  0  0  0
    5.4483   -2.2639    5.4003 H   0  0  0  0  0  0  0  0  0  0  0  0
    4.1783   -0.9769    5.0004 H   0  0  0  0  0  0  0  0  0  0  0  0
    1.9905   -1.8693    4.0979 H   0  0  0  0  0  0  0  0  0  0  0  0
    1.2160   -2.4867    2.0687 H   0  0  0  0  0  0  0  0  0  0  0  0
    1.9147   -3.9870    0.7776 H   0  0  0  0  0  0  0  0  0  0  0  0
    3.0111   -5.6317    0.4161 H   0  0  0  0  0  0  0  0  0  0  0  0
    1.6253   -5.6627    2.4013 H   0  0  0  0  0  0  0  0  0  0  0  0
    2.8472   -6.8694    2.4393 H   0  0  0  0  0  0  0  0  0  0  0  0
    2.2767   -4.8893    4.4314 H   0  0  0  0  0  0  0  0  0  0  0  0
    3.3767   -6.1731    4.5095 H   0  0  0  0  0  0  0  0  0  0  0  0
    4.6723   -4.4685    5.0137 H   0  0  0  0  0  0  0  0  0  0  0  0
    6.4463   -4.6779    3.8962 H   0  0  0  0  0  0  0  0  0  0  0  0
    6.4684   -6.4965    2.6046 H   0  0  0  0  0  0  0  0  0  0  0  0
    4.9611   -6.7262    3.2137 H   0  0  0  0  0  0  0  0  0  0  0  0
    4.9264   -6.6252    0.6569 H   0  0  0  0  0  0  0  0  0  0  0  0
    8.1966   -5.0127   -0.0365 H   0  0  0  0  0  0  0  0  0  0  0  0
    7.3137   -6.5415    0.0839 H   0  0  0  0  0  0  0  0  0  0  0  0
    7.9866   -5.8197    1.4657 H   0  0  0  0  0  0  0  0  0  0  0  0
    6.7818   -3.8952   -1.1803 H   0  0  0  0  0  0  0  0  0  0  0  0
    5.3375   -3.3401   -0.6317 H   0  0  0  0  0  0  0  0  0  0  0  0
    5.3675   -4.9575   -1.3616 H   0  0  0  0  0  0  0  0  0  0  0  0
    7.2503   -3.8683    2.0726 H   0  0  0  0  0  0  0  0  0  0  0  0
    6.5826   -1.8207    2.4984 H   0  0  0  0  0  0  0  0  0  0  0  0
    7.9909   -2.3307    0.8832 H   0  0  0  0  0  0  0  0  0  0  0  0
    4.4203   -1.2522    2.2300 H   0  0  0  0  0  0  0  0  0  0  0  0
    5.3645   -0.3726    1.1912 H   0  0  0  0  0  0  0  0  0  0  0  0
    2.1833   -0.5964    0.0019 H   0  0  0  0  0  0  0  0  0  0  0  0
    5.4178   -0.8610   -1.4193 H   0  0  0  0  0  0  0  0  0  0  0  0
    2.3562   -0.5525   -2.2290 H   0  0  0  0  0  0  0  0  0  0  0  0
    3.5630    0.7360   -3.4726 H   0  0  0  0  0  0  0  0  0  0  0  0
    4.4946   -2.6424   -2.9684 H   0  0  0  0  0  0  0  0  0  0  0  0
    1.9784   -3.1658   -1.7708 H   0  0  0  0  0  0  0  0  0  0  0  0
    3.3654   -4.2150   -1.5076 H   0  0  0  0  0  0  0  0  0  0  0  0
    2.1792   -2.2282    0.0164 H   0  0  0  0  0  0  0  0  0  0  0  0
  1  2  2  0
  1 28  1  0
  1 29  1  0
  2  9  1  0
  2  3  1  0
  3  4  2  3
  3 30  1  0
  4  5  1  0
  4 31  1  0
  5 27  1  0
  5  6  1  0
  5 32  1  6
  6 12  1  0
  6  7  1  0
  6 33  1  6
  7  8  1  0
  7 34  1  0
  7 35  1  0
  8  9  1  0
  8 36  1  0
  8 37  1  0
  9 10  1  0
  9 38  1  1
 10 16  1  0
 10 11  1  0
 10 39  1  1
 11 12  1  0
 11 40  1  0
 11 41  1  0
 12 13  1  0
 12 42  1  6
 13 14  1  0
 13 15  1  0
 13 16  1  0
 14 43  1  0
 14 44  1  0
 14 45  1  0
 15 46  1  0
 15 47  1  0
 15 48  1  0
 16 17  1  0
 16 49  1  1
 17 18  1  0
 17 19  1  0
 17 50  1  1
 18 51  1  0
 19 20  1  0
 19 52  1  0
 19 53  1  0
 20 27  1  0
 20 21  1  1
 20 22  1  0
 21 54  1  0
 22 25  1  0
 22 23  1  0
 22 55  1  1
 23 24  1  0
 23 25  1  0
 23 56  1  1
 24 57  1  0
 25 26  1  0
 25 58  1  6
 26 27  1  0
 26 59  1  0
 26 60  1  0
 27 61  1  6
M  CHG  1  27   1
M  END
>  <i_m_ct_stereo_status>  (31) 
1

>  <s_m_source_file>  (31) 
/var/tmp/pbs.5076255.sched01/tmpvv81v907/0tx7qkblw.sdf

>  <i_m_source_file_index>  (31) 
14

>  <i_lp_mmshare_version>  (31) 
48012

>  <i_f3d_flags>  (31) 
0

>  <s_epik_input>  (31) 
W0NIXVwxPVtDSF1cQyg9W0NIMl0pW0NAQEhdKFtDSDJdW0NIMl0yKVtDQEhdKFtDSF0oQzMoW0NIM10pW0NIM10pW0NAQEhdKFtPSF0pW0NIMl00KVtDSDJdW0NASF0zW0NAQEhdMltDQEBIXTFONVtDSDJdW0NAQEhdKFtDQEBIXTZbT0hdKVtDQEBIXTZbQ0BdNDVbT0hd

>  <s_epik_cmdline>  (31) 
J2VwaWtfcHl0aG9uJywgJy1waHQnLCAnMi4wJywgJy1waCcsICc3LjAnLCAnLXRuJywgJzgnLCAnLW1hJywgJzIwMCcsICctaW1hZScsICc8aW5maWxlLm1hZT4nLCAnLW9tYWUnLCAnPG91dGZpbGUubWFlPic=

>  <r_epik_Ionization_Penalty>  (31) 
0.174465

>  <r_epik_Ionization_Penalty_Charging>  (31) 
0.172252

>  <r_epik_Ionization_Penalty_Neutral>  (31) 
0.00221273

>  <r_epik_State_Penalty>  (31) 
0.16281

>  <r_epik_Charging_Adjusted_Penalty>  (31) 
0.335063

>  <i_epik_Tot_Q>  (31) 
1

>  <i_epik_Tot_abs_Q>  (31) 
1

>  <s_lp_Force_Field>  (31) 
OPLS3e

>  <r_lp_Energy>  (31) 
169.706

>  <b_lp_Chiralities_Consistent>  (31) 
1

>  <s_lp_Variant>  (31) 
5:0-7

>  <s_i_glide_gridfile>  (31) 
pfpi4k_grid

>  <i_i_glide_lignum>  (31) 
14

>  <i_i_glide_rotatable_bonds>  (31) 
3

>  <r_i_docking_score>  (31) 
-4.6118

>  <r_i_glide_ligand_efficiency>  (31) 
-0.170807

>  <r_i_glide_ligand_efficiency_sa>  (31) 
-0.512422

>  <r_i_glide_ligand_efficiency_ln>  (31) 
-1.07355

>  <r_i_glide_gscore>  (31) 
-4.6118

>  <r_i_glide_lipo>  (31) 
-0.588497

>  <r_i_glide_hbond>  (31) 
-0.438949

>  <r_i_glide_metal>  (31) 
-0

>  <r_i_glide_rewards>  (31) 
-0.869175

>  <r_i_glide_evdw>  (31) 
-16.5866

>  <r_i_glide_ecoul>  (31) 
-12.0151

>  <r_i_glide_erotb>  (31) 
0

>  <r_i_glide_esite>  (31) 
-0.083581

>  <r_i_glide_emodel>  (31) 
-35.5734

>  <r_i_glide_energy>  (31) 
-28.6017

>  <r_i_glide_einternal>  (31) 
1.79881

>  <r_i_glide_intrahb_reward>  (31) 
-0

>  <i_i_glide_confnum>  (31) 
1

>  <i_i_glide_posenum>  (31) 
22

>  <r_i_glide_eff_state_penalty>  (31) 
0

>  <ligand_id>  (31) 
5

>  <original_smiles>  (31) 
C=C1C=CC2C3CCC1C1CC3C(C)(C)C1C(O)CC1(O)C3C(O)C3CN21

>  <smiles>  (31) 
[H]OC1([H])C([H])([H])C2(O[H])C3([H])C([H])(O[H])C3([H])C([H])([H])[N+]2([H])C2([H])C([H])=C([H])C(=C([H])[H])C3([H])C([H])([H])C([H])([H])C2([H])C2([H])C([H])([H])C3([H])C1([H])C2(C([H])([H])[H])C([H])([H])[H]

$$$$
5:6:2
     RDKit          3D

 61 66  0  0  1  0  0  0  0  0999 V2000
    5.1497   -1.0278    4.4946 C   0  0  0  0  0  0  0  0  0  0  0  0
    4.2140   -1.8930    4.0836 C   0  0  0  0  0  0  0  0  0  0  0  0
    3.0240   -1.3555    3.4716 C   0  0  0  0  0  0  0  0  0  0  0  0
    2.2851   -1.9752    2.5388 C   0  0  0  0  0  0  0  0  0  0  0  0
    2.6078   -3.2300    1.7218 C   0  0  2  0  0  0  0  0  0  0  0  0
    2.7528   -4.7103    2.3386 C   0  0  2  0  0  0  0  0  0  0  0  0
    2.0753   -4.6931    3.7357 C   0  0  0  0  0  0  0  0  0  0  0  0
    2.8421   -3.9208    4.8485 C   0  0  0  0  0  0  0  0  0  0  0  0
    4.2620   -3.3434    4.4947 C   0  0  1  0  0  0  0  0  0  0  0  0
    5.3107   -4.2596    3.7637 C   0  0  1  0  0  0  0  0  0  0  0  0
    4.7278   -5.6675    3.7704 C   0  0  0  0  0  0  0  0  0  0  0  0
    4.0423   -5.6799    2.3927 C   0  0  2  0  0  0  0  0  0  0  0  0
    5.2747   -5.4130    1.5039 C   0  0  0  0  0  0  0  0  0  0  0  0
    6.3119   -6.5934    1.5328 C   0  0  0  0  0  0  0  0  0  0  0  0
    4.9853   -5.3239    0.0140 C   0  0  0  0  0  0  0  0  0  0  0  0
    5.8145   -4.1572    2.2451 C   0  0  1  0  0  0  0  0  0  0  0  0
    6.1608   -2.8508    1.4285 C   0  0  1  0  0  0  0  0  0  0  0  0
    7.0633   -3.1462    0.3817 O   0  0  0  0  0  0  0  0  0  0  0  0
    5.1695   -1.7790    0.9192 C   0  0  0  0  0  0  0  0  0  0  0  0
    3.9879   -1.9707   -0.0729 C   0  0  1  0  0  0  0  0  0  0  0  0
    3.3984   -0.6926    0.0012 O   0  0  0  0  0  0  0  0  0  0  0  0
    4.2893   -2.2360   -1.5390 C   0  0  2  0  0  0  0  0  0  0  0  0
    3.2674   -1.9617   -2.6259 C   0  0  1  0  0  0  0  0  0  0  0  0
    3.7802   -1.9661   -3.9413 O   0  0  0  0  0  0  0  0  0  0  0  0
    3.3354   -3.3197   -1.9913 C   0  0  2  0  0  0  0  0  0  0  0  0
    2.4245   -3.7105   -0.8362 C   0  0  0  0  0  0  0  0  0  0  0  0
    2.8341   -2.8348    0.2965 N   0  0  1  0  0  0  0  0  0  0  0  0
    5.9939   -1.3670    5.0702 H   0  0  0  0  0  0  0  0  0  0  0  0
    5.0902    0.0255    4.2636 H   0  0  0  0  0  0  0  0  0  0  0  0
    2.6403   -0.4242    3.8637 H   0  0  0  0  0  0  0  0  0  0  0  0
    1.4000   -1.4368    2.2303 H   0  0  0  0  0  0  0  0  0  0  0  0
    1.5301   -3.3588    1.6125 H   0  0  0  0  0  0  0  0  0  0  0  0
    2.0800   -5.3073    1.7226 H   0  0  0  0  0  0  0  0  0  0  0  0
    1.0614   -4.2927    3.6637 H   0  0  0  0  0  0  0  0  0  0  0  0
    1.9180   -5.7230    4.0609 H   0  0  0  0  0  0  0  0  0  0  0  0
    2.2002   -3.1331    5.2419 H   0  0  0  0  0  0  0  0  0  0  0  0
    2.9315   -4.5826    5.7110 H   0  0  0  0  0  0  0  0  0  0  0  0
    4.6810   -3.2649    5.4994 H   0  0  0  0  0  0  0  0  0  0  0  0
    6.1915   -4.2601    4.4091 H   0  0  0  0  0  0  0  0  0  0  0  0
    5.5112   -6.4043    3.8790 H   0  0  0  0  0  0  0  0  0  0  0  0
    4.1101   -5.9610    4.6121 H   0  0  0  0  0  0  0  0  0  0  0  0
    3.6924   -6.6954    2.2050 H   0  0  0  0  0  0  0  0  0  0  0  0
    7.0921   -6.4783    0.7767 H   0  0  0  0  0  0  0  0  0  0  0  0
    5.8183   -7.5466    1.3356 H   0  0  0  0  0  0  0  0  0  0  0  0
    6.8879   -6.7042    2.4512 H   0  0  0  0  0  0  0  0  0  0  0  0
    5.8451   -5.5091   -0.6224 H   0  0  0  0  0  0  0  0  0  0  0  0
    4.7353   -4.3271   -0.2263 H   0  0  0  0  0  0  0  0  0  0  0  0
    4.2098   -6.0218   -0.2980 H   0  0  0  0  0  0  0  0  0  0  0  0
    6.8481   -4.4599    2.4175 H   0  0  0  0  0  0  0  0  0  0  0  0
    6.7754   -2.2556    2.0938 H   0  0  0  0  0  0  0  0  0  0  0  0
    6.6391   -3.7272   -0.2290 H   0  0  0  0  0  0  0  0  0  0  0  0
    4.8280   -1.2115    1.7660 H   0  0  0  0  0  0  0  0  0  0  0  0
    5.8000   -1.0377    0.4379 H   0  0  0  0  0  0  0  0  0  0  0  0
    2.5171   -0.6899   -0.3767 H   0  0  0  0  0  0  0  0  0  0  0  0
    5.3294   -2.3534   -1.8296 H   0  0  0  0  0  0  0  0  0  0  0  0
    2.3920   -1.3370   -2.4563 H   0  0  0  0  0  0  0  0  0  0  0  0
    3.0458   -1.8166   -4.5225 H   0  0  0  0  0  0  0  0  0  0  0  0
    3.7808   -4.1301   -2.5764 H   0  0  0  0  0  0  0  0  0  0  0  0
    1.3982   -3.5018   -1.1465 H   0  0  0  0  0  0  0  0  0  0  0  0
    2.4803   -4.7798   -0.6262 H   0  0  0  0  0  0  0  0  0  0  0  0
    2.0922   -2.1537    0.1971 H   0  0  0  0  0  0  0  0  0  0  0  0
  1  2  2  0
  1 28  1  0
  1 29  1  0
  2  9  1  0
  2  3  1  0
  3  4  2  3
  3 30  1  0
  4  5  1  0
  4 31  1  0
  5 27  1  0
  5  6  1  0
  5 32  1  6
  6 12  1  0
  6  7  1  0
  6 33  1  6
  7  8  1  0
  7 34  1  0
  7 35  1  0
  8  9  1  0
  8 36  1  0
  8 37  1  0
  9 10  1  0
  9 38  1  1
 10 16  1  0
 10 11  1  0
 10 39  1  1
 11 12  1  0
 11 40  1  0
 11 41  1  0
 12 13  1  0
 12 42  1  6
 13 14  1  0
 13 15  1  0
 13 16  1  0
 14 43  1  0
 14 44  1  0
 14 45  1  0
 15 46  1  0
 15 47  1  0
 15 48  1  0
 16 17  1  0
 16 49  1  1
 17 18  1  0
 17 19  1  0
 17 50  1  1
 18 51  1  0
 19 20  1  0
 19 52  1  0
 19 53  1  0
 20 27  1  0
 20 21  1  6
 20 22  1  0
 21 54  1  0
 22 25  1  0
 22 23  1  0
 22 55  1  6
 23 24  1  0
 23 25  1  0
 23 56  1  1
 24 57  1  0
 25 26  1  0
 25 58  1  6
 26 27  1  0
 26 59  1  0
 26 60  1  0
 27 61  1  6
M  CHG  1  27   1
M  END
>  <i_m_ct_stereo_status>  (32) 
1

>  <s_m_source_file>  (32) 
/var/tmp/pbs.5076255.sched01/tmpvv81v907/0tx7qkblw.sdf

>  <i_m_source_file_index>  (32) 
14

>  <i_lp_mmshare_version>  (32) 
48012

>  <i_f3d_flags>  (32) 
0

>  <s_epik_input>  (32) 
W0NIXVwxPVtDSF1cQyg9W0NIMl0pW0NAQEhdKFtDSDJdW0NIMl0yKVtDQEhdKFtDSF0oQzMoW0NIM10pW0NIM10pW0NAQEhdKFtPSF0pW0NIMl00KVtDSDJdW0NASF0zW0NAQEhdMltDQEBIXTFONVtDSDJdW0NAQEhdKFtDQEBIXTZbT0hdKVtDQEBIXTZbQ0BdNDVbT0hd

>  <s_epik_cmdline>  (32) 
J2VwaWtfcHl0aG9uJywgJy1waHQnLCAnMi4wJywgJy1waCcsICc3LjAnLCAnLXRuJywgJzgnLCAnLW1hJywgJzIwMCcsICctaW1hZScsICc8aW5maWxlLm1hZT4nLCAnLW9tYWUnLCAnPG91dGZpbGUubWFlPic=

>  <r_epik_Ionization_Penalty>  (32) 
0.174465

>  <r_epik_Ionization_Penalty_Charging>  (32) 
0.172252

>  <r_epik_Ionization_Penalty_Neutral>  (32) 
0.00221273

>  <r_epik_State_Penalty>  (32) 
0.16281

>  <r_epik_Charging_Adjusted_Penalty>  (32) 
0.335063

>  <i_epik_Tot_Q>  (32) 
1

>  <i_epik_Tot_abs_Q>  (32) 
1

>  <s_lp_Force_Field>  (32) 
OPLS3e

>  <r_lp_Energy>  (32) 
169.706

>  <b_lp_Chiralities_Consistent>  (32) 
1

>  <s_lp_Variant>  (32) 
5:0-7

>  <s_i_glide_gridfile>  (32) 
pfpi4k_grid

>  <i_i_glide_lignum>  (32) 
14

>  <i_i_glide_rotatable_bonds>  (32) 
3

>  <r_i_docking_score>  (32) 
-4.42672

>  <r_i_glide_ligand_efficiency>  (32) 
-0.163953

>  <r_i_glide_ligand_efficiency_sa>  (32) 
-0.491858

>  <r_i_glide_ligand_efficiency_ln>  (32) 
-1.03047

>  <r_i_glide_gscore>  (32) 
-4.42672

>  <r_i_glide_lipo>  (32) 
-0.423989

>  <r_i_glide_hbond>  (32) 
-0.472348

>  <r_i_glide_metal>  (32) 
-0

>  <r_i_glide_rewards>  (32) 
-0.869175

>  <r_i_glide_evdw>  (32) 
-18.5696

>  <r_i_glide_ecoul>  (32) 
-11.0387

>  <r_i_glide_erotb>  (32) 
0

>  <r_i_glide_esite>  (32) 
-0.0769198

>  <r_i_glide_emodel>  (32) 
-36.2406

>  <r_i_glide_energy>  (32) 
-29.6083

>  <r_i_glide_einternal>  (32) 
1.26327

>  <r_i_glide_intrahb_reward>  (32) 
-0

>  <i_i_glide_confnum>  (32) 
1

>  <i_i_glide_posenum>  (32) 
38

>  <r_i_glide_eff_state_penalty>  (32) 
0

>  <ligand_id>  (32) 
5

>  <original_smiles>  (32) 
C=C1C=CC2C3CCC1C1CC3C(C)(C)C1C(O)CC1(O)C3C(O)C3CN21

>  <smiles>  (32) 
[H]OC1([H])C([H])([H])C2(O[H])C3([H])C([H])(O[H])C3([H])C([H])([H])[N+]2([H])C2([H])C([H])=C([H])C(=C([H])[H])C3([H])C([H])([H])C([H])([H])C2([H])C2([H])C([H])([H])C3([H])C1([H])C2(C([H])([H])[H])C([H])([H])[H]

$$$$
5:7:0
     RDKit          3D

 61 66  0  0  1  0  0  0  0  0999 V2000
    3.4169   -3.4134    4.5083 C   0  0  0  0  0  0  0  0  0  0  0  0
    3.4723   -4.0935    3.3547 C   0  0  0  0  0  0  0  0  0  0  0  0
    2.4243   -3.9913    2.3717 C   0  0  0  0  0  0  0  0  0  0  0  0
    2.8264   -3.3322    1.2890 C   0  0  0  0  0  0  0  0  0  0  0  0
    3.4220   -3.8888   -0.0051 C   0  0  2  0  0  0  0  0  0  0  0  0
    4.4250   -5.1554    0.0651 C   0  0  2  0  0  0  0  0  0  0  0  0
    3.7640   -6.3483    0.8423 C   0  0  0  0  0  0  0  0  0  0  0  0
    3.9085   -6.3785    2.3939 C   0  0  0  0  0  0  0  0  0  0  0  0
    4.5548   -5.1120    3.0558 C   0  0  1  0  0  0  0  0  0  0  0  0
    5.9583   -4.6471    2.4874 C   0  0  1  0  0  0  0  0  0  0  0  0
    6.4468   -5.7814    1.6047 C   0  0  0  0  0  0  0  0  0  0  0  0
    6.0146   -5.2126    0.2712 C   0  0  2  0  0  0  0  0  0  0  0  0
    6.9020   -3.9485    0.2164 C   0  0  0  0  0  0  0  0  0  0  0  0
    8.4554   -4.2413    0.2948 C   0  0  0  0  0  0  0  0  0  0  0  0
    6.9271   -3.1970   -1.1332 C   0  0  0  0  0  0  0  0  0  0  0  0
    6.3596   -3.3711    1.5703 C   0  0  1  0  0  0  0  0  0  0  0  0
    5.6225   -1.9879    1.6380 C   0  0  1  0  0  0  0  0  0  0  0  0
    6.3714   -1.0504    2.3804 O   0  0  0  0  0  0  0  0  0  0  0  0
    5.3230   -1.1818    0.3323 C   0  0  0  0  0  0  0  0  0  0  0  0
    4.1125   -1.4333   -0.6398 C   0  0  1  0  0  0  0  0  0  0  0  0
    3.0142   -0.7633    0.0254 O   0  0  0  0  0  0  0  0  0  0  0  0
    4.3235   -0.7729   -1.9866 C   0  0  2  0  0  0  0  0  0  0  0  0
    3.2527   -0.6810   -3.0429 C   0  0  1  0  0  0  0  0  0  0  0  0
    3.5711    0.3138   -3.9887 O   0  0  0  0  0  0  0  0  0  0  0  0
    4.1925   -1.8459   -3.0486 C   0  0  2  0  0  0  0  0  0  0  0  0
    3.7936   -3.1426   -2.3940 C   0  0  0  0  0  0  0  0  0  0  0  0
    3.6015   -2.7837   -0.9787 N   0  0  1  0  0  0  0  0  0  0  0  0
    4.1708   -3.5398    5.2646 H   0  0  0  0  0  0  0  0  0  0  0  0
    2.6106   -2.7312    4.7181 H   0  0  0  0  0  0  0  0  0  0  0  0
    1.9280   -4.9246    2.1767 H   0  0  0  0  0  0  0  0  0  0  0  0
    3.2158   -2.3969    1.5766 H   0  0  0  0  0  0  0  0  0  0  0  0
    2.5332   -4.3801   -0.4126 H   0  0  0  0  0  0  0  0  0  0  0  0
    4.3676   -5.4850   -0.9668 H   0  0  0  0  0  0  0  0  0  0  0  0
    2.7112   -6.4071    0.5755 H   0  0  0  0  0  0  0  0  0  0  0  0
    4.1819   -7.2738    0.4438 H   0  0  0  0  0  0  0  0  0  0  0  0
    2.9454   -6.5990    2.8444 H   0  0  0  0  0  0  0  0  0  0  0  0
    4.4482   -7.2747    2.6911 H   0  0  0  0  0  0  0  0  0  0  0  0
    4.8025   -5.4893    4.0496 H   0  0  0  0  0  0  0  0  0  0  0  0
    6.5961   -4.6448    3.3673 H   0  0  0  0  0  0  0  0  0  0  0  0
    7.5090   -5.9420    1.6991 H   0  0  0  0  0  0  0  0  0  0  0  0
    6.1545   -6.8108    1.7596 H   0  0  0  0  0  0  0  0  0  0  0  0
    6.3261   -5.9819   -0.3842 H   0  0  0  0  0  0  0  0  0  0  0  0
    9.0614   -3.3772    0.0141 H   0  0  0  0  0  0  0  0  0  0  0  0
    8.7421   -5.0401   -0.3929 H   0  0  0  0  0  0  0  0  0  0  0  0
    8.8517   -4.5029    1.2762 H   0  0  0  0  0  0  0  0  0  0  0  0
    7.6136   -2.3475   -1.1436 H   0  0  0  0  0  0  0  0  0  0  0  0
    5.9867   -2.8326   -1.4299 H   0  0  0  0  0  0  0  0  0  0  0  0
    7.2412   -3.8506   -1.9469 H   0  0  0  0  0  0  0  0  0  0  0  0
    7.2963   -3.1109    2.0215 H   0  0  0  0  0  0  0  0  0  0  0  0
    4.8525   -2.0443    2.3870 H   0  0  0  0  0  0  0  0  0  0  0  0
    7.1735   -0.8226    1.9324 H   0  0  0  0  0  0  0  0  0  0  0  0
    5.1263   -0.1582    0.6750 H   0  0  0  0  0  0  0  0  0  0  0  0
    6.2511   -1.0031   -0.1935 H   0  0  0  0  0  0  0  0  0  0  0  0
    2.1363   -0.8802   -0.3827 H   0  0  0  0  0  0  0  0  0  0  0  0
    5.1790   -0.1091   -2.1061 H   0  0  0  0  0  0  0  0  0  0  0  0
    2.2112   -0.7981   -2.7582 H   0  0  0  0  0  0  0  0  0  0  0  0
    3.0313    1.0650   -3.7614 H   0  0  0  0  0  0  0  0  0  0  0  0
    4.9383   -1.8835   -3.8633 H   0  0  0  0  0  0  0  0  0  0  0  0
    2.8820   -3.4822   -2.8876 H   0  0  0  0  0  0  0  0  0  0  0  0
    4.5721   -3.8860   -2.5937 H   0  0  0  0  0  0  0  0  0  0  0  0
    2.6308   -2.5249   -1.0608 H   0  0  0  0  0  0  0  0  0  0  0  0
  1  2  2  0
  1 28  1  0
  1 29  1  0
  2  9  1  0
  2  3  1  0
  3  4  2  3
  3 30  1  0
  4  5  1  0
  4 31  1  0
  5 27  1  0
  5  6  1  0
  5 32  1  6
  6 12  1  0
  6  7  1  0
  6 33  1  6
  7  8  1  0
  7 34  1  0
  7 35  1  0
  8  9  1  0
  8 36  1  0
  8 37  1  0
  9 10  1  0
  9 38  1  1
 10 16  1  0
 10 11  1  0
 10 39  1  1
 11 12  1  0
 11 40  1  0
 11 41  1  0
 12 13  1  0
 12 42  1  6
 13 14  1  0
 13 15  1  0
 13 16  1  0
 14 43  1  0
 14 44  1  0
 14 45  1  0
 15 46  1  0
 15 47  1  0
 15 48  1  0
 16 17  1  0
 16 49  1  1
 17 18  1  0
 17 19  1  0
 17 50  1  1
 18 51  1  0
 19 20  1  0
 19 52  1  0
 19 53  1  0
 20 27  1  0
 20 21  1  1
 20 22  1  0
 21 54  1  0
 22 25  1  0
 22 23  1  0
 22 55  1  1
 23 24  1  0
 23 25  1  0
 23 56  1  1
 24 57  1  0
 25 26  1  0
 25 58  1  6
 26 27  1  0
 26 59  1  0
 26 60  1  0
 27 61  1  6
M  CHG  1  27   1
M  END
>  <i_m_ct_stereo_status>  (33) 
1

>  <s_m_source_file>  (33) 
/var/tmp/pbs.5076255.sched01/tmpvv81v907/0tx7qkblw.sdf

>  <i_m_source_file_index>  (33) 
15

>  <i_lp_mmshare_version>  (33) 
48012

>  <i_f3d_flags>  (33) 
0

>  <s_epik_input>  (33) 
W0NIXVwxPVtDSF1cQyg9W0NIMl0pW0NAQEhdKFtDSDJdW0NIMl0yKVtDQEhdKFtDSF0oQzMoW0NIM10pW0NIM10pW0NAQEhdKFtPSF0pW0NIMl00KVtDSDJdW0NASF0zW0NAQEhdMltDQEBIXTFONVtDSDJdW0NAQEhdKFtDQEBIXTZbT0hdKVtDQEBIXTZbQ0BdNDVbT0hd

>  <s_epik_cmdline>  (33) 
J2VwaWtfcHl0aG9uJywgJy1waHQnLCAnMi4wJywgJy1waCcsICc3LjAnLCAnLXRuJywgJzgnLCAnLW1hJywgJzIwMCcsICctaW1hZScsICc8aW5maWxlLm1hZT4nLCAnLW9tYWUnLCAnPG91dGZpbGUubWFlPic=

>  <r_epik_Ionization_Penalty>  (33) 
0.174465

>  <r_epik_Ionization_Penalty_Charging>  (33) 
0.172252

>  <r_epik_Ionization_Penalty_Neutral>  (33) 
0.00221273

>  <r_epik_State_Penalty>  (33) 
0.16281

>  <r_epik_Charging_Adjusted_Penalty>  (33) 
0.335063

>  <i_epik_Tot_Q>  (33) 
1

>  <i_epik_Tot_abs_Q>  (33) 
1

>  <s_lp_Force_Field>  (33) 
OPLS3e

>  <r_lp_Energy>  (33) 
198.78

>  <b_lp_Chiralities_Consistent>  (33) 
1

>  <s_lp_Variant>  (33) 
5:0-8

>  <s_i_glide_gridfile>  (33) 
pfpi4k_grid

>  <i_i_glide_lignum>  (33) 
15

>  <i_i_glide_rotatable_bonds>  (33) 
3

>  <r_i_docking_score>  (33) 
-5.30026

>  <r_i_glide_ligand_efficiency>  (33) 
-0.196306

>  <r_i_glide_ligand_efficiency_sa>  (33) 
-0.588918

>  <r_i_glide_ligand_efficiency_ln>  (33) 
-1.23381

>  <r_i_glide_gscore>  (33) 
-5.30026

>  <r_i_glide_lipo>  (33) 
-0.897858

>  <r_i_glide_hbond>  (33) 
-0.498387

>  <r_i_glide_metal>  (33) 
-0

>  <r_i_glide_rewards>  (33) 
-0.869175

>  <r_i_glide_evdw>  (33) 
-14.5438

>  <r_i_glide_ecoul>  (33) 
-14.9434

>  <r_i_glide_erotb>  (33) 
0

>  <r_i_glide_esite>  (33) 
-0.0661486

>  <r_i_glide_emodel>  (33) 
-37.9953

>  <r_i_glide_energy>  (33) 
-29.4871

>  <r_i_glide_einternal>  (33) 
1.24671

>  <r_i_glide_intrahb_reward>  (33) 
-0

>  <i_i_glide_confnum>  (33) 
1

>  <i_i_glide_posenum>  (33) 
26

>  <r_i_glide_eff_state_penalty>  (33) 
0

>  <ligand_id>  (33) 
5

>  <original_smiles>  (33) 
C=C1C=CC2C3CCC1C1CC3C(C)(C)C1C(O)CC1(O)C3C(O)C3CN21

>  <smiles>  (33) 
[H]OC1([H])C([H])([H])C2(O[H])C3([H])C([H])(O[H])C3([H])C([H])([H])[N+]2([H])C2([H])C([H])=C([H])C(=C([H])[H])C3([H])C([H])([H])C([H])([H])C2([H])C2([H])C([H])([H])C3([H])C1([H])C2(C([H])([H])[H])C([H])([H])[H]

$$$$
5:7:1
     RDKit          3D

 61 66  0  0  1  0  0  0  0  0999 V2000
    5.1986   -1.0826    4.4277 C   0  0  0  0  0  0  0  0  0  0  0  0
    4.2602   -1.8400    3.8545 C   0  0  0  0  0  0  0  0  0  0  0  0
    3.2409   -1.2529    3.0132 C   0  0  0  0  0  0  0  0  0  0  0  0
    3.3857   -1.5771    1.7436 C   0  0  0  0  0  0  0  0  0  0  0  0
    2.7559   -2.7556    1.0305 C   0  0  2  0  0  0  0  0  0  0  0  0
    2.5370   -4.1859    1.7638 C   0  0  2  0  0  0  0  0  0  0  0  0
    1.7649   -3.9883    3.1183 C   0  0  0  0  0  0  0  0  0  0  0  0
    2.5911   -3.6328    4.4000 C   0  0  0  0  0  0  0  0  0  0  0  0
    4.1084   -3.3241    4.1768 C   0  0  1  0  0  0  0  0  0  0  0  0
    4.9463   -4.4360    3.4019 C   0  0  1  0  0  0  0  0  0  0  0  0
    4.0400   -5.6730    3.3055 C   0  0  0  0  0  0  0  0  0  0  0  0
    3.4824   -5.4832    1.8911 C   0  0  2  0  0  0  0  0  0  0  0  0
    4.8123   -5.5424    1.1516 C   0  0  0  0  0  0  0  0  0  0  0  0
    5.5713   -6.9096    1.2878 C   0  0  0  0  0  0  0  0  0  0  0  0
    4.6146   -5.5886   -0.3387 C   0  0  0  0  0  0  0  0  0  0  0  0
    5.5624   -4.4236    1.9163 C   0  0  1  0  0  0  0  0  0  0  0  0
    6.0251   -3.1246    1.1760 C   0  0  1  0  0  0  0  0  0  0  0  0
    7.4156   -3.2663    1.0976 O   0  0  0  0  0  0  0  0  0  0  0  0
    5.7331   -2.8389   -0.3434 C   0  0  0  0  0  0  0  0  0  0  0  0
    4.4073   -2.2714   -0.9750 C   0  0  1  0  0  0  0  0  0  0  0  0
    4.4393   -0.8598   -0.8971 O   0  0  0  0  0  0  0  0  0  0  0  0
    4.2758   -2.5337   -2.4606 C   0  0  2  0  0  0  0  0  0  0  0  0
    3.1921   -1.8871   -3.2970 C   0  0  1  0  0  0  0  0  0  0  0  0
    3.4790   -1.9548   -4.6725 O   0  0  0  0  0  0  0  0  0  0  0  0
    2.9677   -3.2524   -2.7038 C   0  0  2  0  0  0  0  0  0  0  0  0
    2.2475   -3.4531   -1.3976 C   0  0  0  0  0  0  0  0  0  0  0  0
    3.0277   -2.6300   -0.4266 N   0  0  1  0  0  0  0  0  0  0  0  0
    5.8864   -1.5239    5.1311 H   0  0  0  0  0  0  0  0  0  0  0  0
    5.2848   -0.0257    4.2301 H   0  0  0  0  0  0  0  0  0  0  0  0
    2.2552   -1.3660    3.4309 H   0  0  0  0  0  0  0  0  0  0  0  0
    4.3448   -1.3199    1.3876 H   0  0  0  0  0  0  0  0  0  0  0  0
    1.7318   -2.3872    1.0377 H   0  0  0  0  0  0  0  0  0  0  0  0
    1.7855   -4.6253    1.1186 H   0  0  0  0  0  0  0  0  0  0  0  0
    0.9872   -3.2337    2.9871 H   0  0  0  0  0  0  0  0  0  0  0  0
    1.2021   -4.9045    3.3324 H   0  0  0  0  0  0  0  0  0  0  0  0
    2.1073   -2.8108    4.9309 H   0  0  0  0  0  0  0  0  0  0  0  0
    2.4700   -4.4186    5.1444 H   0  0  0  0  0  0  0  0  0  0  0  0
    4.5028   -3.3957    5.1886 H   0  0  0  0  0  0  0  0  0  0  0  0
    5.7735   -4.6825    4.0668 H   0  0  0  0  0  0  0  0  0  0  0  0
    4.6070   -6.5797    3.4470 H   0  0  0  0  0  0  0  0  0  0  0  0
    3.2831   -5.8785    4.0506 H   0  0  0  0  0  0  0  0  0  0  0  0
    2.8918   -6.3680    1.6245 H   0  0  0  0  0  0  0  0  0  0  0  0
    6.3557   -6.9949    0.5378 H   0  0  0  0  0  0  0  0  0  0  0  0
    4.8905   -7.7506    1.1380 H   0  0  0  0  0  0  0  0  0  0  0  0
    6.1173   -7.0743    2.2156 H   0  0  0  0  0  0  0  0  0  0  0  0
    5.5383   -5.7098   -0.8903 H   0  0  0  0  0  0  0  0  0  0  0  0
    4.1592   -4.7583   -0.7894 H   0  0  0  0  0  0  0  0  0  0  0  0
    3.9894   -6.4538   -0.5489 H   0  0  0  0  0  0  0  0  0  0  0  0
    6.4984   -4.9407    2.1312 H   0  0  0  0  0  0  0  0  0  0  0  0
    5.9668   -2.2683    1.8374 H   0  0  0  0  0  0  0  0  0  0  0  0
    7.7292   -3.3022    1.9874 H   0  0  0  0  0  0  0  0  0  0  0  0
    6.4537   -2.0771   -0.6131 H   0  0  0  0  0  0  0  0  0  0  0  0
    6.1178   -3.6639   -0.9296 H   0  0  0  0  0  0  0  0  0  0  0  0
    3.5866   -0.4624   -0.7163 H   0  0  0  0  0  0  0  0  0  0  0  0
    5.1500   -2.9242   -2.9662 H   0  0  0  0  0  0  0  0  0  0  0  0
    2.6107   -1.0347   -2.9531 H   0  0  0  0  0  0  0  0  0  0  0  0
    2.6667   -1.8724   -5.1795 H   0  0  0  0  0  0  0  0  0  0  0  0
    2.9508   -4.0617   -3.4309 H   0  0  0  0  0  0  0  0  0  0  0  0
    1.2261   -3.1240   -1.5433 H   0  0  0  0  0  0  0  0  0  0  0  0
    2.1832   -4.5104   -1.1474 H   0  0  0  0  0  0  0  0  0  0  0  0
    2.4901   -1.8063   -0.6083 H   0  0  0  0  0  0  0  0  0  0  0  0
  1  2  2  0
  1 28  1  0
  1 29  1  0
  2  9  1  0
  2  3  1  0
  3  4  2  3
  3 30  1  0
  4  5  1  0
  4 31  1  0
  5 27  1  0
  5  6  1  0
  5 32  1  6
  6 12  1  0
  6  7  1  0
  6 33  1  6
  7  8  1  0
  7 34  1  0
  7 35  1  0
  8  9  1  0
  8 36  1  0
  8 37  1  0
  9 10  1  0
  9 38  1  1
 10 16  1  0
 10 11  1  0
 10 39  1  1
 11 12  1  0
 11 40  1  0
 11 41  1  0
 12 13  1  0
 12 42  1  6
 13 14  1  0
 13 15  1  0
 13 16  1  0
 14 43  1  0
 14 44  1  0
 14 45  1  0
 15 46  1  0
 15 47  1  0
 15 48  1  0
 16 17  1  0
 16 49  1  1
 17 18  1  0
 17 19  1  0
 17 50  1  1
 18 51  1  0
 19 20  1  0
 19 52  1  0
 19 53  1  0
 20 27  1  0
 20 21  1  6
 20 22  1  0
 21 54  1  0
 22 25  1  0
 22 23  1  0
 22 55  1  6
 23 24  1  0
 23 25  1  0
 23 56  1  1
 24 57  1  0
 25 26  1  0
 25 58  1  6
 26 27  1  0
 26 59  1  0
 26 60  1  0
 27 61  1  6
M  CHG  1  27   1
M  END
>  <i_m_ct_stereo_status>  (34) 
1

>  <s_m_source_file>  (34) 
/var/tmp/pbs.5076255.sched01/tmpvv81v907/0tx7qkblw.sdf

>  <i_m_source_file_index>  (34) 
15

>  <i_lp_mmshare_version>  (34) 
48012

>  <i_f3d_flags>  (34) 
0

>  <s_epik_input>  (34) 
W0NIXVwxPVtDSF1cQyg9W0NIMl0pW0NAQEhdKFtDSDJdW0NIMl0yKVtDQEhdKFtDSF0oQzMoW0NIM10pW0NIM10pW0NAQEhdKFtPSF0pW0NIMl00KVtDSDJdW0NASF0zW0NAQEhdMltDQEBIXTFONVtDSDJdW0NAQEhdKFtDQEBIXTZbT0hdKVtDQEBIXTZbQ0BdNDVbT0hd

>  <s_epik_cmdline>  (34) 
J2VwaWtfcHl0aG9uJywgJy1waHQnLCAnMi4wJywgJy1waCcsICc3LjAnLCAnLXRuJywgJzgnLCAnLW1hJywgJzIwMCcsICctaW1hZScsICc8aW5maWxlLm1hZT4nLCAnLW9tYWUnLCAnPG91dGZpbGUubWFlPic=

>  <r_epik_Ionization_Penalty>  (34) 
0.174465

>  <r_epik_Ionization_Penalty_Charging>  (34) 
0.172252

>  <r_epik_Ionization_Penalty_Neutral>  (34) 
0.00221273

>  <r_epik_State_Penalty>  (34) 
0.16281

>  <r_epik_Charging_Adjusted_Penalty>  (34) 
0.335063

>  <i_epik_Tot_Q>  (34) 
1

>  <i_epik_Tot_abs_Q>  (34) 
1

>  <s_lp_Force_Field>  (34) 
OPLS3e

>  <r_lp_Energy>  (34) 
198.78

>  <b_lp_Chiralities_Consistent>  (34) 
1

>  <s_lp_Variant>  (34) 
5:0-8

>  <s_i_glide_gridfile>  (34) 
pfpi4k_grid

>  <i_i_glide_lignum>  (34) 
15

>  <i_i_glide_rotatable_bonds>  (34) 
3

>  <r_i_docking_score>  (34) 
-5.17415

>  <r_i_glide_ligand_efficiency>  (34) 
-0.191635

>  <r_i_glide_ligand_efficiency_sa>  (34) 
-0.574906

>  <r_i_glide_ligand_efficiency_ln>  (34) 
-1.20446

>  <r_i_glide_gscore>  (34) 
-5.17415

>  <r_i_glide_lipo>  (34) 
-0.616638

>  <r_i_glide_hbond>  (34) 
-0.798283

>  <r_i_glide_metal>  (34) 
-0

>  <r_i_glide_rewards>  (34) 
-0.869175

>  <r_i_glide_evdw>  (34) 
-16.7181

>  <r_i_glide_ecoul>  (34) 
-13.1887

>  <r_i_glide_erotb>  (34) 
0

>  <r_i_glide_esite>  (34) 
-0.0758494

>  <r_i_glide_emodel>  (34) 
-38.3944

>  <r_i_glide_energy>  (34) 
-29.9068

>  <r_i_glide_einternal>  (34) 
1.56584

>  <r_i_glide_intrahb_reward>  (34) 
-0

>  <i_i_glide_confnum>  (34) 
1

>  <i_i_glide_posenum>  (34) 
34

>  <r_i_glide_eff_state_penalty>  (34) 
0

>  <ligand_id>  (34) 
5

>  <original_smiles>  (34) 
C=C1C=CC2C3CCC1C1CC3C(C)(C)C1C(O)CC1(O)C3C(O)C3CN21

>  <smiles>  (34) 
[H]OC1([H])C([H])([H])C2(O[H])C3([H])C([H])(O[H])C3([H])C([H])([H])[N+]2([H])C2([H])C([H])=C([H])C(=C([H])[H])C3([H])C([H])([H])C([H])([H])C2([H])C2([H])C([H])([H])C3([H])C1([H])C2(C([H])([H])[H])C([H])([H])[H]

$$$$
5:7:2
     RDKit          3D

 61 66  0  0  1  0  0  0  0  0999 V2000
    5.3349   -0.8780    4.3621 C   0  0  0  0  0  0  0  0  0  0  0  0
    4.4019   -1.6836    3.8346 C   0  0  0  0  0  0  0  0  0  0  0  0
    3.3281   -1.1389    3.0417 C   0  0  0  0  0  0  0  0  0  0  0  0
    3.4276   -1.4903    1.7667 C   0  0  0  0  0  0  0  0  0  0  0  0
    2.7966   -2.7054    1.1042 C   0  0  2  0  0  0  0  0  0  0  0  0
    2.6315   -4.1275    1.8654 C   0  0  2  0  0  0  0  0  0  0  0  0
    1.9208   -3.9132    3.2450 C   0  0  0  0  0  0  0  0  0  0  0  0
    2.7941   -3.5101    4.4777 C   0  0  0  0  0  0  0  0  0  0  0  0
    4.2956   -3.1655    4.1880 C   0  0  1  0  0  0  0  0  0  0  0  0
    5.1289   -4.2684    3.3909 C   0  0  1  0  0  0  0  0  0  0  0  0
    4.2533   -5.5283    3.3566 C   0  0  0  0  0  0  0  0  0  0  0  0
    3.6342   -5.3909    1.9653 C   0  0  2  0  0  0  0  0  0  0  0  0
    4.9392   -5.4297    1.1593 C   0  0  0  0  0  0  0  0  0  0  0  0
    5.7412   -6.7726    1.3020 C   0  0  0  0  0  0  0  0  0  0  0  0
    4.6940   -5.5095   -0.3350 C   0  0  0  0  0  0  0  0  0  0  0  0
    5.7026   -4.2686    1.8779 C   0  0  1  0  0  0  0  0  0  0  0  0
    6.1089   -2.9658    1.0856 C   0  0  1  0  0  0  0  0  0  0  0  0
    7.5096   -2.9669    0.8727 O   0  0  0  0  0  0  0  0  0  0  0  0
    5.7177   -2.7339   -0.4098 C   0  0  0  0  0  0  0  0  0  0  0  0
    4.3499   -2.1984   -0.9612 C   0  0  1  0  0  0  0  0  0  0  0  0
    4.3526   -0.7804   -0.9001 O   0  0  0  0  0  0  0  0  0  0  0  0
    4.1978   -2.5169   -2.4270 C   0  0  2  0  0  0  0  0  0  0  0  0
    3.0901   -1.9129   -3.2344 C   0  0  1  0  0  0  0  0  0  0  0  0
    3.4675   -1.9829   -4.5697 O   0  0  0  0  0  0  0  0  0  0  0  0
    2.9026   -3.2696   -2.6258 C   0  0  2  0  0  0  0  0  0  0  0  0
    2.2258   -3.4646   -1.2987 C   0  0  0  0  0  0  0  0  0  0  0  0
    3.0179   -2.6081   -0.3666 N   0  0  1  0  0  0  0  0  0  0  0  0
    6.0690   -1.2578    5.0516 H   0  0  0  0  0  0  0  0  0  0  0  0
    5.3789    0.1743    4.1298 H   0  0  0  0  0  0  0  0  0  0  0  0
    2.3598   -1.2742    3.4946 H   0  0  0  0  0  0  0  0  0  0  0  0
    4.3686   -1.2140    1.3676 H   0  0  0  0  0  0  0  0  0  0  0  0
    1.7701   -2.3567    1.1332 H   0  0  0  0  0  0  0  0  0  0  0  0
    1.8481   -4.5719    1.2574 H   0  0  0  0  0  0  0  0  0  0  0  0
    1.1148   -3.1889    3.1308 H   0  0  0  0  0  0  0  0  0  0  0  0
    1.3999   -4.8366    3.4945 H   0  0  0  0  0  0  0  0  0  0  0  0
    2.3126   -2.6966    5.0163 H   0  0  0  0  0  0  0  0  0  0  0  0
    2.7265   -4.2825    5.2417 H   0  0  0  0  0  0  0  0  0  0  0  0
    4.7322   -3.2071    5.1864 H   0  0  0  0  0  0  0  0  0  0  0  0
    5.9817   -4.4859    4.0328 H   0  0  0  0  0  0  0  0  0  0  0  0
    4.8556   -6.4122    3.4972 H   0  0  0  0  0  0  0  0  0  0  0  0
    3.5435   -5.7387    4.1432 H   0  0  0  0  0  0  0  0  0  0  0  0
    3.0579   -6.2910    1.7482 H   0  0  0  0  0  0  0  0  0  0  0  0
    6.4954   -6.8643    0.5228 H   0  0  0  0  0  0  0  0  0  0  0  0
    5.0767   -7.6355    1.2118 H   0  0  0  0  0  0  0  0  0  0  0  0
    6.3280   -6.8878    2.2136 H   0  0  0  0  0  0  0  0  0  0  0  0
    5.6178   -5.5856   -0.8928 H   0  0  0  0  0  0  0  0  0  0  0  0
    4.2034   -4.6842   -0.7612 H   0  0  0  0  0  0  0  0  0  0  0  0
    4.0981   -6.3859   -0.5887 H   0  0  0  0  0  0  0  0  0  0  0  0
    6.6829   -4.7111    2.0522 H   0  0  0  0  0  0  0  0  0  0  0  0
    6.0099   -2.1181    1.7441 H   0  0  0  0  0  0  0  0  0  0  0  0
    7.7602   -3.8274    0.5890 H   0  0  0  0  0  0  0  0  0  0  0  0
    6.3811   -1.9396   -0.7430 H   0  0  0  0  0  0  0  0  0  0  0  0
    6.1086   -3.5544   -1.0068 H   0  0  0  0  0  0  0  0  0  0  0  0
    3.4851   -0.4256   -1.0217 H   0  0  0  0  0  0  0  0  0  0  0  0
    5.0626   -2.8852   -2.9723 H   0  0  0  0  0  0  0  0  0  0  0  0
    2.4934   -1.0631   -2.9014 H   0  0  0  0  0  0  0  0  0  0  0  0
    2.6677   -1.9490   -5.0796 H   0  0  0  0  0  0  0  0  0  0  0  0
    2.8561   -4.0850   -3.3376 H   0  0  0  0  0  0  0  0  0  0  0  0
    1.2090   -3.0873   -1.4150 H   0  0  0  0  0  0  0  0  0  0  0  0
    2.1836   -4.5158   -1.0317 H   0  0  0  0  0  0  0  0  0  0  0  0
    2.4692   -1.7779   -0.5367 H   0  0  0  0  0  0  0  0  0  0  0  0
  1  2  2  0
  1 28  1  0
  1 29  1  0
  2  9  1  0
  2  3  1  0
  3  4  2  3
  3 30  1  0
  4  5  1  0
  4 31  1  0
  5 27  1  0
  5  6  1  0
  5 32  1  6
  6 12  1  0
  6  7  1  0
  6 33  1  6
  7  8  1  0
  7 34  1  0
  7 35  1  0
  8  9  1  0
  8 36  1  0
  8 37  1  0
  9 10  1  0
  9 38  1  1
 10 16  1  0
 10 11  1  0
 10 39  1  1
 11 12  1  0
 11 40  1  0
 11 41  1  0
 12 13  1  0
 12 42  1  6
 13 14  1  0
 13 15  1  0
 13 16  1  0
 14 43  1  0
 14 44  1  0
 14 45  1  0
 15 46  1  0
 15 47  1  0
 15 48  1  0
 16 17  1  0
 16 49  1  1
 17 18  1  0
 17 19  1  0
 17 50  1  1
 18 51  1  0
 19 20  1  0
 19 52  1  0
 19 53  1  0
 20 27  1  0
 20 21  1  6
 20 22  1  0
 21 54  1  0
 22 25  1  0
 22 23  1  0
 22 55  1  6
 23 24  1  0
 23 25  1  0
 23 56  1  1
 24 57  1  0
 25 26  1  0
 25 58  1  6
 26 27  1  0
 26 59  1  0
 26 60  1  0
 27 61  1  6
M  CHG  1  27   1
M  END
>  <i_m_ct_stereo_status>  (35) 
1

>  <s_m_source_file>  (35) 
/var/tmp/pbs.5076255.sched01/tmpvv81v907/0tx7qkblw.sdf

>  <i_m_source_file_index>  (35) 
15

>  <i_lp_mmshare_version>  (35) 
48012

>  <i_f3d_flags>  (35) 
0

>  <s_epik_input>  (35) 
W0NIXVwxPVtDSF1cQyg9W0NIMl0pW0NAQEhdKFtDSDJdW0NIMl0yKVtDQEhdKFtDSF0oQzMoW0NIM10pW0NIM10pW0NAQEhdKFtPSF0pW0NIMl00KVtDSDJdW0NASF0zW0NAQEhdMltDQEBIXTFONVtDSDJdW0NAQEhdKFtDQEBIXTZbT0hdKVtDQEBIXTZbQ0BdNDVbT0hd

>  <s_epik_cmdline>  (35) 
J2VwaWtfcHl0aG9uJywgJy1waHQnLCAnMi4wJywgJy1waCcsICc3LjAnLCAnLXRuJywgJzgnLCAnLW1hJywgJzIwMCcsICctaW1hZScsICc8aW5maWxlLm1hZT4nLCAnLW9tYWUnLCAnPG91dGZpbGUubWFlPic=

>  <r_epik_Ionization_Penalty>  (35) 
0.174465

>  <r_epik_Ionization_Penalty_Charging>  (35) 
0.172252

>  <r_epik_Ionization_Penalty_Neutral>  (35) 
0.00221273

>  <r_epik_State_Penalty>  (35) 
0.16281

>  <r_epik_Charging_Adjusted_Penalty>  (35) 
0.335063

>  <i_epik_Tot_Q>  (35) 
1

>  <i_epik_Tot_abs_Q>  (35) 
1

>  <s_lp_Force_Field>  (35) 
OPLS3e

>  <r_lp_Energy>  (35) 
198.78

>  <b_lp_Chiralities_Consistent>  (35) 
1

>  <s_lp_Variant>  (35) 
5:0-8

>  <s_i_glide_gridfile>  (35) 
pfpi4k_grid

>  <i_i_glide_lignum>  (35) 
15

>  <i_i_glide_rotatable_bonds>  (35) 
3

>  <r_i_docking_score>  (35) 
-5.01924

>  <r_i_glide_ligand_efficiency>  (35) 
-0.185898

>  <r_i_glide_ligand_efficiency_sa>  (35) 
-0.557693

>  <r_i_glide_ligand_efficiency_ln>  (35) 
-1.1684

>  <r_i_glide_gscore>  (35) 
-5.01924

>  <r_i_glide_lipo>  (35) 
-0.553

>  <r_i_glide_hbond>  (35) 
-0.798859

>  <r_i_glide_metal>  (35) 
-0

>  <r_i_glide_rewards>  (35) 
-0.869175

>  <r_i_glide_evdw>  (35) 
-18.436

>  <r_i_glide_ecoul>  (35) 
-11.9796

>  <r_i_glide_erotb>  (35) 
0

>  <r_i_glide_esite>  (35) 
-0.0794547

>  <r_i_glide_emodel>  (35) 
-38.0626

>  <r_i_glide_energy>  (35) 
-30.4157

>  <r_i_glide_einternal>  (35) 
1.07982

>  <r_i_glide_intrahb_reward>  (35) 
-0

>  <i_i_glide_confnum>  (35) 
1

>  <i_i_glide_posenum>  (35) 
17

>  <r_i_glide_eff_state_penalty>  (35) 
0

>  <ligand_id>  (35) 
5

>  <original_smiles>  (35) 
C=C1C=CC2C3CCC1C1CC3C(C)(C)C1C(O)CC1(O)C3C(O)C3CN21

>  <smiles>  (35) 
[H]OC1([H])C([H])([H])C2(O[H])C3([H])C([H])(O[H])C3([H])C([H])([H])[N+]2([H])C2([H])C([H])=C([H])C(=C([H])[H])C3([H])C([H])([H])C([H])([H])C2([H])C2([H])C([H])([H])C3([H])C1([H])C2(C([H])([H])[H])C([H])([H])[H]

$$$$
5:8:0
     RDKit          3D

 60 65  0  0  1  0  0  0  0  0999 V2000
    3.1305   -2.0600    3.3293 C   0  0  0  0  0  0  0  0  0  0  0  0
    3.3022   -3.0913    2.4839 C   0  0  0  0  0  0  0  0  0  0  0  0
    2.3912   -3.1812    1.3841 C   0  0  0  0  0  0  0  0  0  0  0  0
    2.5798   -3.6595    0.1371 C   0  0  0  0  0  0  0  0  0  0  0  0
    3.8512   -4.0680   -0.5778 C   0  0  2  0  0  0  0  0  0  0  0  0
    4.7396   -5.2808    0.0263 C   0  0  2  0  0  0  0  0  0  0  0  0
    3.8590   -6.1571    0.9524 C   0  0  0  0  0  0  0  0  0  0  0  0
    3.5875   -5.6209    2.3920 C   0  0  0  0  0  0  0  0  0  0  0  0
    4.2162   -4.2443    2.8147 C   0  0  1  0  0  0  0  0  0  0  0  0
    5.7252   -3.9756    2.5028 C   0  0  1  0  0  0  0  0  0  0  0  0
    6.3579   -5.3070    2.1062 C   0  0  0  0  0  0  0  0  0  0  0  0
    6.2610   -5.2130    0.5708 C   0  0  2  0  0  0  0  0  0  0  0  0
    7.0254   -3.8839    0.3466 C   0  0  0  0  0  0  0  0  0  0  0  0
    8.5053   -3.8816    0.8228 C   0  0  0  0  0  0  0  0  0  0  0  0
    7.1919   -3.6042   -1.1481 C   0  0  0  0  0  0  0  0  0  0  0  0
    6.0942   -3.0601    1.2767 C   0  0  2  0  0  0  0  0  0  0  0  0
    6.0689   -1.5381    1.2385 C   0  0  1  0  0  0  0  0  0  0  0  0
    7.3785   -1.0555    1.3532 O   0  0  0  0  0  0  0  0  0  0  0  0
    5.7165   -0.9664   -0.1509 C   0  0  0  0  0  0  0  0  0  0  0  0
    4.4872   -1.4641   -0.9743 C   0  0  1  0  0  0  0  0  0  0  0  0
    3.3906   -1.0492   -0.2127 O   0  0  0  0  0  0  0  0  0  0  0  0
    4.4560   -0.6893   -2.2732 C   0  0  2  0  0  0  0  0  0  0  0  0
    3.2310   -0.6055   -3.1293 C   0  0  1  0  0  0  0  0  0  0  0  0
    3.2942    0.4872   -4.0060 O   0  0  0  0  0  0  0  0  0  0  0  0
    4.2408   -1.6588   -3.3926 C   0  0  2  0  0  0  0  0  0  0  0  0
    4.0316   -3.0189   -2.8123 C   0  0  0  0  0  0  0  0  0  0  0  0
    4.4057   -2.9247   -1.3936 N   0  0  0  0  0  0  0  0  0  0  0  0
    3.7236   -1.9681    4.2219 H   0  0  0  0  0  0  0  0  0  0  0  0
    2.3937   -1.2897    3.1289 H   0  0  0  0  0  0  0  0  0  0  0  0
    1.4142   -2.8167    1.6560 H   0  0  0  0  0  0  0  0  0  0  0  0
    1.7275   -3.6341   -0.5332 H   0  0  0  0  0  0  0  0  0  0  0  0
    3.3481   -4.6470   -1.3502 H   0  0  0  0  0  0  0  0  0  0  0  0
    4.8689   -5.8945   -0.8624 H   0  0  0  0  0  0  0  0  0  0  0  0
    2.9026   -6.3590    0.4697 H   0  0  0  0  0  0  0  0  0  0  0  0
    4.3160   -7.1437    1.0344 H   0  0  0  0  0  0  0  0  0  0  0  0
    2.5073   -5.6109    2.5661 H   0  0  0  0  0  0  0  0  0  0  0  0
    3.9175   -6.3822    3.1025 H   0  0  0  0  0  0  0  0  0  0  0  0
    4.1589   -4.2920    3.9029 H   0  0  0  0  0  0  0  0  0  0  0  0
    6.1822   -3.5766    3.4041 H   0  0  0  0  0  0  0  0  0  0  0  0
    7.3839   -5.3635    2.4609 H   0  0  0  0  0  0  0  0  0  0  0  0
    5.9500   -6.2079    2.5542 H   0  0  0  0  0  0  0  0  0  0  0  0
    6.8171   -6.0595    0.1618 H   0  0  0  0  0  0  0  0  0  0  0  0
    9.0498   -3.0375    0.3842 H   0  0  0  0  0  0  0  0  0  0  0  0
    9.0340   -4.8008    0.5574 H   0  0  0  0  0  0  0  0  0  0  0  0
    8.5997   -3.7996    1.8933 H   0  0  0  0  0  0  0  0  0  0  0  0
    7.3211   -2.6155   -1.5366 H   0  0  0  0  0  0  0  0  0  0  0  0
    6.4194   -4.1117   -1.7229 H   0  0  0  0  0  0  0  0  0  0  0  0
    8.1224   -4.0880   -1.4717 H   0  0  0  0  0  0  0  0  0  0  0  0
    5.1359   -3.0463    0.8944 H   0  0  0  0  0  0  0  0  0  0  0  0
    5.3808   -1.1457    2.0056 H   0  0  0  0  0  0  0  0  0  0  0  0
    7.3514   -0.1780    1.6530 H   0  0  0  0  0  0  0  0  0  0  0  0
    5.6247    0.1079    0.0234 H   0  0  0  0  0  0  0  0  0  0  0  0
    6.5990   -1.0207   -0.7569 H   0  0  0  0  0  0  0  0  0  0  0  0
    2.5676   -1.1848   -0.7111 H   0  0  0  0  0  0  0  0  0  0  0  0
    5.2403    0.0551   -2.4318 H   0  0  0  0  0  0  0  0  0  0  0  0
    2.2640   -0.8395   -2.6969 H   0  0  0  0  0  0  0  0  0  0  0  0
    2.7658    1.1857   -3.6063 H   0  0  0  0  0  0  0  0  0  0  0  0
    4.8431   -1.5764   -4.3042 H   0  0  0  0  0  0  0  0  0  0  0  0
    2.9808   -3.2781   -2.9318 H   0  0  0  0  0  0  0  0  0  0  0  0
    4.6452   -3.7614   -3.3142 H   0  0  0  0  0  0  0  0  0  0  0  0
  1  2  2  0
  1 28  1  0
  1 29  1  0
  2  9  1  0
  2  3  1  0
  3  4  2  3
  3 30  1  0
  4  5  1  0
  4 31  1  0
  5 27  1  0
  5  6  1  0
  5 32  1  6
  6 12  1  0
  6  7  1  0
  6 33  1  6
  7  8  1  0
  7 34  1  0
  7 35  1  0
  8  9  1  0
  8 36  1  0
  8 37  1  0
  9 10  1  0
  9 38  1  1
 10 16  1  0
 10 11  1  0
 10 39  1  1
 11 12  1  0
 11 40  1  0
 11 41  1  0
 12 13  1  0
 12 42  1  6
 13 14  1  0
 13 15  1  0
 13 16  1  0
 14 43  1  0
 14 44  1  0
 14 45  1  0
 15 46  1  0
 15 47  1  0
 15 48  1  0
 16 17  1  0
 16 49  1  6
 17 18  1  0
 17 19  1  0
 17 50  1  1
 18 51  1  0
 19 20  1  0
 19 52  1  0
 19 53  1  0
 20 27  1  0
 20 21  1  1
 20 22  1  0
 21 54  1  0
 22 25  1  0
 22 23  1  0
 22 55  1  6
 23 24  1  0
 23 25  1  0
 23 56  1  1
 24 57  1  0
 25 26  1  0
 25 58  1  6
 26 27  1  0
 26 59  1  0
 26 60  1  0
M  END
>  <i_m_ct_stereo_status>  (36) 
1

>  <s_m_source_file>  (36) 
/var/tmp/pbs.5076255.sched01/tmpvv81v907/0tx7qkblw.sdf

>  <i_m_source_file_index>  (36) 
16

>  <i_lp_mmshare_version>  (36) 
48012

>  <i_f3d_flags>  (36) 
0

>  <s_epik_input>  (36) 
W0NIXVwxPVtDSF1cQyg9W0NIMl0pW0NAQEhdKFtDSDJdW0NIMl0yKVtDQEhdKFtDSF0oQzMoW0NIM10pW0NIM10pW0NAQEhdKFtPSF0pW0NIMl00KVtDSDJdW0NASF0zW0NAQEhdMltDQEBIXTFONVtDSDJdW0NAQEhdKFtDQEBIXTZbT0hdKVtDQEBIXTZbQ0BdNDVbT0hd

>  <s_epik_cmdline>  (36) 
J2VwaWtfcHl0aG9uJywgJy1waHQnLCAnMi4wJywgJy1waCcsICc3LjAnLCAnLXRuJywgJzgnLCAnLW1hJywgJzIwMCcsICctaW1hZScsICc8aW5maWxlLm1hZT4nLCAnLW9tYWUnLCAnPG91dGZpbGUubWFlPic=

>  <r_epik_Ionization_Penalty>  (36) 
0.815981

>  <r_epik_Ionization_Penalty_Charging>  (36) 
0

>  <r_epik_Ionization_Penalty_Neutral>  (36) 
0.815981

>  <r_epik_State_Penalty>  (36) 
0.849717

>  <r_epik_Charging_Adjusted_Penalty>  (36) 
0.849717

>  <i_epik_Tot_Q>  (36) 
0

>  <i_epik_Tot_abs_Q>  (36) 
0

>  <s_lp_Force_Field>  (36) 
OPLS3e

>  <r_lp_Energy>  (36) 
142.391

>  <b_lp_Chiralities_Consistent>  (36) 
1

>  <s_lp_Variant>  (36) 
5:0-9

>  <s_i_glide_gridfile>  (36) 
pfpi4k_grid

>  <i_i_glide_lignum>  (36) 
16

>  <i_i_glide_rotatable_bonds>  (36) 
3

>  <r_i_docking_score>  (36) 
-5.0632

>  <r_i_glide_ligand_efficiency>  (36) 
-0.187526

>  <r_i_glide_ligand_efficiency_sa>  (36) 
-0.562578

>  <r_i_glide_ligand_efficiency_ln>  (36) 
-1.17863

>  <r_i_glide_gscore>  (36) 
-5.0632

>  <r_i_glide_lipo>  (36) 
-1.04707

>  <r_i_glide_hbond>  (36) 
-0.717638

>  <r_i_glide_metal>  (36) 
-0

>  <r_i_glide_rewards>  (36) 
-0.876048

>  <r_i_glide_evdw>  (36) 
-3.57561

>  <r_i_glide_ecoul>  (36) 
-14.6855

>  <r_i_glide_erotb>  (36) 
0

>  <r_i_glide_esite>  (36) 
-0.0408461

>  <r_i_glide_emodel>  (36) 
-18.5518

>  <r_i_glide_energy>  (36) 
-18.2611

>  <r_i_glide_einternal>  (36) 
1.6305

>  <r_i_glide_intrahb_reward>  (36) 
-0

>  <i_i_glide_confnum>  (36) 
1

>  <i_i_glide_posenum>  (36) 
27

>  <r_i_glide_eff_state_penalty>  (36) 
0

>  <ligand_id>  (36) 
5

>  <original_smiles>  (36) 
C=C1C=CC2C3CCC1C1CC3C(C)(C)C1C(O)CC1(O)C3C(O)C3CN21

>  <smiles>  (36) 
[H]OC1([H])C2([H])C([H])([H])N3C4([H])C([H])=C([H])C(=C([H])[H])C5([H])C([H])([H])C([H])([H])C4([H])C4([H])C([H])([H])C5([H])C([H])(C([H])(O[H])C([H])([H])C3(O[H])C12[H])C4(C([H])([H])[H])C([H])([H])[H]

$$$$
5:8:1
     RDKit          3D

 60 65  0  0  1  0  0  0  0  0999 V2000
    3.0379   -2.8701    3.2898 C   0  0  0  0  0  0  0  0  0  0  0  0
    3.3737   -3.8193    2.3907 C   0  0  0  0  0  0  0  0  0  0  0  0
    2.5064   -4.0084    1.2699 C   0  0  0  0  0  0  0  0  0  0  0  0
    2.8297   -4.3236   -0.0074 C   0  0  0  0  0  0  0  0  0  0  0  0
    4.1982   -4.4088   -0.6553 C   0  0  2  0  0  0  0  0  0  0  0  0
    5.2393   -5.5168   -0.0887 C   0  0  2  0  0  0  0  0  0  0  0  0
    4.5216   -6.6201    0.7354 C   0  0  0  0  0  0  0  0  0  0  0  0
    4.1190   -6.2487    2.1852 C   0  0  0  0  0  0  0  0  0  0  0  0
    4.4716   -4.8088    2.6860 C   0  0  1  0  0  0  0  0  0  0  0  0
    5.9221   -4.2678    2.4591 C   0  0  1  0  0  0  0  0  0  0  0  0
    6.8082   -5.4363    2.0177 C   0  0  0  0  0  0  0  0  0  0  0  0
    6.7408   -5.2686    0.4825 C   0  0  2  0  0  0  0  0  0  0  0  0
    7.2808   -3.8251    0.3235 C   0  0  0  0  0  0  0  0  0  0  0  0
    8.7290   -3.6105    0.8329 C   0  0  0  0  0  0  0  0  0  0  0  0
    7.4545   -3.4419   -1.1702 C   0  0  0  0  0  0  0  0  0  0  0  0
    6.2035   -3.2237    1.3083 C   0  0  2  0  0  0  0  0  0  0  0  0
    5.8522   -1.7472    1.3482 C   0  0  1  0  0  0  0  0  0  0  0  0
    6.9743   -1.0517    1.7338 O   0  0  0  0  0  0  0  0  0  0  0  0
    5.5335   -1.1170   -0.0230 C   0  0  0  0  0  0  0  0  0  0  0  0
    4.4249   -1.7416   -0.9245 C   0  0  1  0  0  0  0  0  0  0  0  0
    3.2379   -1.6019   -0.1944 O   0  0  0  0  0  0  0  0  0  0  0  0
    4.2991   -0.9296   -2.1901 C   0  0  2  0  0  0  0  0  0  0  0  0
    3.0747   -1.0074   -3.0583 C   0  0  1  0  0  0  0  0  0  0  0  0
    2.9754    0.1340   -3.8849 O   0  0  0  0  0  0  0  0  0  0  0  0
    4.2552   -1.8628   -3.3450 C   0  0  2  0  0  0  0  0  0  0  0  0
    4.2653   -3.2638   -2.8407 C   0  0  0  0  0  0  0  0  0  0  0  0
    4.5742   -3.1603   -1.4049 N   0  0  0  0  0  0  0  0  0  0  0  0
    3.6064   -2.7272    4.1930 H   0  0  0  0  0  0  0  0  0  0  0  0
    2.2006   -2.2130    3.1132 H   0  0  0  0  0  0  0  0  0  0  0  0
    1.4714   -3.9409    1.5195 H   0  0  0  0  0  0  0  0  0  0  0  0
    2.0137   -4.4406   -0.7002 H   0  0  0  0  0  0  0  0  0  0  0  0
    3.9069   -4.9976   -1.4964 H   0  0  0  0  0  0  0  0  0  0  0  0
    5.4033   -6.0515   -1.0121 H   0  0  0  0  0  0  0  0  0  0  0  0
    3.6339   -6.9481    0.2019 H   0  0  0  0  0  0  0  0  0  0  0  0
    5.1433   -7.5189    0.7664 H   0  0  0  0  0  0  0  0  0  0  0  0
    3.0529   -6.4264    2.3199 H   0  0  0  0  0  0  0  0  0  0  0  0
    4.5728   -6.9727    2.8631 H   0  0  0  0  0  0  0  0  0  0  0  0
    4.4189   -4.9272    3.7626 H   0  0  0  0  0  0  0  0  0  0  0  0
    6.2218   -3.8463    3.4069 H   0  0  0  0  0  0  0  0  0  0  0  0
    7.8197   -5.3368    2.4007 H   0  0  0  0  0  0  0  0  0  0  0  0
    6.5592   -6.4278    2.3907 H   0  0  0  0  0  0  0  0  0  0  0  0
    7.4429   -6.0036    0.0764 H   0  0  0  0  0  0  0  0  0  0  0  0
    9.1331   -2.6505    0.4967 H   0  0  0  0  0  0  0  0  0  0  0  0
    9.4092   -4.4119    0.5478 H   0  0  0  0  0  0  0  0  0  0  0  0
    8.7963   -3.5920    1.8949 H   0  0  0  0  0  0  0  0  0  0  0  0
    7.4349   -2.3945   -1.4696 H   0  0  0  0  0  0  0  0  0  0  0  0
    6.7199   -3.9149   -1.7772 H   0  0  0  0  0  0  0  0  0  0  0  0
    8.4049   -3.8216   -1.5426 H   0  0  0  0  0  0  0  0  0  0  0  0
    5.2627   -3.3224    0.8989 H   0  0  0  0  0  0  0  0  0  0  0  0
    5.0775   -1.5452    2.0843 H   0  0  0  0  0  0  0  0  0  0  0  0
    6.9659   -1.0205    2.6747 H   0  0  0  0  0  0  0  0  0  0  0  0
    5.2369   -0.0940    0.1979 H   0  0  0  0  0  0  0  0  0  0  0  0
    6.4433   -0.9638   -0.5858 H   0  0  0  0  0  0  0  0  0  0  0  0
    2.5398   -1.2169   -0.7195 H   0  0  0  0  0  0  0  0  0  0  0  0
    4.9484   -0.0606   -2.2905 H   0  0  0  0  0  0  0  0  0  0  0  0
    2.1771   -1.4597   -2.6564 H   0  0  0  0  0  0  0  0  0  0  0  0
    2.5551    0.8163   -3.3774 H   0  0  0  0  0  0  0  0  0  0  0  0
    4.8358   -1.6278   -4.2255 H   0  0  0  0  0  0  0  0  0  0  0  0
    3.2759   -3.6892   -3.0166 H   0  0  0  0  0  0  0  0  0  0  0  0
    5.0025   -3.8693   -3.3717 H   0  0  0  0  0  0  0  0  0  0  0  0
  1  2  2  0
  1 28  1  0
  1 29  1  0
  2  9  1  0
  2  3  1  0
  3  4  2  3
  3 30  1  0
  4  5  1  0
  4 31  1  0
  5 27  1  0
  5  6  1  0
  5 32  1  6
  6 12  1  0
  6  7  1  0
  6 33  1  6
  7  8  1  0
  7 34  1  0
  7 35  1  0
  8  9  1  0
  8 36  1  0
  8 37  1  0
  9 10  1  0
  9 38  1  1
 10 16  1  0
 10 11  1  0
 10 39  1  1
 11 12  1  0
 11 40  1  0
 11 41  1  0
 12 13  1  0
 12 42  1  6
 13 14  1  0
 13 15  1  0
 13 16  1  0
 14 43  1  0
 14 44  1  0
 14 45  1  0
 15 46  1  0
 15 47  1  0
 15 48  1  0
 16 17  1  0
 16 49  1  6
 17 18  1  0
 17 19  1  0
 17 50  1  1
 18 51  1  0
 19 20  1  0
 19 52  1  0
 19 53  1  0
 20 27  1  0
 20 21  1  1
 20 22  1  0
 21 54  1  0
 22 25  1  0
 22 23  1  0
 22 55  1  6
 23 24  1  0
 23 25  1  0
 23 56  1  1
 24 57  1  0
 25 26  1  0
 25 58  1  6
 26 27  1  0
 26 59  1  0
 26 60  1  0
M  END
>  <i_m_ct_stereo_status>  (37) 
1

>  <s_m_source_file>  (37) 
/var/tmp/pbs.5076255.sched01/tmpvv81v907/0tx7qkblw.sdf

>  <i_m_source_file_index>  (37) 
16

>  <i_lp_mmshare_version>  (37) 
48012

>  <i_f3d_flags>  (37) 
0

>  <s_epik_input>  (37) 
W0NIXVwxPVtDSF1cQyg9W0NIMl0pW0NAQEhdKFtDSDJdW0NIMl0yKVtDQEhdKFtDSF0oQzMoW0NIM10pW0NIM10pW0NAQEhdKFtPSF0pW0NIMl00KVtDSDJdW0NASF0zW0NAQEhdMltDQEBIXTFONVtDSDJdW0NAQEhdKFtDQEBIXTZbT0hdKVtDQEBIXTZbQ0BdNDVbT0hd

>  <s_epik_cmdline>  (37) 
J2VwaWtfcHl0aG9uJywgJy1waHQnLCAnMi4wJywgJy1waCcsICc3LjAnLCAnLXRuJywgJzgnLCAnLW1hJywgJzIwMCcsICctaW1hZScsICc8aW5maWxlLm1hZT4nLCAnLW9tYWUnLCAnPG91dGZpbGUubWFlPic=

>  <r_epik_Ionization_Penalty>  (37) 
0.815981

>  <r_epik_Ionization_Penalty_Charging>  (37) 
0

>  <r_epik_Ionization_Penalty_Neutral>  (37) 
0.815981

>  <r_epik_State_Penalty>  (37) 
0.849717

>  <r_epik_Charging_Adjusted_Penalty>  (37) 
0.849717

>  <i_epik_Tot_Q>  (37) 
0

>  <i_epik_Tot_abs_Q>  (37) 
0

>  <s_lp_Force_Field>  (37) 
OPLS3e

>  <r_lp_Energy>  (37) 
142.391

>  <b_lp_Chiralities_Consistent>  (37) 
1

>  <s_lp_Variant>  (37) 
5:0-9

>  <s_i_glide_gridfile>  (37) 
pfpi4k_grid

>  <i_i_glide_lignum>  (37) 
16

>  <i_i_glide_rotatable_bonds>  (37) 
3

>  <r_i_docking_score>  (37) 
-3.73933

>  <r_i_glide_ligand_efficiency>  (37) 
-0.138494

>  <r_i_glide_ligand_efficiency_sa>  (37) 
-0.415481

>  <r_i_glide_ligand_efficiency_ln>  (37) 
-0.870455

>  <r_i_glide_gscore>  (37) 
-3.73933

>  <r_i_glide_lipo>  (37) 
-1.04146

>  <r_i_glide_hbond>  (37) 
-0.439651

>  <r_i_glide_metal>  (37) 
-0

>  <r_i_glide_rewards>  (37) 
-0.876048

>  <r_i_glide_evdw>  (37) 
-5.50134

>  <r_i_glide_ecoul>  (37) 
-7.15062

>  <r_i_glide_erotb>  (37) 
0

>  <r_i_glide_esite>  (37) 
-0.0345113

>  <r_i_glide_emodel>  (37) 
-13.7432

>  <r_i_glide_energy>  (37) 
-12.652

>  <r_i_glide_einternal>  (37) 
2.11435

>  <r_i_glide_intrahb_reward>  (37) 
-0

>  <i_i_glide_confnum>  (37) 
2

>  <i_i_glide_posenum>  (37) 
28

>  <r_i_glide_eff_state_penalty>  (37) 
0

>  <ligand_id>  (37) 
5

>  <original_smiles>  (37) 
C=C1C=CC2C3CCC1C1CC3C(C)(C)C1C(O)CC1(O)C3C(O)C3CN21

>  <smiles>  (37) 
[H]OC1([H])C2([H])C([H])([H])N3C4([H])C([H])=C([H])C(=C([H])[H])C5([H])C([H])([H])C([H])([H])C4([H])C4([H])C([H])([H])C5([H])C([H])(C([H])(O[H])C([H])([H])C3(O[H])C12[H])C4(C([H])([H])[H])C([H])([H])[H]

$$$$
5:9:0
     RDKit          3D

 60 65  0  0  1  0  0  0  0  0999 V2000
    5.0299   -0.7493    4.1900 C   0  0  0  0  0  0  0  0  0  0  0  0
    4.3901   -1.6995    3.5041 C   0  0  0  0  0  0  0  0  0  0  0  0
    3.8894   -1.3773    2.1858 C   0  0  0  0  0  0  0  0  0  0  0  0
    2.7654   -1.9628    1.7634 C   0  0  0  0  0  0  0  0  0  0  0  0
    2.6934   -3.2492    0.9182 C   0  0  2  0  0  0  0  0  0  0  0  0
    2.6598   -4.6263    1.8240 C   0  0  2  0  0  0  0  0  0  0  0  0
    1.9844   -4.3583    3.2072 C   0  0  0  0  0  0  0  0  0  0  0  0
    2.8006   -3.5582    4.2813 C   0  0  0  0  0  0  0  0  0  0  0  0
    4.2973   -3.1497    4.0037 C   0  0  1  0  0  0  0  0  0  0  0  0
    5.2517   -4.2238    3.3088 C   0  0  1  0  0  0  0  0  0  0  0  0
    4.5450   -5.5783    3.4505 C   0  0  0  0  0  0  0  0  0  0  0  0
    3.8618   -5.7071    2.0757 C   0  0  2  0  0  0  0  0  0  0  0  0
    5.1013   -5.5884    1.1683 C   0  0  0  0  0  0  0  0  0  0  0  0
    6.2507   -6.6115    1.3844 C   0  0  0  0  0  0  0  0  0  0  0  0
    4.6306   -5.8670   -0.2699 C   0  0  0  0  0  0  0  0  0  0  0  0
    5.5385   -4.2057    1.7426 C   0  0  2  0  0  0  0  0  0  0  0  0
    6.5141   -3.2872    1.0029 C   0  0  1  0  0  0  0  0  0  0  0  0
    7.7976   -3.8701    0.9547 O   0  0  0  0  0  0  0  0  0  0  0  0
    6.0641   -2.9333   -0.4555 C   0  0  0  0  0  0  0  0  0  0  0  0
    4.6014   -2.4991   -0.9032 C   0  0  1  0  0  0  0  0  0  0  0  0
    4.3719   -1.1197   -0.7077 O   0  0  0  0  0  0  0  0  0  0  0  0
    4.4768   -2.6287   -2.4108 C   0  0  2  0  0  0  0  0  0  0  0  0
    3.4778   -1.8541   -3.2473 C   0  0  1  0  0  0  0  0  0  0  0  0
    3.7887   -1.8307   -4.6237 O   0  0  0  0  0  0  0  0  0  0  0  0
    3.1649   -3.2329   -2.7620 C   0  0  2  0  0  0  0  0  0  0  0  0
    2.3922   -3.4331   -1.5106 C   0  0  0  0  0  0  0  0  0  0  0  0
    3.3628   -3.2300   -0.4200 N   0  0  0  0  0  0  0  0  0  0  0  0
    5.4683   -0.9451    5.1604 H   0  0  0  0  0  0  0  0  0  0  0  0
    5.1242    0.2554    3.7931 H   0  0  0  0  0  0  0  0  0  0  0  0
    4.7334   -1.4103    1.5385 H   0  0  0  0  0  0  0  0  0  0  0  0
    1.9456   -1.9287    2.4661 H   0  0  0  0  0  0  0  0  0  0  0  0
    1.6664   -3.1145    0.6350 H   0  0  0  0  0  0  0  0  0  0  0  0
    1.9344   -5.2333    1.2730 H   0  0  0  0  0  0  0  0  0  0  0  0
    1.0254   -3.8632    3.0460 H   0  0  0  0  0  0  0  0  0  0  0  0
    1.7010   -5.3193    3.6365 H   0  0  0  0  0  0  0  0  0  0  0  0
    2.2371   -2.6658    4.5558 H   0  0  0  0  0  0  0  0  0  0  0  0
    2.7693   -4.1364    5.2079 H   0  0  0  0  0  0  0  0  0  0  0  0
    4.7046   -3.0882    5.0166 H   0  0  0  0  0  0  0  0  0  0  0  0
    6.1955   -4.2667    3.8462 H   0  0  0  0  0  0  0  0  0  0  0  0
    5.2680   -6.3708    3.6243 H   0  0  0  0  0  0  0  0  0  0  0  0
    3.8991   -5.7217    4.3062 H   0  0  0  0  0  0  0  0  0  0  0  0
    3.4471   -6.7119    1.9954 H   0  0  0  0  0  0  0  0  0  0  0  0
    6.9267   -6.6157    0.5280 H   0  0  0  0  0  0  0  0  0  0  0  0
    5.8665   -7.6277    1.5006 H   0  0  0  0  0  0  0  0  0  0  0  0
    6.8810   -6.3853    2.2431 H   0  0  0  0  0  0  0  0  0  0  0  0
    5.2146   -5.3911   -1.0533 H   0  0  0  0  0  0  0  0  0  0  0  0
    3.5842   -5.6582   -0.4287 H   0  0  0  0  0  0  0  0  0  0  0  0
    4.6962   -6.9340   -0.4872 H   0  0  0  0  0  0  0  0  0  0  0  0
    4.8025   -3.5391    1.5093 H   0  0  0  0  0  0  0  0  0  0  0  0
    6.6170   -2.3688    1.5735 H   0  0  0  0  0  0  0  0  0  0  0  0
    8.0678   -4.0524    1.8379 H   0  0  0  0  0  0  0  0  0  0  0  0
    6.7185   -2.1179   -0.7695 H   0  0  0  0  0  0  0  0  0  0  0  0
    6.4086   -3.7416   -1.0941 H   0  0  0  0  0  0  0  0  0  0  0  0
    3.4440   -0.9729   -0.7059 H   0  0  0  0  0  0  0  0  0  0  0  0
    5.3269   -3.0740   -2.9313 H   0  0  0  0  0  0  0  0  0  0  0  0
    2.9244   -0.9983   -2.8675 H   0  0  0  0  0  0  0  0  0  0  0  0
    2.9886   -1.6265   -5.0839 H   0  0  0  0  0  0  0  0  0  0  0  0
    3.1390   -4.0358   -3.5082 H   0  0  0  0  0  0  0  0  0  0  0  0
    1.6215   -2.6688   -1.5216 H   0  0  0  0  0  0  0  0  0  0  0  0
    1.9144   -4.4053   -1.4782 H   0  0  0  0  0  0  0  0  0  0  0  0
  1  2  2  0
  1 28  1  0
  1 29  1  0
  2  9  1  0
  2  3  1  0
  3  4  2  3
  3 30  1  0
  4  5  1  0
  4 31  1  0
  5 27  1  0
  5  6  1  0
  5 32  1  6
  6 12  1  0
  6  7  1  0
  6 33  1  6
  7  8  1  0
  7 34  1  0
  7 35  1  0
  8  9  1  0
  8 36  1  0
  8 37  1  0
  9 10  1  0
  9 38  1  1
 10 16  1  0
 10 11  1  0
 10 39  1  1
 11 12  1  0
 11 40  1  0
 11 41  1  0
 12 13  1  0
 12 42  1  1
 13 14  1  0
 13 15  1  0
 13 16  1  0
 14 43  1  0
 14 44  1  0
 14 45  1  0
 15 46  1  0
 15 47  1  0
 15 48  1  0
 16 17  1  0
 16 49  1  6
 17 18  1  0
 17 19  1  0
 17 50  1  1
 18 51  1  0
 19 20  1  0
 19 52  1  0
 19 53  1  0
 20 27  1  0
 20 21  1  6
 20 22  1  0
 21 54  1  0
 22 25  1  0
 22 23  1  0
 22 55  1  6
 23 24  1  0
 23 25  1  0
 23 56  1  1
 24 57  1  0
 25 26  1  0
 25 58  1  6
 26 27  1  0
 26 59  1  0
 26 60  1  0
M  END
>  <i_m_ct_stereo_status>  (38) 
1

>  <s_m_source_file>  (38) 
/var/tmp/pbs.5076255.sched01/tmpvv81v907/0tx7qkblw.sdf

>  <i_m_source_file_index>  (38) 
17

>  <i_lp_mmshare_version>  (38) 
48012

>  <i_f3d_flags>  (38) 
0

>  <s_epik_input>  (38) 
W0NIXVwxPVtDSF1cQyg9W0NIMl0pW0NAQEhdKFtDSDJdW0NIMl0yKVtDQEhdKFtDSF0oQzMoW0NIM10pW0NIM10pW0NAQEhdKFtPSF0pW0NIMl00KVtDSDJdW0NASF0zW0NAQEhdMltDQEBIXTFONVtDSDJdW0NAQEhdKFtDQEBIXTZbT0hdKVtDQEBIXTZbQ0BdNDVbT0hd

>  <s_epik_cmdline>  (38) 
J2VwaWtfcHl0aG9uJywgJy1waHQnLCAnMi4wJywgJy1waCcsICc3LjAnLCAnLXRuJywgJzgnLCAnLW1hJywgJzIwMCcsICctaW1hZScsICc8aW5maWxlLm1hZT4nLCAnLW9tYWUnLCAnPG91dGZpbGUubWFlPic=

>  <r_epik_Ionization_Penalty>  (38) 
0.815981

>  <r_epik_Ionization_Penalty_Charging>  (38) 
0

>  <r_epik_Ionization_Penalty_Neutral>  (38) 
0.815981

>  <r_epik_State_Penalty>  (38) 
0.849717

>  <r_epik_Charging_Adjusted_Penalty>  (38) 
0.849717

>  <i_epik_Tot_Q>  (38) 
0

>  <i_epik_Tot_abs_Q>  (38) 
0

>  <s_lp_Force_Field>  (38) 
OPLS3e

>  <r_lp_Energy>  (38) 
179.593

>  <b_lp_Chiralities_Consistent>  (38) 
1

>  <s_lp_Variant>  (38) 
5:0-10

>  <s_i_glide_gridfile>  (38) 
pfpi4k_grid

>  <i_i_glide_lignum>  (38) 
17

>  <i_i_glide_rotatable_bonds>  (38) 
3

>  <r_i_docking_score>  (38) 
-4.42113

>  <r_i_glide_ligand_efficiency>  (38) 
-0.163745

>  <r_i_glide_ligand_efficiency_sa>  (38) 
-0.491236

>  <r_i_glide_ligand_efficiency_ln>  (38) 
-1.02917

>  <r_i_glide_gscore>  (38) 
-4.42113

>  <r_i_glide_lipo>  (38) 
-0.728318

>  <r_i_glide_hbond>  (38) 
-0.58041

>  <r_i_glide_metal>  (38) 
-0

>  <r_i_glide_rewards>  (38) 
-0.876048

>  <r_i_glide_evdw>  (38) 
-21.9194

>  <r_i_glide_ecoul>  (38) 
-7.5081

>  <r_i_glide_erotb>  (38) 
0

>  <r_i_glide_esite>  (38) 
-0.0141664

>  <r_i_glide_emodel>  (38) 
-36.2464

>  <r_i_glide_energy>  (38) 
-29.4275

>  <r_i_glide_einternal>  (38) 
1.42806

>  <r_i_glide_intrahb_reward>  (38) 
-0

>  <i_i_glide_confnum>  (38) 
2

>  <i_i_glide_posenum>  (38) 
3

>  <r_i_glide_eff_state_penalty>  (38) 
0

>  <ligand_id>  (38) 
5

>  <original_smiles>  (38) 
C=C1C=CC2C3CCC1C1CC3C(C)(C)C1C(O)CC1(O)C3C(O)C3CN21

>  <smiles>  (38) 
[H]OC1([H])C2([H])C([H])([H])N3C4([H])C([H])=C([H])C(=C([H])[H])C5([H])C([H])([H])C([H])([H])C4([H])C4([H])C([H])([H])C5([H])C([H])(C([H])(O[H])C([H])([H])C3(O[H])C12[H])C4(C([H])([H])[H])C([H])([H])[H]

$$$$
5:9:1
     RDKit          3D

 60 65  0  0  1  0  0  0  0  0999 V2000
    4.8073   -0.5428    4.1389 C   0  0  0  0  0  0  0  0  0  0  0  0
    4.2306   -1.5293    3.4405 C   0  0  0  0  0  0  0  0  0  0  0  0
    3.7433   -1.2445    2.1140 C   0  0  0  0  0  0  0  0  0  0  0  0
    2.6663   -1.9045    1.6680 C   0  0  0  0  0  0  0  0  0  0  0  0
    2.6918   -3.1948    0.8272 C   0  0  2  0  0  0  0  0  0  0  0  0
    2.7263   -4.5717    1.7299 C   0  0  2  0  0  0  0  0  0  0  0  0
    2.0076   -4.3412    3.0959 C   0  0  0  0  0  0  0  0  0  0  0  0
    2.7442   -3.4884    4.1909 C   0  0  0  0  0  0  0  0  0  0  0  0
    4.2159   -2.9818    3.9397 C   0  0  1  0  0  0  0  0  0  0  0  0
    5.2440   -3.9934    3.2621 C   0  0  1  0  0  0  0  0  0  0  0  0
    4.6344   -5.3943    3.3868 C   0  0  0  0  0  0  0  0  0  0  0  0
    3.9919   -5.5698    1.9995 C   0  0  2  0  0  0  0  0  0  0  0  0
    5.2422   -5.3640    1.1210 C   0  0  0  0  0  0  0  0  0  0  0  0
    6.4560   -6.3102    1.3532 C   0  0  0  0  0  0  0  0  0  0  0  0
    4.8369   -5.6693   -0.3298 C   0  0  0  0  0  0  0  0  0  0  0  0
    5.5788   -3.9578    1.7060 C   0  0  2  0  0  0  0  0  0  0  0  0
    6.5035   -2.9790    0.9748 C   0  0  1  0  0  0  0  0  0  0  0  0
    7.8108   -3.4994    0.9102 O   0  0  0  0  0  0  0  0  0  0  0  0
    6.0512   -2.6389   -0.4895 C   0  0  0  0  0  0  0  0  0  0  0  0
    4.5642   -2.3249   -0.9570 C   0  0  1  0  0  0  0  0  0  0  0  0
    4.2308   -0.9716   -0.7841 O   0  0  0  0  0  0  0  0  0  0  0  0
    4.4944   -2.4632   -2.4758 C   0  0  2  0  0  0  0  0  0  0  0  0
    3.4651   -1.7412   -3.3340 C   0  0  1  0  0  0  0  0  0  0  0  0
    3.8048   -1.6692   -4.7024 O   0  0  0  0  0  0  0  0  0  0  0  0
    3.2234   -3.1410   -2.8524 C   0  0  2  0  0  0  0  0  0  0  0  0
    2.4499   -3.3927   -1.5999 C   0  0  0  0  0  0  0  0  0  0  0  0
    3.3908   -3.1544   -0.4966 N   0  0  0  0  0  0  0  0  0  0  0  0
    5.2434   -0.7124    5.1146 H   0  0  0  0  0  0  0  0  0  0  0  0
    4.8517    0.4643    3.7424 H   0  0  0  0  0  0  0  0  0  0  0  0
    4.6067   -1.2364    1.4936 H   0  0  0  0  0  0  0  0  0  0  0  0
    1.8312   -1.9124    2.3504 H   0  0  0  0  0  0  0  0  0  0  0  0
    1.6613   -3.1321    0.5215 H   0  0  0  0  0  0  0  0  0  0  0  0
    2.0544   -5.2186    1.1580 H   0  0  0  0  0  0  0  0  0  0  0  0
    1.0228   -3.9092    2.9150 H   0  0  0  0  0  0  0  0  0  0  0  0
    1.7827   -5.3209    3.5222 H   0  0  0  0  0  0  0  0  0  0  0  0
    2.1187   -2.6370    4.4554 H   0  0  0  0  0  0  0  0  0  0  0  0
    2.7406   -4.0702    5.1127 H   0  0  0  0  0  0  0  0  0  0  0  0
    4.5983   -2.8968    4.9568 H   0  0  0  0  0  0  0  0  0  0  0  0
    6.1472   -3.9864    3.8505 H   0  0  0  0  0  0  0  0  0  0  0  0
    5.4096   -6.1306    3.5710 H   0  0  0  0  0  0  0  0  0  0  0  0
    3.9790   -5.5905    4.2286 H   0  0  0  0  0  0  0  0  0  0  0  0
    3.6466   -6.6010    1.9057 H   0  0  0  0  0  0  0  0  0  0  0  0
    7.1448   -6.2709    0.5075 H   0  0  0  0  0  0  0  0  0  0  0  0
    6.1391   -7.3482    1.4627 H   0  0  0  0  0  0  0  0  0  0  0  0
    7.0568   -6.0419    2.2220 H   0  0  0  0  0  0  0  0  0  0  0  0
    5.4043   -5.1512   -1.0941 H   0  0  0  0  0  0  0  0  0  0  0  0
    3.7806   -5.5431   -0.5297 H   0  0  0  0  0  0  0  0  0  0  0  0
    4.9849   -6.7248   -0.5465 H   0  0  0  0  0  0  0  0  0  0  0  0
    4.8051   -3.3392    1.4522 H   0  0  0  0  0  0  0  0  0  0  0  0
    6.5630   -2.0605    1.5545 H   0  0  0  0  0  0  0  0  0  0  0  0
    8.0951   -3.6680    1.7959 H   0  0  0  0  0  0  0  0  0  0  0  0
    6.6598   -1.7849   -0.7906 H   0  0  0  0  0  0  0  0  0  0  0  0
    6.4694   -3.4214   -1.1190 H   0  0  0  0  0  0  0  0  0  0  0  0
    4.5571   -0.6619    0.0391 H   0  0  0  0  0  0  0  0  0  0  0  0
    5.3853   -2.8353   -2.9757 H   0  0  0  0  0  0  0  0  0  0  0  0
    2.8575   -0.9295   -2.9455 H   0  0  0  0  0  0  0  0  0  0  0  0
    2.9983   -1.4967   -5.1750 H   0  0  0  0  0  0  0  0  0  0  0  0
    3.2748   -3.9565   -3.5711 H   0  0  0  0  0  0  0  0  0  0  0  0
    1.6253   -2.6893   -1.5974 H   0  0  0  0  0  0  0  0  0  0  0  0
    2.0285   -4.3929   -1.5556 H   0  0  0  0  0  0  0  0  0  0  0  0
  1  2  2  0
  1 28  1  0
  1 29  1  0
  2  9  1  0
  2  3  1  0
  3  4  2  3
  3 30  1  0
  4  5  1  0
  4 31  1  0
  5 27  1  0
  5  6  1  0
  5 32  1  6
  6 12  1  0
  6  7  1  0
  6 33  1  6
  7  8  1  0
  7 34  1  0
  7 35  1  0
  8  9  1  0
  8 36  1  0
  8 37  1  0
  9 10  1  0
  9 38  1  1
 10 16  1  0
 10 11  1  0
 10 39  1  1
 11 12  1  0
 11 40  1  0
 11 41  1  0
 12 13  1  0
 12 42  1  1
 13 14  1  0
 13 15  1  0
 13 16  1  0
 14 43  1  0
 14 44  1  0
 14 45  1  0
 15 46  1  0
 15 47  1  0
 15 48  1  0
 16 17  1  0
 16 49  1  6
 17 18  1  0
 17 19  1  0
 17 50  1  1
 18 51  1  0
 19 20  1  0
 19 52  1  0
 19 53  1  0
 20 27  1  0
 20 21  1  6
 20 22  1  0
 21 54  1  0
 22 25  1  0
 22 23  1  0
 22 55  1  6
 23 24  1  0
 23 25  1  0
 23 56  1  1
 24 57  1  0
 25 26  1  0
 25 58  1  6
 26 27  1  0
 26 59  1  0
 26 60  1  0
M  END
>  <i_m_ct_stereo_status>  (39) 
1

>  <s_m_source_file>  (39) 
/var/tmp/pbs.5076255.sched01/tmpvv81v907/0tx7qkblw.sdf

>  <i_m_source_file_index>  (39) 
17

>  <i_lp_mmshare_version>  (39) 
48012

>  <i_f3d_flags>  (39) 
0

>  <s_epik_input>  (39) 
W0NIXVwxPVtDSF1cQyg9W0NIMl0pW0NAQEhdKFtDSDJdW0NIMl0yKVtDQEhdKFtDSF0oQzMoW0NIM10pW0NIM10pW0NAQEhdKFtPSF0pW0NIMl00KVtDSDJdW0NASF0zW0NAQEhdMltDQEBIXTFONVtDSDJdW0NAQEhdKFtDQEBIXTZbT0hdKVtDQEBIXTZbQ0BdNDVbT0hd

>  <s_epik_cmdline>  (39) 
J2VwaWtfcHl0aG9uJywgJy1waHQnLCAnMi4wJywgJy1waCcsICc3LjAnLCAnLXRuJywgJzgnLCAnLW1hJywgJzIwMCcsICctaW1hZScsICc8aW5maWxlLm1hZT4nLCAnLW9tYWUnLCAnPG91dGZpbGUubWFlPic=

>  <r_epik_Ionization_Penalty>  (39) 
0.815981

>  <r_epik_Ionization_Penalty_Charging>  (39) 
0

>  <r_epik_Ionization_Penalty_Neutral>  (39) 
0.815981

>  <r_epik_State_Penalty>  (39) 
0.849717

>  <r_epik_Charging_Adjusted_Penalty>  (39) 
0.849717

>  <i_epik_Tot_Q>  (39) 
0

>  <i_epik_Tot_abs_Q>  (39) 
0

>  <s_lp_Force_Field>  (39) 
OPLS3e

>  <r_lp_Energy>  (39) 
179.593

>  <b_lp_Chiralities_Consistent>  (39) 
1

>  <s_lp_Variant>  (39) 
5:0-10

>  <s_i_glide_gridfile>  (39) 
pfpi4k_grid

>  <i_i_glide_lignum>  (39) 
17

>  <i_i_glide_rotatable_bonds>  (39) 
3

>  <r_i_docking_score>  (39) 
-4.32481

>  <r_i_glide_ligand_efficiency>  (39) 
-0.160178

>  <r_i_glide_ligand_efficiency_sa>  (39) 
-0.480535

>  <r_i_glide_ligand_efficiency_ln>  (39) 
-1.00675

>  <r_i_glide_gscore>  (39) 
-4.32481

>  <r_i_glide_lipo>  (39) 
-0.778232

>  <r_i_glide_hbond>  (39) 
-0.579578

>  <r_i_glide_metal>  (39) 
-0

>  <r_i_glide_rewards>  (39) 
-0.876048

>  <r_i_glide_evdw>  (39) 
-22.1308

>  <r_i_glide_ecoul>  (39) 
-6.43033

>  <r_i_glide_erotb>  (39) 
0

>  <r_i_glide_esite>  (39) 
-0.019865

>  <r_i_glide_emodel>  (39) 
-35.4208

>  <r_i_glide_energy>  (39) 
-28.5612

>  <r_i_glide_einternal>  (39) 
1.1239

>  <r_i_glide_intrahb_reward>  (39) 
-0

>  <i_i_glide_confnum>  (39) 
1

>  <i_i_glide_posenum>  (39) 
27

>  <r_i_glide_eff_state_penalty>  (39) 
0

>  <ligand_id>  (39) 
5

>  <original_smiles>  (39) 
C=C1C=CC2C3CCC1C1CC3C(C)(C)C1C(O)CC1(O)C3C(O)C3CN21

>  <smiles>  (39) 
[H]OC1([H])C2([H])C([H])([H])N3C4([H])C([H])=C([H])C(=C([H])[H])C5([H])C([H])([H])C([H])([H])C4([H])C4([H])C([H])([H])C5([H])C([H])(C([H])(O[H])C([H])([H])C3(O[H])C12[H])C4(C([H])([H])[H])C([H])([H])[H]

$$$$
5:9:2
     RDKit          3D

 60 65  0  0  1  0  0  0  0  0999 V2000
    5.1477   -0.7104    4.2533 C   0  0  0  0  0  0  0  0  0  0  0  0
    4.4986   -1.6183    3.5266 C   0  0  0  0  0  0  0  0  0  0  0  0
    4.0560   -1.2521    2.1977 C   0  0  0  0  0  0  0  0  0  0  0  0
    2.9247   -1.7848    1.7222 C   0  0  0  0  0  0  0  0  0  0  0  0
    2.8209   -3.0524    0.8510 C   0  0  2  0  0  0  0  0  0  0  0  0
    2.7252   -4.4415    1.7207 C   0  0  2  0  0  0  0  0  0  0  0  0
    2.0103   -4.1805    3.0854 C   0  0  0  0  0  0  0  0  0  0  0  0
    2.8154   -3.4339    4.2037 C   0  0  0  0  0  0  0  0  0  0  0  0
    4.3341   -3.0760    3.9883 C   0  0  1  0  0  0  0  0  0  0  0  0
    5.2719   -4.1695    3.3052 C   0  0  1  0  0  0  0  0  0  0  0  0
    4.5082   -5.4988    3.3918 C   0  0  0  0  0  0  0  0  0  0  0  0
    3.8727   -5.5734    1.9914 C   0  0  2  0  0  0  0  0  0  0  0  0
    5.1498   -5.4810    1.1352 C   0  0  0  0  0  0  0  0  0  0  0  0
    6.2521   -6.5504    1.3650 C   0  0  0  0  0  0  0  0  0  0  0  0
    4.7209   -5.7086   -0.3259 C   0  0  0  0  0  0  0  0  0  0  0  0
    5.6133   -4.1268    1.7509 C   0  0  2  0  0  0  0  0  0  0  0  0
    6.6456   -3.2379    1.0577 C   0  0  1  0  0  0  0  0  0  0  0  0
    7.9026   -3.8836    1.0302 O   0  0  0  0  0  0  0  0  0  0  0  0
    6.2606   -2.8409   -0.4079 C   0  0  0  0  0  0  0  0  0  0  0  0
    4.8330   -2.3345   -0.8856 C   0  0  1  0  0  0  0  0  0  0  0  0
    4.6553   -0.9572   -0.6651 O   0  0  0  0  0  0  0  0  0  0  0  0
    4.7634   -2.4265   -2.4012 C   0  0  2  0  0  0  0  0  0  0  0  0
    3.7961   -1.6043   -3.2460 C   0  0  1  0  0  0  0  0  0  0  0  0
    4.1685   -1.5265   -4.5988 O   0  0  0  0  0  0  0  0  0  0  0  0
    3.4550   -3.0004   -2.8078 C   0  0  2  0  0  0  0  0  0  0  0  0
    2.6269   -3.1924   -1.5987 C   0  0  0  0  0  0  0  0  0  0  0  0
    3.5586   -3.0372   -0.4603 N   0  0  0  0  0  0  0  0  0  0  0  0
    5.5442   -0.9431    5.2326 H   0  0  0  0  0  0  0  0  0  0  0  0
    5.2941    0.2983    3.8836 H   0  0  0  0  0  0  0  0  0  0  0  0
    4.9228   -1.3035    1.5825 H   0  0  0  0  0  0  0  0  0  0  0  0
    2.0824   -1.7357    2.4001 H   0  0  0  0  0  0  0  0  0  0  0  0
    1.8071   -2.9014    0.5260 H   0  0  0  0  0  0  0  0  0  0  0  0
    1.9989   -5.0115    1.1319 H   0  0  0  0  0  0  0  0  0  0  0  0
    1.0773   -3.6454    2.9014 H   0  0  0  0  0  0  0  0  0  0  0  0
    1.6763   -5.1381    3.4815 H   0  0  0  0  0  0  0  0  0  0  0  0
    2.2765   -2.5259    4.4788 H   0  0  0  0  0  0  0  0  0  0  0  0
    2.7304   -4.0312    5.1167 H   0  0  0  0  0  0  0  0  0  0  0  0
    4.7088   -3.0516    5.0161 H   0  0  0  0  0  0  0  0  0  0  0  0
    6.1934   -4.2704    3.8701 H   0  0  0  0  0  0  0  0  0  0  0  0
    5.1964   -6.3216    3.5698 H   0  0  0  0  0  0  0  0  0  0  0  0
    3.8284   -5.6370    4.2209 H   0  0  0  0  0  0  0  0  0  0  0  0
    3.4251   -6.5588    1.8713 H   0  0  0  0  0  0  0  0  0  0  0  0
    6.9505   -6.5708    0.5273 H   0  0  0  0  0  0  0  0  0  0  0  0
    5.8226   -7.5529    1.4435 H   0  0  0  0  0  0  0  0  0  0  0  0
    6.8610   -6.3701    2.2494 H   0  0  0  0  0  0  0  0  0  0  0  0
    5.3573   -5.2397   -1.0628 H   0  0  0  0  0  0  0  0  0  0  0  0
    3.6945   -5.4507   -0.5217 H   0  0  0  0  0  0  0  0  0  0  0  0
    4.7578   -6.7717   -0.5535 H   0  0  0  0  0  0  0  0  0  0  0  0
    4.9105   -3.4317    1.5054 H   0  0  0  0  0  0  0  0  0  0  0  0
    6.7692   -2.3330    1.6485 H   0  0  0  0  0  0  0  0  0  0  0  0
    7.7637   -4.7696    0.7501 H   0  0  0  0  0  0  0  0  0  0  0  0
    6.9607   -2.0394   -0.6691 H   0  0  0  0  0  0  0  0  0  0  0  0
    6.6092   -3.6436   -1.0579 H   0  0  0  0  0  0  0  0  0  0  0  0
    3.7259   -0.7997   -0.6356 H   0  0  0  0  0  0  0  0  0  0  0  0
    5.6098   -2.8862   -2.9143 H   0  0  0  0  0  0  0  0  0  0  0  0
    3.2851   -0.7342   -2.8486 H   0  0  0  0  0  0  0  0  0  0  0  0
    3.4838   -1.0571   -5.0447 H   0  0  0  0  0  0  0  0  0  0  0  0
    3.4225   -3.8046   -3.5513 H   0  0  0  0  0  0  0  0  0  0  0  0
    1.8807   -2.4108   -1.6646 H   0  0  0  0  0  0  0  0  0  0  0  0
    2.1203   -4.1529   -1.5955 H   0  0  0  0  0  0  0  0  0  0  0  0
  1  2  2  0
  1 28  1  0
  1 29  1  0
  2  9  1  0
  2  3  1  0
  3  4  2  3
  3 30  1  0
  4  5  1  0
  4 31  1  0
  5 27  1  0
  5  6  1  0
  5 32  1  6
  6 12  1  0
  6  7  1  0
  6 33  1  6
  7  8  1  0
  7 34  1  0
  7 35  1  0
  8  9  1  0
  8 36  1  0
  8 37  1  0
  9 10  1  0
  9 38  1  1
 10 16  1  0
 10 11  1  0
 10 39  1  1
 11 12  1  0
 11 40  1  0
 11 41  1  0
 12 13  1  0
 12 42  1  1
 13 14  1  0
 13 15  1  0
 13 16  1  0
 14 43  1  0
 14 44  1  0
 14 45  1  0
 15 46  1  0
 15 47  1  0
 15 48  1  0
 16 17  1  0
 16 49  1  6
 17 18  1  0
 17 19  1  0
 17 50  1  1
 18 51  1  0
 19 20  1  0
 19 52  1  0
 19 53  1  0
 20 27  1  0
 20 21  1  6
 20 22  1  0
 21 54  1  0
 22 25  1  0
 22 23  1  0
 22 55  1  6
 23 24  1  0
 23 25  1  0
 23 56  1  1
 24 57  1  0
 25 26  1  0
 25 58  1  6
 26 27  1  0
 26 59  1  0
 26 60  1  0
M  END
>  <i_m_ct_stereo_status>  (40) 
1

>  <s_m_source_file>  (40) 
/var/tmp/pbs.5076255.sched01/tmpvv81v907/0tx7qkblw.sdf

>  <i_m_source_file_index>  (40) 
17

>  <i_lp_mmshare_version>  (40) 
48012

>  <i_f3d_flags>  (40) 
0

>  <s_epik_input>  (40) 
W0NIXVwxPVtDSF1cQyg9W0NIMl0pW0NAQEhdKFtDSDJdW0NIMl0yKVtDQEhdKFtDSF0oQzMoW0NIM10pW0NIM10pW0NAQEhdKFtPSF0pW0NIMl00KVtDSDJdW0NASF0zW0NAQEhdMltDQEBIXTFONVtDSDJdW0NAQEhdKFtDQEBIXTZbT0hdKVtDQEBIXTZbQ0BdNDVbT0hd

>  <s_epik_cmdline>  (40) 
J2VwaWtfcHl0aG9uJywgJy1waHQnLCAnMi4wJywgJy1waCcsICc3LjAnLCAnLXRuJywgJzgnLCAnLW1hJywgJzIwMCcsICctaW1hZScsICc8aW5maWxlLm1hZT4nLCAnLW9tYWUnLCAnPG91dGZpbGUubWFlPic=

>  <r_epik_Ionization_Penalty>  (40) 
0.815981

>  <r_epik_Ionization_Penalty_Charging>  (40) 
0

>  <r_epik_Ionization_Penalty_Neutral>  (40) 
0.815981

>  <r_epik_State_Penalty>  (40) 
0.849717

>  <r_epik_Charging_Adjusted_Penalty>  (40) 
0.849717

>  <i_epik_Tot_Q>  (40) 
0

>  <i_epik_Tot_abs_Q>  (40) 
0

>  <s_lp_Force_Field>  (40) 
OPLS3e

>  <r_lp_Energy>  (40) 
179.593

>  <b_lp_Chiralities_Consistent>  (40) 
1

>  <s_lp_Variant>  (40) 
5:0-10

>  <s_i_glide_gridfile>  (40) 
pfpi4k_grid

>  <i_i_glide_lignum>  (40) 
17

>  <i_i_glide_rotatable_bonds>  (40) 
3

>  <r_i_docking_score>  (40) 
-3.95852

>  <r_i_glide_ligand_efficiency>  (40) 
-0.146612

>  <r_i_glide_ligand_efficiency_sa>  (40) 
-0.439836

>  <r_i_glide_ligand_efficiency_ln>  (40) 
-0.921479

>  <r_i_glide_gscore>  (40) 
-3.95852

>  <r_i_glide_lipo>  (40) 
-0.739173

>  <r_i_glide_hbond>  (40) 
-0.32

>  <r_i_glide_metal>  (40) 
-0

>  <r_i_glide_rewards>  (40) 
-0.876048

>  <r_i_glide_evdw>  (40) 
-24.4613

>  <r_i_glide_ecoul>  (40) 
-5.22129

>  <r_i_glide_erotb>  (40) 
0

>  <r_i_glide_esite>  (40) 
-0.0170451

>  <r_i_glide_emodel>  (40) 
-35.5257

>  <r_i_glide_energy>  (40) 
-29.6825

>  <r_i_glide_einternal>  (40) 
1.49699

>  <r_i_glide_intrahb_reward>  (40) 
-0

>  <i_i_glide_confnum>  (40) 
2

>  <i_i_glide_posenum>  (40) 
4

>  <r_i_glide_eff_state_penalty>  (40) 
0

>  <ligand_id>  (40) 
5

>  <original_smiles>  (40) 
C=C1C=CC2C3CCC1C1CC3C(C)(C)C1C(O)CC1(O)C3C(O)C3CN21

>  <smiles>  (40) 
[H]OC1([H])C2([H])C([H])([H])N3C4([H])C([H])=C([H])C(=C([H])[H])C5([H])C([H])([H])C([H])([H])C4([H])C4([H])C([H])([H])C5([H])C([H])(C([H])(O[H])C([H])([H])C3(O[H])C12[H])C4(C([H])([H])[H])C([H])([H])[H]

$$$$
5:10:0
     RDKit          3D

 60 65  0  0  1  0  0  0  0  0999 V2000
    4.5859   -0.3923    4.1133 C   0  0  0  0  0  0  0  0  0  0  0  0
    3.8892   -1.3705    3.5188 C   0  0  0  0  0  0  0  0  0  0  0  0
    2.8802   -0.9971    2.5637 C   0  0  0  0  0  0  0  0  0  0  0  0
    2.4198   -1.7478    1.5520 C   0  0  0  0  0  0  0  0  0  0  0  0
    2.8522   -3.0955    0.9429 C   0  0  2  0  0  0  0  0  0  0  0  0
    2.9212   -4.4582    1.7572 C   0  0  2  0  0  0  0  0  0  0  0  0
    2.0456   -4.3616    3.0355 C   0  0  0  0  0  0  0  0  0  0  0  0
    2.6115   -3.4723    4.1670 C   0  0  0  0  0  0  0  0  0  0  0  0
    4.0158   -2.8097    3.9537 C   0  0  1  0  0  0  0  0  0  0  0  0
    5.2012   -3.6584    3.3531 C   0  0  1  0  0  0  0  0  0  0  0  0
    4.7672   -5.1184    3.4520 C   0  0  0  0  0  0  0  0  0  0  0  0
    4.2373   -5.3223    2.0349 C   0  0  2  0  0  0  0  0  0  0  0  0
    5.4988   -4.9662    1.2347 C   0  0  0  0  0  0  0  0  0  0  0  0
    6.7026   -5.9423    1.5167 C   0  0  0  0  0  0  0  0  0  0  0  0
    5.3114   -5.2630   -0.2510 C   0  0  0  0  0  0  0  0  0  0  0  0
    5.8291   -3.5591    1.8699 C   0  0  1  0  0  0  0  0  0  0  0  0
    5.8201   -2.1908    1.0731 C   0  0  1  0  0  0  0  0  0  0  0  0
    7.0158   -1.4679    1.2709 O   0  0  0  0  0  0  0  0  0  0  0  0
    5.6879   -2.1743   -0.4522 C   0  0  0  0  0  0  0  0  0  0  0  0
    4.2649   -2.0486   -0.9790 C   0  0  1  0  0  0  0  0  0  0  0  0
    3.8070   -0.7726   -0.6549 O   0  0  0  0  0  0  0  0  0  0  0  0
    4.2051   -2.2026   -2.4769 C   0  0  2  0  0  0  0  0  0  0  0  0
    3.1048   -1.6328   -3.3467 C   0  0  1  0  0  0  0  0  0  0  0  0
    3.4749   -1.5932   -4.7192 O   0  0  0  0  0  0  0  0  0  0  0  0
    3.0051   -3.0305   -2.8029 C   0  0  2  0  0  0  0  0  0  0  0  0
    2.2943   -3.3467   -1.5268 C   0  0  0  0  0  0  0  0  0  0  0  0
    3.2815   -3.0318   -0.4666 N   0  0  0  0  0  0  0  0  0  0  0  0
    5.3149   -0.6106    4.8781 H   0  0  0  0  0  0  0  0  0  0  0  0
    4.4384    0.6387    3.8274 H   0  0  0  0  0  0  0  0  0  0  0  0
    2.4134   -0.0326    2.6793 H   0  0  0  0  0  0  0  0  0  0  0  0
    1.6675   -1.2428    0.9833 H   0  0  0  0  0  0  0  0  0  0  0  0
    1.8210   -3.2697    0.6740 H   0  0  0  0  0  0  0  0  0  0  0  0
    2.3669   -5.1427    1.1161 H   0  0  0  0  0  0  0  0  0  0  0  0
    1.0520   -3.9972    2.7825 H   0  0  0  0  0  0  0  0  0  0  0  0
    1.8747   -5.3664    3.4162 H   0  0  0  0  0  0  0  0  0  0  0  0
    1.8771   -2.7055    4.4164 H   0  0  0  0  0  0  0  0  0  0  0  0
    2.6413   -4.0762    5.0759 H   0  0  0  0  0  0  0  0  0  0  0  0
    4.3267   -2.6920    4.9920 H   0  0  0  0  0  0  0  0  0  0  0  0
    6.0005   -3.5273    4.0683 H   0  0  0  0  0  0  0  0  0  0  0  0
    5.6040   -5.7630    3.6984 H   0  0  0  0  0  0  0  0  0  0  0  0
    4.0807   -5.3967    4.2430 H   0  0  0  0  0  0  0  0  0  0  0  0
    4.0024   -6.3747    1.8923 H   0  0  0  0  0  0  0  0  0  0  0  0
    7.4836   -5.8603    0.7578 H   0  0  0  0  0  0  0  0  0  0  0  0
    6.3803   -6.9876    1.5076 H   0  0  0  0  0  0  0  0  0  0  0  0
    7.2311   -5.7818    2.4553 H   0  0  0  0  0  0  0  0  0  0  0  0
    6.1773   -4.8970   -0.7767 H   0  0  0  0  0  0  0  0  0  0  0  0
    4.4191   -4.9681   -0.7637 H   0  0  0  0  0  0  0  0  0  0  0  0
    5.3005   -6.3395   -0.4122 H   0  0  0  0  0  0  0  0  0  0  0  0
    6.8990   -3.6506    2.0322 H   0  0  0  0  0  0  0  0  0  0  0  0
    5.0577   -1.5284    1.4336 H   0  0  0  0  0  0  0  0  0  0  0  0
    6.8202   -0.5493    1.2900 H   0  0  0  0  0  0  0  0  0  0  0  0
    6.1894   -1.2674   -0.8194 H   0  0  0  0  0  0  0  0  0  0  0  0
    6.2991   -2.9399   -0.9168 H   0  0  0  0  0  0  0  0  0  0  0  0
    2.8630   -0.8191   -0.7164 H   0  0  0  0  0  0  0  0  0  0  0  0
    5.1147   -2.5519   -2.9760 H   0  0  0  0  0  0  0  0  0  0  0  0
    2.4666   -0.8311   -2.9634 H   0  0  0  0  0  0  0  0  0  0  0  0
    2.6708   -1.6056   -5.2394 H   0  0  0  0  0  0  0  0  0  0  0  0
    3.1046   -3.8477   -3.5081 H   0  0  0  0  0  0  0  0  0  0  0  0
    1.4209   -2.6970   -1.5252 H   0  0  0  0  0  0  0  0  0  0  0  0
    1.9501   -4.3771   -1.4910 H   0  0  0  0  0  0  0  0  0  0  0  0
  1  2  2  0
  1 28  1  0
  1 29  1  0
  2  9  1  0
  2  3  1  0
  3  4  2  3
  3 30  1  0
  4  5  1  0
  4 31  1  0
  5 27  1  0
  5  6  1  0
  5 32  1  6
  6 12  1  0
  6  7  1  0
  6 33  1  6
  7  8  1  0
  7 34  1  0
  7 35  1  0
  8  9  1  0
  8 36  1  0
  8 37  1  0
  9 10  1  0
  9 38  1  1
 10 16  1  0
 10 11  1  0
 10 39  1  1
 11 12  1  0
 11 40  1  0
 11 41  1  0
 12 13  1  0
 12 42  1  1
 13 14  1  0
 13 15  1  0
 13 16  1  0
 14 43  1  0
 14 44  1  0
 14 45  1  0
 15 46  1  0
 15 47  1  0
 15 48  1  0
 16 17  1  0
 16 49  1  1
 17 18  1  0
 17 19  1  0
 17 50  1  1
 18 51  1  0
 19 20  1  0
 19 52  1  0
 19 53  1  0
 20 27  1  0
 20 21  1  6
 20 22  1  0
 21 54  1  0
 22 25  1  0
 22 23  1  0
 22 55  1  6
 23 24  1  0
 23 25  1  0
 23 56  1  1
 24 57  1  0
 25 26  1  0
 25 58  1  6
 26 27  1  0
 26 59  1  0
 26 60  1  0
M  END
>  <i_m_ct_stereo_status>  (41) 
1

>  <s_m_source_file>  (41) 
/var/tmp/pbs.5076255.sched01/tmpvv81v907/0tx7qkblw.sdf

>  <i_m_source_file_index>  (41) 
18

>  <i_lp_mmshare_version>  (41) 
48012

>  <i_f3d_flags>  (41) 
0

>  <s_epik_input>  (41) 
W0NIXVwxPVtDSF1cQyg9W0NIMl0pW0NAQEhdKFtDSDJdW0NIMl0yKVtDQEhdKFtDSF0oQzMoW0NIM10pW0NIM10pW0NAQEhdKFtPSF0pW0NIMl00KVtDSDJdW0NASF0zW0NAQEhdMltDQEBIXTFONVtDSDJdW0NAQEhdKFtDQEBIXTZbT0hdKVtDQEBIXTZbQ0BdNDVbT0hd

>  <s_epik_cmdline>  (41) 
J2VwaWtfcHl0aG9uJywgJy1waHQnLCAnMi4wJywgJy1waCcsICc3LjAnLCAnLXRuJywgJzgnLCAnLW1hJywgJzIwMCcsICctaW1hZScsICc8aW5maWxlLm1hZT4nLCAnLW9tYWUnLCAnPG91dGZpbGUubWFlPic=

>  <r_epik_Ionization_Penalty>  (41) 
0.815981

>  <r_epik_Ionization_Penalty_Charging>  (41) 
0

>  <r_epik_Ionization_Penalty_Neutral>  (41) 
0.815981

>  <r_epik_State_Penalty>  (41) 
0.849717

>  <r_epik_Charging_Adjusted_Penalty>  (41) 
0.849717

>  <i_epik_Tot_Q>  (41) 
0

>  <i_epik_Tot_abs_Q>  (41) 
0

>  <s_lp_Force_Field>  (41) 
OPLS3e

>  <r_lp_Energy>  (41) 
138.574

>  <b_lp_Chiralities_Consistent>  (41) 
1

>  <s_lp_Variant>  (41) 
5:0-11

>  <s_i_glide_gridfile>  (41) 
pfpi4k_grid

>  <i_i_glide_lignum>  (41) 
18

>  <i_i_glide_rotatable_bonds>  (41) 
3

>  <r_i_docking_score>  (41) 
-4.88753

>  <r_i_glide_ligand_efficiency>  (41) 
-0.18102

>  <r_i_glide_ligand_efficiency_sa>  (41) 
-0.543059

>  <r_i_glide_ligand_efficiency_ln>  (41) 
-1.13774

>  <r_i_glide_gscore>  (41) 
-4.88753

>  <r_i_glide_lipo>  (41) 
-0.696604

>  <r_i_glide_hbond>  (41) 
-0.795046

>  <r_i_glide_metal>  (41) 
-0

>  <r_i_glide_rewards>  (41) 
-0.876048

>  <r_i_glide_evdw>  (41) 
-16.5935

>  <r_i_glide_ecoul>  (41) 
-11.0758

>  <r_i_glide_erotb>  (41) 
0

>  <r_i_glide_esite>  (41) 
-0.0287867

>  <r_i_glide_emodel>  (41) 
-34.9358

>  <r_i_glide_energy>  (41) 
-27.6693

>  <r_i_glide_einternal>  (41) 
1.5627

>  <r_i_glide_intrahb_reward>  (41) 
-0

>  <i_i_glide_confnum>  (41) 
2

>  <i_i_glide_posenum>  (41) 
30

>  <r_i_glide_eff_state_penalty>  (41) 
0

>  <ligand_id>  (41) 
5

>  <original_smiles>  (41) 
C=C1C=CC2C3CCC1C1CC3C(C)(C)C1C(O)CC1(O)C3C(O)C3CN21

>  <smiles>  (41) 
[H]OC1([H])C2([H])C([H])([H])N3C4([H])C([H])=C([H])C(=C([H])[H])C5([H])C([H])([H])C([H])([H])C4([H])C4([H])C([H])([H])C5([H])C([H])(C([H])(O[H])C([H])([H])C3(O[H])C12[H])C4(C([H])([H])[H])C([H])([H])[H]

$$$$
5:10:1
     RDKit          3D

 60 65  0  0  1  0  0  0  0  0999 V2000
    3.2740   -3.1135    4.0723 C   0  0  0  0  0  0  0  0  0  0  0  0
    3.4130   -3.7672    2.9071 C   0  0  0  0  0  0  0  0  0  0  0  0
    2.4872   -3.4784    1.8441 C   0  0  0  0  0  0  0  0  0  0  0  0
    2.6591   -3.6436    0.5126 C   0  0  0  0  0  0  0  0  0  0  0  0
    3.8589   -4.0094   -0.3540 C   0  0  2  0  0  0  0  0  0  0  0  0
    4.7789   -5.2867   -0.1214 C   0  0  2  0  0  0  0  0  0  0  0  0
    3.9606   -6.3783    0.6082 C   0  0  0  0  0  0  0  0  0  0  0  0
    3.7289   -6.1592    2.1207 C   0  0  0  0  0  0  0  0  0  0  0  0
    4.3836   -4.9061    2.7736 C   0  0  1  0  0  0  0  0  0  0  0  0
    5.8540   -4.5346    2.4201 C   0  0  1  0  0  0  0  0  0  0  0  0
    6.4873   -5.7469    1.7674 C   0  0  0  0  0  0  0  0  0  0  0  0
    6.3160   -5.3208    0.3133 C   0  0  2  0  0  0  0  0  0  0  0  0
    7.1201   -4.0072    0.2691 C   0  0  0  0  0  0  0  0  0  0  0  0
    8.6319   -4.2294    0.6290 C   0  0  0  0  0  0  0  0  0  0  0  0
    7.3462   -3.3884   -1.1460 C   0  0  0  0  0  0  0  0  0  0  0  0
    6.3598   -3.3366    1.4786 C   0  0  1  0  0  0  0  0  0  0  0  0
    5.6018   -1.9674    1.4036 C   0  0  1  0  0  0  0  0  0  0  0  0
    6.0209   -1.0924    2.4336 O   0  0  0  0  0  0  0  0  0  0  0  0
    5.6138   -1.1661    0.0990 C   0  0  0  0  0  0  0  0  0  0  0  0
    4.4735   -1.5328   -0.8841 C   0  0  1  0  0  0  0  0  0  0  0  0
    3.3306   -1.0816   -0.2278 O   0  0  0  0  0  0  0  0  0  0  0  0
    4.5912   -0.8152   -2.2071 C   0  0  2  0  0  0  0  0  0  0  0  0
    3.4475   -0.5351   -3.1477 C   0  0  1  0  0  0  0  0  0  0  0  0
    3.8040    0.4597   -4.0663 O   0  0  0  0  0  0  0  0  0  0  0  0
    4.2347   -1.7915   -3.2805 C   0  0  2  0  0  0  0  0  0  0  0  0
    3.7750   -3.0534   -2.6338 C   0  0  0  0  0  0  0  0  0  0  0  0
    4.2998   -2.9407   -1.2676 N   0  0  0  0  0  0  0  0  0  0  0  0
    3.9125   -3.3178    4.9202 H   0  0  0  0  0  0  0  0  0  0  0  0
    2.5325   -2.3347    4.1857 H   0  0  0  0  0  0  0  0  0  0  0  0
    1.5175   -3.1202    2.1529 H   0  0  0  0  0  0  0  0  0  0  0  0
    1.8261   -3.3376   -0.0909 H   0  0  0  0  0  0  0  0  0  0  0  0
    3.1983   -4.5350   -1.0451 H   0  0  0  0  0  0  0  0  0  0  0  0
    4.8613   -5.6678   -1.1347 H   0  0  0  0  0  0  0  0  0  0  0  0
    2.9919   -6.4740    0.1230 H   0  0  0  0  0  0  0  0  0  0  0  0
    4.4501   -7.3419    0.4488 H   0  0  0  0  0  0  0  0  0  0  0  0
    2.6604   -6.1597    2.3231 H   0  0  0  0  0  0  0  0  0  0  0  0
    4.0826   -7.0463    2.6419 H   0  0  0  0  0  0  0  0  0  0  0  0
    4.4747   -5.2470    3.8042 H   0  0  0  0  0  0  0  0  0  0  0  0
    6.2931   -4.4250    3.4018 H   0  0  0  0  0  0  0  0  0  0  0  0
    7.5196   -5.8801    2.0590 H   0  0  0  0  0  0  0  0  0  0  0  0
    6.0911   -6.7240    2.0180 H   0  0  0  0  0  0  0  0  0  0  0  0
    6.8109   -6.0785   -0.2756 H   0  0  0  0  0  0  0  0  0  0  0  0
    9.2389   -3.3632    0.3572 H   0  0  0  0  0  0  0  0  0  0  0  0
    9.0329   -5.0830    0.0792 H   0  0  0  0  0  0  0  0  0  0  0  0
    8.8595   -4.3883    1.6832 H   0  0  0  0  0  0  0  0  0  0  0  0
    7.8050   -2.4086   -1.1521 H   0  0  0  0  0  0  0  0  0  0  0  0
    6.5200   -3.4392   -1.8312 H   0  0  0  0  0  0  0  0  0  0  0  0
    8.1411   -3.8999   -1.6844 H   0  0  0  0  0  0  0  0  0  0  0  0
    7.2078   -3.0305    2.0598 H   0  0  0  0  0  0  0  0  0  0  0  0
    4.5701   -2.0993    1.6302 H   0  0  0  0  0  0  0  0  0  0  0  0
    6.8645   -0.7295    2.2114 H   0  0  0  0  0  0  0  0  0  0  0  0
    5.4321   -0.1203    0.3551 H   0  0  0  0  0  0  0  0  0  0  0  0
    6.5910   -1.1027   -0.3489 H   0  0  0  0  0  0  0  0  0  0  0  0
    2.5251   -1.2401   -0.7167 H   0  0  0  0  0  0  0  0  0  0  0  0
    5.5073   -0.2655   -2.3430 H   0  0  0  0  0  0  0  0  0  0  0  0
    2.4186   -0.5143   -2.7950 H   0  0  0  0  0  0  0  0  0  0  0  0
    3.3092    1.2328   -3.8259 H   0  0  0  0  0  0  0  0  0  0  0  0
    4.8987   -1.8729   -4.1247 H   0  0  0  0  0  0  0  0  0  0  0  0
    2.6785   -3.0724   -2.6816 H   0  0  0  0  0  0  0  0  0  0  0  0
    4.1805   -3.9193   -3.1733 H   0  0  0  0  0  0  0  0  0  0  0  0
  1  2  2  0
  1 28  1  0
  1 29  1  0
  2  9  1  0
  2  3  1  0
  3  4  2  3
  3 30  1  0
  4  5  1  0
  4 31  1  0
  5 27  1  0
  5  6  1  0
  5 32  1  6
  6 12  1  0
  6  7  1  0
  6 33  1  6
  7  8  1  0
  7 34  1  0
  7 35  1  0
  8  9  1  0
  8 36  1  0
  8 37  1  0
  9 10  1  0
  9 38  1  1
 10 16  1  0
 10 11  1  0
 10 39  1  1
 11 12  1  0
 11 40  1  0
 11 41  1  0
 12 13  1  0
 12 42  1  6
 13 14  1  0
 13 15  1  0
 13 16  1  0
 14 43  1  0
 14 44  1  0
 14 45  1  0
 15 46  1  0
 15 47  1  0
 15 48  1  0
 16 17  1  0
 16 49  1  1
 17 18  1  0
 17 19  1  0
 17 50  1  1
 18 51  1  0
 19 20  1  0
 19 52  1  0
 19 53  1  0
 20 27  1  0
 20 21  1  1
 20 22  1  0
 21 54  1  0
 22 25  1  0
 22 23  1  0
 22 55  1  6
 23 24  1  0
 23 25  1  0
 23 56  1  1
 24 57  1  0
 25 26  1  0
 25 58  1  6
 26 27  1  0
 26 59  1  0
 26 60  1  0
M  END
>  <i_m_ct_stereo_status>  (42) 
1

>  <s_m_source_file>  (42) 
/var/tmp/pbs.5076255.sched01/tmpvv81v907/0tx7qkblw.sdf

>  <i_m_source_file_index>  (42) 
18

>  <i_lp_mmshare_version>  (42) 
48012

>  <i_f3d_flags>  (42) 
0

>  <s_epik_input>  (42) 
W0NIXVwxPVtDSF1cQyg9W0NIMl0pW0NAQEhdKFtDSDJdW0NIMl0yKVtDQEhdKFtDSF0oQzMoW0NIM10pW0NIM10pW0NAQEhdKFtPSF0pW0NIMl00KVtDSDJdW0NASF0zW0NAQEhdMltDQEBIXTFONVtDSDJdW0NAQEhdKFtDQEBIXTZbT0hdKVtDQEBIXTZbQ0BdNDVbT0hd

>  <s_epik_cmdline>  (42) 
J2VwaWtfcHl0aG9uJywgJy1waHQnLCAnMi4wJywgJy1waCcsICc3LjAnLCAnLXRuJywgJzgnLCAnLW1hJywgJzIwMCcsICctaW1hZScsICc8aW5maWxlLm1hZT4nLCAnLW9tYWUnLCAnPG91dGZpbGUubWFlPic=

>  <r_epik_Ionization_Penalty>  (42) 
0.815981

>  <r_epik_Ionization_Penalty_Charging>  (42) 
0

>  <r_epik_Ionization_Penalty_Neutral>  (42) 
0.815981

>  <r_epik_State_Penalty>  (42) 
0.849717

>  <r_epik_Charging_Adjusted_Penalty>  (42) 
0.849717

>  <i_epik_Tot_Q>  (42) 
0

>  <i_epik_Tot_abs_Q>  (42) 
0

>  <s_lp_Force_Field>  (42) 
OPLS3e

>  <r_lp_Energy>  (42) 
138.574

>  <b_lp_Chiralities_Consistent>  (42) 
1

>  <s_lp_Variant>  (42) 
5:0-11

>  <s_i_glide_gridfile>  (42) 
pfpi4k_grid

>  <i_i_glide_lignum>  (42) 
18

>  <i_i_glide_rotatable_bonds>  (42) 
3

>  <r_i_docking_score>  (42) 
-4.81047

>  <r_i_glide_ligand_efficiency>  (42) 
-0.178166

>  <r_i_glide_ligand_efficiency_sa>  (42) 
-0.534497

>  <r_i_glide_ligand_efficiency_ln>  (42) 
-1.1198

>  <r_i_glide_gscore>  (42) 
-4.81047

>  <r_i_glide_lipo>  (42) 
-1.0024

>  <r_i_glide_hbond>  (42) 
-0.512637

>  <r_i_glide_metal>  (42) 
-0

>  <r_i_glide_rewards>  (42) 
-0.876048

>  <r_i_glide_evdw>  (42) 
-22.6818

>  <r_i_glide_ecoul>  (42) 
-8.31066

>  <r_i_glide_erotb>  (42) 
0

>  <r_i_glide_esite>  (42) 
-0.0387056

>  <r_i_glide_emodel>  (42) 
-38.5769

>  <r_i_glide_energy>  (42) 
-30.9924

>  <r_i_glide_einternal>  (42) 
1.39972

>  <r_i_glide_intrahb_reward>  (42) 
-0

>  <i_i_glide_confnum>  (42) 
1

>  <i_i_glide_posenum>  (42) 
12

>  <r_i_glide_eff_state_penalty>  (42) 
0

>  <ligand_id>  (42) 
5

>  <original_smiles>  (42) 
C=C1C=CC2C3CCC1C1CC3C(C)(C)C1C(O)CC1(O)C3C(O)C3CN21

>  <smiles>  (42) 
[H]OC1([H])C2([H])C([H])([H])N3C4([H])C([H])=C([H])C(=C([H])[H])C5([H])C([H])([H])C([H])([H])C4([H])C4([H])C([H])([H])C5([H])C([H])(C([H])(O[H])C([H])([H])C3(O[H])C12[H])C4(C([H])([H])[H])C([H])([H])[H]

$$$$
5:10:2
     RDKit          3D

 60 65  0  0  1  0  0  0  0  0999 V2000
    3.3500   -3.2416    4.1274 C   0  0  0  0  0  0  0  0  0  0  0  0
    3.4921   -3.8915    2.9648 C   0  0  0  0  0  0  0  0  0  0  0  0
    2.5362   -3.6236    1.9103 C   0  0  0  0  0  0  0  0  0  0  0  0
    2.6994   -3.7758    0.5813 C   0  0  0  0  0  0  0  0  0  0  0  0
    3.8932   -4.1121   -0.2955 C   0  0  2  0  0  0  0  0  0  0  0  0
    4.8448   -5.3640   -0.0909 C   0  0  2  0  0  0  0  0  0  0  0  0
    4.0722   -6.4831    0.6496 C   0  0  0  0  0  0  0  0  0  0  0  0
    3.8581   -6.2735    2.1651 C   0  0  0  0  0  0  0  0  0  0  0  0
    4.4906   -5.0058    2.8116 C   0  0  1  0  0  0  0  0  0  0  0  0
    5.9515   -4.6046    2.4372 C   0  0  1  0  0  0  0  0  0  0  0  0
    6.5996   -5.7960    1.7730 C   0  0  0  0  0  0  0  0  0  0  0  0
    6.3899   -5.3668    0.3263 C   0  0  2  0  0  0  0  0  0  0  0  0
    7.1649   -4.0351    0.2694 C   0  0  0  0  0  0  0  0  0  0  0  0
    8.6865   -4.2123    0.6075 C   0  0  0  0  0  0  0  0  0  0  0  0
    7.3498   -3.4094   -1.1462 C   0  0  0  0  0  0  0  0  0  0  0  0
    6.4050   -3.3906    1.4869 C   0  0  1  0  0  0  0  0  0  0  0  0
    5.5967   -2.0463    1.4229 C   0  0  1  0  0  0  0  0  0  0  0  0
    5.9964   -1.1744    2.4579 O   0  0  0  0  0  0  0  0  0  0  0  0
    5.5803   -1.2235    0.1242 C   0  0  0  0  0  0  0  0  0  0  0  0
    4.4302   -1.6021   -0.8500 C   0  0  1  0  0  0  0  0  0  0  0  0
    3.2865   -1.1737   -0.1765 O   0  0  0  0  0  0  0  0  0  0  0  0
    4.5418   -0.8883   -2.1747 C   0  0  2  0  0  0  0  0  0  0  0  0
    3.3660   -0.6382   -3.1053 C   0  0  1  0  0  0  0  0  0  0  0  0
    3.6979    0.3972   -4.0080 O   0  0  0  0  0  0  0  0  0  0  0  0
    4.1885   -1.8769   -3.2393 C   0  0  2  0  0  0  0  0  0  0  0  0
    3.7594   -3.1480   -2.5917 C   0  0  0  0  0  0  0  0  0  0  0  0
    4.2933   -3.0077   -1.2246 N   0  0  0  0  0  0  0  0  0  0  0  0
    4.0088   -3.4300    4.9668 H   0  0  0  0  0  0  0  0  0  0  0  0
    2.5905   -2.4834    4.2573 H   0  0  0  0  0  0  0  0  0  0  0  0
    1.5603   -3.3006    2.2392 H   0  0  0  0  0  0  0  0  0  0  0  0
    1.8357   -3.5077   -0.0103 H   0  0  0  0  0  0  0  0  0  0  0  0
    3.2378   -4.6281   -0.9869 H   0  0  0  0  0  0  0  0  0  0  0  0
    4.9283   -5.7441   -1.1066 H   0  0  0  0  0  0  0  0  0  0  0  0
    3.1017   -6.6110    0.1814 H   0  0  0  0  0  0  0  0  0  0  0  0
    4.5845   -7.4358    0.4827 H   0  0  0  0  0  0  0  0  0  0  0  0
    2.7922   -6.3040    2.3849 H   0  0  0  0  0  0  0  0  0  0  0  0
    4.2418   -7.1528    2.6805 H   0  0  0  0  0  0  0  0  0  0  0  0
    4.6008   -5.3446    3.8446 H   0  0  0  0  0  0  0  0  0  0  0  0
    6.4225   -4.5268    3.4059 H   0  0  0  0  0  0  0  0  0  0  0  0
    7.6395   -5.8967    2.0545 H   0  0  0  0  0  0  0  0  0  0  0  0
    6.2328   -6.7798    2.0355 H   0  0  0  0  0  0  0  0  0  0  0  0
    6.9033   -6.1151   -0.2910 H   0  0  0  0  0  0  0  0  0  0  0  0
    9.2668   -3.3317    0.3282 H   0  0  0  0  0  0  0  0  0  0  0  0
    9.1054   -5.0538    0.0480 H   0  0  0  0  0  0  0  0  0  0  0  0
    8.9398   -4.3689    1.6560 H   0  0  0  0  0  0  0  0  0  0  0  0
    7.7849   -2.4230   -1.1587 H   0  0  0  0  0  0  0  0  0  0  0  0
    6.5052   -3.4709   -1.8134 H   0  0  0  0  0  0  0  0  0  0  0  0
    8.1487   -3.9064   -1.6956 H   0  0  0  0  0  0  0  0  0  0  0  0
    7.2603   -3.0567    2.0198 H   0  0  0  0  0  0  0  0  0  0  0  0
    4.5728   -2.2026    1.6569 H   0  0  0  0  0  0  0  0  0  0  0  0
    5.3351   -0.5018    2.5451 H   0  0  0  0  0  0  0  0  0  0  0  0
    5.3823   -0.1819    0.3881 H   0  0  0  0  0  0  0  0  0  0  0  0
    6.5479   -1.1469   -0.3333 H   0  0  0  0  0  0  0  0  0  0  0  0
    2.4762   -1.3091   -0.6991 H   0  0  0  0  0  0  0  0  0  0  0  0
    5.4427   -0.3256   -2.3373 H   0  0  0  0  0  0  0  0  0  0  0  0
    2.3556   -0.6580   -2.7280 H   0  0  0  0  0  0  0  0  0  0  0  0
    3.1729    1.1437   -3.7345 H   0  0  0  0  0  0  0  0  0  0  0  0
    4.8318   -1.9482   -4.1082 H   0  0  0  0  0  0  0  0  0  0  0  0
    2.6665   -3.1894   -2.6213 H   0  0  0  0  0  0  0  0  0  0  0  0
    4.1808   -4.0021   -3.1209 H   0  0  0  0  0  0  0  0  0  0  0  0
  1  2  2  0
  1 28  1  0
  1 29  1  0
  2  9  1  0
  2  3  1  0
  3  4  2  3
  3 30  1  0
  4  5  1  0
  4 31  1  0
  5 27  1  0
  5  6  1  0
  5 32  1  6
  6 12  1  0
  6  7  1  0
  6 33  1  6
  7  8  1  0
  7 34  1  0
  7 35  1  0
  8  9  1  0
  8 36  1  0
  8 37  1  0
  9 10  1  0
  9 38  1  1
 10 16  1  0
 10 11  1  0
 10 39  1  1
 11 12  1  0
 11 40  1  0
 11 41  1  0
 12 13  1  0
 12 42  1  6
 13 14  1  0
 13 15  1  0
 13 16  1  0
 14 43  1  0
 14 44  1  0
 14 45  1  0
 15 46  1  0
 15 47  1  0
 15 48  1  0
 16 17  1  0
 16 49  1  1
 17 18  1  0
 17 19  1  0
 17 50  1  1
 18 51  1  0
 19 20  1  0
 19 52  1  0
 19 53  1  0
 20 27  1  0
 20 21  1  1
 20 22  1  0
 21 54  1  0
 22 25  1  0
 22 23  1  0
 22 55  1  6
 23 24  1  0
 23 25  1  0
 23 56  1  1
 24 57  1  0
 25 26  1  0
 25 58  1  6
 26 27  1  0
 26 59  1  0
 26 60  1  0
M  END
>  <i_m_ct_stereo_status>  (43) 
1

>  <s_m_source_file>  (43) 
/var/tmp/pbs.5076255.sched01/tmpvv81v907/0tx7qkblw.sdf

>  <i_m_source_file_index>  (43) 
18

>  <i_lp_mmshare_version>  (43) 
48012

>  <i_f3d_flags>  (43) 
0

>  <s_epik_input>  (43) 
W0NIXVwxPVtDSF1cQyg9W0NIMl0pW0NAQEhdKFtDSDJdW0NIMl0yKVtDQEhdKFtDSF0oQzMoW0NIM10pW0NIM10pW0NAQEhdKFtPSF0pW0NIMl00KVtDSDJdW0NASF0zW0NAQEhdMltDQEBIXTFONVtDSDJdW0NAQEhdKFtDQEBIXTZbT0hdKVtDQEBIXTZbQ0BdNDVbT0hd

>  <s_epik_cmdline>  (43) 
J2VwaWtfcHl0aG9uJywgJy1waHQnLCAnMi4wJywgJy1waCcsICc3LjAnLCAnLXRuJywgJzgnLCAnLW1hJywgJzIwMCcsICctaW1hZScsICc8aW5maWxlLm1hZT4nLCAnLW9tYWUnLCAnPG91dGZpbGUubWFlPic=

>  <r_epik_Ionization_Penalty>  (43) 
0.815981

>  <r_epik_Ionization_Penalty_Charging>  (43) 
0

>  <r_epik_Ionization_Penalty_Neutral>  (43) 
0.815981

>  <r_epik_State_Penalty>  (43) 
0.849717

>  <r_epik_Charging_Adjusted_Penalty>  (43) 
0.849717

>  <i_epik_Tot_Q>  (43) 
0

>  <i_epik_Tot_abs_Q>  (43) 
0

>  <s_lp_Force_Field>  (43) 
OPLS3e

>  <r_lp_Energy>  (43) 
138.574

>  <b_lp_Chiralities_Consistent>  (43) 
1

>  <s_lp_Variant>  (43) 
5:0-11

>  <s_i_glide_gridfile>  (43) 
pfpi4k_grid

>  <i_i_glide_lignum>  (43) 
18

>  <i_i_glide_rotatable_bonds>  (43) 
3

>  <r_i_docking_score>  (43) 
-4.54887

>  <r_i_glide_ligand_efficiency>  (43) 
-0.168477

>  <r_i_glide_ligand_efficiency_sa>  (43) 
-0.50543

>  <r_i_glide_ligand_efficiency_ln>  (43) 
-1.0589

>  <r_i_glide_gscore>  (43) 
-4.54887

>  <r_i_glide_lipo>  (43) 
-0.978767

>  <r_i_glide_hbond>  (43) 
-0.445547

>  <r_i_glide_metal>  (43) 
-0

>  <r_i_glide_rewards>  (43) 
-0.876048

>  <r_i_glide_evdw>  (43) 
-20.6961

>  <r_i_glide_ecoul>  (43) 
-7.84278

>  <r_i_glide_erotb>  (43) 
0

>  <r_i_glide_esite>  (43) 
-0.0372804

>  <r_i_glide_emodel>  (43) 
-34.9802

>  <r_i_glide_energy>  (43) 
-28.5389

>  <r_i_glide_einternal>  (43) 
1.69851

>  <r_i_glide_intrahb_reward>  (43) 
-0

>  <i_i_glide_confnum>  (43) 
1

>  <i_i_glide_posenum>  (43) 
14

>  <r_i_glide_eff_state_penalty>  (43) 
0

>  <ligand_id>  (43) 
5

>  <original_smiles>  (43) 
C=C1C=CC2C3CCC1C1CC3C(C)(C)C1C(O)CC1(O)C3C(O)C3CN21

>  <smiles>  (43) 
[H]OC1([H])C2([H])C([H])([H])N3C4([H])C([H])=C([H])C(=C([H])[H])C5([H])C([H])([H])C([H])([H])C4([H])C4([H])C([H])([H])C5([H])C([H])(C([H])(O[H])C([H])([H])C3(O[H])C12[H])C4(C([H])([H])[H])C([H])([H])[H]

$$$$
5:11:0
     RDKit          3D

 60 65  0  0  1  0  0  0  0  0999 V2000
    3.1913   -3.1223    4.4967 C   0  0  0  0  0  0  0  0  0  0  0  0
    3.3052   -3.8535    3.3803 C   0  0  0  0  0  0  0  0  0  0  0  0
    2.3473   -3.7542    2.3462 C   0  0  0  0  0  0  0  0  0  0  0  0
    2.8793   -3.2391    1.2176 C   0  0  0  0  0  0  0  0  0  0  0  0
    3.4057   -3.8711   -0.0499 C   0  0  2  0  0  0  0  0  0  0  0  0
    4.3030   -5.1945    0.1647 C   0  0  2  0  0  0  0  0  0  0  0  0
    3.5582   -6.2824    1.0196 C   0  0  0  0  0  0  0  0  0  0  0  0
    3.7095   -6.2260    2.5774 C   0  0  0  0  0  0  0  0  0  0  0  0
    4.3720   -4.9282    3.1755 C   0  0  1  0  0  0  0  0  0  0  0  0
    5.8141   -4.5425    2.6014 C   0  0  1  0  0  0  0  0  0  0  0  0
    6.3171   -5.7379    1.7888 C   0  0  0  0  0  0  0  0  0  0  0  0
    5.9066   -5.2895    0.3763 C   0  0  2  0  0  0  0  0  0  0  0  0
    6.7708   -4.0155    0.2518 C   0  0  0  0  0  0  0  0  0  0  0  0
    8.3286   -4.2737    0.3469 C   0  0  0  0  0  0  0  0  0  0  0  0
    6.7035   -3.4374   -1.2065 C   0  0  0  0  0  0  0  0  0  0  0  0
    6.2558   -3.3387    1.6062 C   0  0  1  0  0  0  0  0  0  0  0  0
    5.5739   -1.9171    1.6951 C   0  0  1  0  0  0  0  0  0  0  0  0
    6.3726   -1.0499    2.4745 O   0  0  0  0  0  0  0  0  0  0  0  0
    5.2977   -1.0558    0.4252 C   0  0  0  0  0  0  0  0  0  0  0  0
    4.2010   -1.4079   -0.6398 C   0  0  1  0  0  0  0  0  0  0  0  0
    3.0323   -0.7558   -0.2049 O   0  0  0  0  0  0  0  0  0  0  0  0
    4.5422   -0.8607   -2.0397 C   0  0  2  0  0  0  0  0  0  0  0  0
    3.4582   -0.5007   -3.0572 C   0  0  1  0  0  0  0  0  0  0  0  0
    3.8227    0.4210   -4.0698 O   0  0  0  0  0  0  0  0  0  0  0  0
    4.0903   -1.8653   -3.0761 C   0  0  2  0  0  0  0  0  0  0  0  0
    3.4442   -2.9893   -2.3129 C   0  0  0  0  0  0  0  0  0  0  0  0
    3.9290   -2.8296   -0.9504 N   0  0  0  0  0  0  0  0  0  0  0  0
    3.9094   -3.2189    5.2932 H   0  0  0  0  0  0  0  0  0  0  0  0
    2.3864   -2.4136    4.6238 H   0  0  0  0  0  0  0  0  0  0  0  0
    1.7727   -4.6764    2.2183 H   0  0  0  0  0  0  0  0  0  0  0  0
    2.1713   -3.7757    0.7426 H   0  0  0  0  0  0  0  0  0  0  0  0
    2.6125   -4.3151   -0.7553 H   0  0  0  0  0  0  0  0  0  0  0  0
    4.2216   -5.5972   -0.8377 H   0  0  0  0  0  0  0  0  0  0  0  0
    2.4961   -6.2808    0.7689 H   0  0  0  0  0  0  0  0  0  0  0  0
    3.8933   -7.2702    0.6923 H   0  0  0  0  0  0  0  0  0  0  0  0
    2.7382   -6.4000    3.0419 H   0  0  0  0  0  0  0  0  0  0  0  0
    4.2287   -7.1182    2.9328 H   0  0  0  0  0  0  0  0  0  0  0  0
    4.5787   -5.2419    4.1991 H   0  0  0  0  0  0  0  0  0  0  0  0
    6.4345   -4.4820    3.4933 H   0  0  0  0  0  0  0  0  0  0  0  0
    7.3858   -5.8865    1.9240 H   0  0  0  0  0  0  0  0  0  0  0  0
    5.9980   -6.7363    2.0532 H   0  0  0  0  0  0  0  0  0  0  0  0
    6.2788   -6.0415   -0.3170 H   0  0  0  0  0  0  0  0  0  0  0  0
    8.9013   -3.4108    0.0009 H   0  0  0  0  0  0  0  0  0  0  0  0
    8.6361   -5.1237   -0.2689 H   0  0  0  0  0  0  0  0  0  0  0  0
    8.7250   -4.4578    1.3455 H   0  0  0  0  0  0  0  0  0  0  0  0
    6.7033   -2.3809   -1.3089 H   0  0  0  0  0  0  0  0  0  0  0  0
    5.9088   -3.8971   -1.7976 H   0  0  0  0  0  0  0  0  0  0  0  0
    7.5591   -3.7495   -1.8165 H   0  0  0  0  0  0  0  0  0  0  0  0
    7.2133   -3.1046    2.0576 H   0  0  0  0  0  0  0  0  0  0  0  0
    4.7209   -1.9680    2.3582 H   0  0  0  0  0  0  0  0  0  0  0  0
    7.0133   -0.5910    1.9251 H   0  0  0  0  0  0  0  0  0  0  0  0
    5.0477   -0.0482    0.7706 H   0  0  0  0  0  0  0  0  0  0  0  0
    6.2434   -0.8727   -0.0590 H   0  0  0  0  0  0  0  0  0  0  0  0
    2.2438   -1.0483   -0.6822 H   0  0  0  0  0  0  0  0  0  0  0  0
    5.5319   -0.4295   -2.1581 H   0  0  0  0  0  0  0  0  0  0  0  0
    2.4279   -0.4096   -2.7440 H   0  0  0  0  0  0  0  0  0  0  0  0
    3.3988    1.2529   -3.8659 H   0  0  0  0  0  0  0  0  0  0  0  0
    4.7552   -2.1360   -3.8990 H   0  0  0  0  0  0  0  0  0  0  0  0
    2.3563   -2.9018   -2.3215 H   0  0  0  0  0  0  0  0  0  0  0  0
    3.7031   -3.9719   -2.7038 H   0  0  0  0  0  0  0  0  0  0  0  0
  1  2  2  0
  1 28  1  0
  1 29  1  0
  2  9  1  0
  2  3  1  0
  3  4  2  3
  3 30  1  0
  4  5  1  0
  4 31  1  0
  5 27  1  0
  5  6  1  0
  5 32  1  6
  6 12  1  0
  6  7  1  0
  6 33  1  6
  7  8  1  0
  7 34  1  0
  7 35  1  0
  8  9  1  0
  8 36  1  0
  8 37  1  0
  9 10  1  0
  9 38  1  1
 10 16  1  0
 10 11  1  0
 10 39  1  1
 11 12  1  0
 11 40  1  0
 11 41  1  0
 12 13  1  0
 12 42  1  6
 13 14  1  0
 13 15  1  0
 13 16  1  0
 14 43  1  0
 14 44  1  0
 14 45  1  0
 15 46  1  0
 15 47  1  0
 15 48  1  0
 16 17  1  0
 16 49  1  1
 17 18  1  0
 17 19  1  0
 17 50  1  1
 18 51  1  0
 19 20  1  0
 19 52  1  0
 19 53  1  0
 20 27  1  0
 20 21  1  1
 20 22  1  0
 21 54  1  0
 22 25  1  0
 22 23  1  0
 22 55  1  1
 23 24  1  0
 23 25  1  0
 23 56  1  1
 24 57  1  0
 25 26  1  0
 25 58  1  6
 26 27  1  0
 26 59  1  0
 26 60  1  0
M  END
>  <i_m_ct_stereo_status>  (44) 
1

>  <s_m_source_file>  (44) 
/var/tmp/pbs.5076255.sched01/tmpvv81v907/0tx7qkblw.sdf

>  <i_m_source_file_index>  (44) 
19

>  <i_lp_mmshare_version>  (44) 
48012

>  <i_f3d_flags>  (44) 
0

>  <s_epik_input>  (44) 
W0NIXVwxPVtDSF1cQyg9W0NIMl0pW0NAQEhdKFtDSDJdW0NIMl0yKVtDQEhdKFtDSF0oQzMoW0NIM10pW0NIM10pW0NAQEhdKFtPSF0pW0NIMl00KVtDSDJdW0NASF0zW0NAQEhdMltDQEBIXTFONVtDSDJdW0NAQEhdKFtDQEBIXTZbT0hdKVtDQEBIXTZbQ0BdNDVbT0hd

>  <s_epik_cmdline>  (44) 
J2VwaWtfcHl0aG9uJywgJy1waHQnLCAnMi4wJywgJy1waCcsICc3LjAnLCAnLXRuJywgJzgnLCAnLW1hJywgJzIwMCcsICctaW1hZScsICc8aW5maWxlLm1hZT4nLCAnLW9tYWUnLCAnPG91dGZpbGUubWFlPic=

>  <r_epik_Ionization_Penalty>  (44) 
0.815981

>  <r_epik_Ionization_Penalty_Charging>  (44) 
0

>  <r_epik_Ionization_Penalty_Neutral>  (44) 
0.815981

>  <r_epik_State_Penalty>  (44) 
0.849717

>  <r_epik_Charging_Adjusted_Penalty>  (44) 
0.849717

>  <i_epik_Tot_Q>  (44) 
0

>  <i_epik_Tot_abs_Q>  (44) 
0

>  <s_lp_Force_Field>  (44) 
OPLS3e

>  <r_lp_Energy>  (44) 
197.915

>  <b_lp_Chiralities_Consistent>  (44) 
1

>  <s_lp_Variant>  (44) 
5:0-12

>  <s_i_glide_gridfile>  (44) 
pfpi4k_grid

>  <i_i_glide_lignum>  (44) 
19

>  <i_i_glide_rotatable_bonds>  (44) 
3

>  <r_i_docking_score>  (44) 
4.53755

>  <r_i_glide_ligand_efficiency>  (44) 
0.168057

>  <r_i_glide_ligand_efficiency_sa>  (44) 
0.504172

>  <r_i_glide_ligand_efficiency_ln>  (44) 
1.05627

>  <r_i_glide_gscore>  (44) 
4.53755

>  <r_i_glide_lipo>  (44) 
-1.06321

>  <r_i_glide_hbond>  (44) 
-0.618321

>  <r_i_glide_metal>  (44) 
-0

>  <r_i_glide_rewards>  (44) 
-0.876048

>  <r_i_glide_evdw>  (44) 
-12.777

>  <r_i_glide_ecoul>  (44) 
-10.4154

>  <r_i_glide_erotb>  (44) 
0

>  <r_i_glide_esite>  (44) 
-0.043487

>  <r_i_glide_emodel>  (44) 
13.1843

>  <r_i_glide_energy>  (44) 
-23.1924

>  <r_i_glide_einternal>  (44) 
1.86468

>  <r_i_glide_intrahb_reward>  (44) 
-0

>  <i_i_glide_confnum>  (44) 
1

>  <i_i_glide_posenum>  (44) 
1

>  <r_i_glide_eff_state_penalty>  (44) 
0

>  <ligand_id>  (44) 
5

>  <original_smiles>  (44) 
C=C1C=CC2C3CCC1C1CC3C(C)(C)C1C(O)CC1(O)C3C(O)C3CN21

>  <smiles>  (44) 
[H]OC1([H])C2([H])C([H])([H])N3C4([H])C([H])=C([H])C(=C([H])[H])C5([H])C([H])([H])C([H])([H])C4([H])C4([H])C([H])([H])C5([H])C([H])(C([H])(O[H])C([H])([H])C3(O[H])C12[H])C4(C([H])([H])[H])C([H])([H])[H]

$$$$
5:11:1
     RDKit          3D

 60 65  0  0  1  0  0  0  0  0999 V2000
    3.3376   -3.0609    4.6168 C   0  0  0  0  0  0  0  0  0  0  0  0
    3.3978   -3.8072    3.5074 C   0  0  0  0  0  0  0  0  0  0  0  0
    2.3991   -3.7098    2.5127 C   0  0  0  0  0  0  0  0  0  0  0  0
    2.9011   -3.2102    1.3498 C   0  0  0  0  0  0  0  0  0  0  0  0
    3.3638   -3.8674    0.0786 C   0  0  2  0  0  0  0  0  0  0  0  0
    4.2502   -5.1994    0.2731 C   0  0  2  0  0  0  0  0  0  0  0  0
    3.5238   -6.2686    1.1673 C   0  0  0  0  0  0  0  0  0  0  0  0
    3.7357   -6.1960    2.7176 C   0  0  0  0  0  0  0  0  0  0  0  0
    4.4395   -4.9025    3.2747 C   0  0  1  0  0  0  0  0  0  0  0  0
    5.8627   -4.5479    2.6360 C   0  0  1  0  0  0  0  0  0  0  0  0
    6.3165   -5.7581    1.8195 C   0  0  0  0  0  0  0  0  0  0  0  0
    5.8599   -5.3185    0.4188 C   0  0  2  0  0  0  0  0  0  0  0  0
    6.7374   -4.0540    0.2492 C   0  0  0  0  0  0  0  0  0  0  0  0
    8.2952   -4.3371    0.2911 C   0  0  0  0  0  0  0  0  0  0  0  0
    6.6199   -3.4962   -1.2093 C   0  0  0  0  0  0  0  0  0  0  0  0
    6.2850   -3.3589    1.6167 C   0  0  1  0  0  0  0  0  0  0  0  0
    5.6285   -1.9197    1.7213 C   0  0  1  0  0  0  0  0  0  0  0  0
    6.4716   -1.0633    2.4647 O   0  0  0  0  0  0  0  0  0  0  0  0
    5.3182   -1.0760    0.4447 C   0  0  0  0  0  0  0  0  0  0  0  0
    4.1703   -1.4213   -0.5712 C   0  0  1  0  0  0  0  0  0  0  0  0
    3.0256   -0.7455   -0.0990 O   0  0  0  0  0  0  0  0  0  0  0  0
    4.4675   -0.8957   -1.9912 C   0  0  2  0  0  0  0  0  0  0  0  0
    3.3549   -0.5358   -2.9751 C   0  0  1  0  0  0  0  0  0  0  0  0
    3.7163    0.3736   -4.0042 O   0  0  0  0  0  0  0  0  0  0  0  0
    3.9639   -1.9068   -2.9970 C   0  0  2  0  0  0  0  0  0  0  0  0
    3.3289   -3.0091   -2.1960 C   0  0  0  0  0  0  0  0  0  0  0  0
    3.8691   -2.8412   -0.8576 N   0  0  0  0  0  0  0  0  0  0  0  0
    4.0857   -3.1584    5.3869 H   0  0  0  0  0  0  0  0  0  0  0  0
    2.5487   -2.3384    4.7683 H   0  0  0  0  0  0  0  0  0  0  0  0
    1.8071   -4.6182    2.4144 H   0  0  0  0  0  0  0  0  0  0  0  0
    2.1617   -3.7355    0.9113 H   0  0  0  0  0  0  0  0  0  0  0  0
    2.5388   -4.3073   -0.5935 H   0  0  0  0  0  0  0  0  0  0  0  0
    4.1159   -5.6146   -0.7194 H   0  0  0  0  0  0  0  0  0  0  0  0
    2.4532   -6.2541    0.9574 H   0  0  0  0  0  0  0  0  0  0  0  0
    3.8315   -7.2649    0.8379 H   0  0  0  0  0  0  0  0  0  0  0  0
    2.7796   -6.3486    3.2195 H   0  0  0  0  0  0  0  0  0  0  0  0
    4.2548   -7.0920    3.0643 H   0  0  0  0  0  0  0  0  0  0  0  0
    4.6833   -5.2076    4.2933 H   0  0  0  0  0  0  0  0  0  0  0  0
    6.5216   -4.4956    3.4992 H   0  0  0  0  0  0  0  0  0  0  0  0
    7.3876   -5.9177    1.9158 H   0  0  0  0  0  0  0  0  0  0  0  0
    5.9957   -6.7483    2.1112 H   0  0  0  0  0  0  0  0  0  0  0  0
    6.1959   -6.0821   -0.2793 H   0  0  0  0  0  0  0  0  0  0  0  0
    8.8639   -3.4855   -0.0874 H   0  0  0  0  0  0  0  0  0  0  0  0
    8.5716   -5.1995   -0.3198 H   0  0  0  0  0  0  0  0  0  0  0  0
    8.7273   -4.5155    1.2754 H   0  0  0  0  0  0  0  0  0  0  0  0
    6.6356   -2.4313   -1.3260 H   0  0  0  0  0  0  0  0  0  0  0  0
    5.7996   -3.9486   -1.7631 H   0  0  0  0  0  0  0  0  0  0  0  0
    7.4458   -3.8239   -1.8485 H   0  0  0  0  0  0  0  0  0  0  0  0
    7.2633   -3.1345    2.0268 H   0  0  0  0  0  0  0  0  0  0  0  0
    4.7972   -1.9563    2.4094 H   0  0  0  0  0  0  0  0  0  0  0  0
    6.4880   -0.1886    2.0761 H   0  0  0  0  0  0  0  0  0  0  0  0
    5.0956   -0.0624    0.7871 H   0  0  0  0  0  0  0  0  0  0  0  0
    6.2477   -0.9108   -0.0770 H   0  0  0  0  0  0  0  0  0  0  0  0
    2.2210   -1.0296   -0.5582 H   0  0  0  0  0  0  0  0  0  0  0  0
    5.4570   -0.4782   -2.1539 H   0  0  0  0  0  0  0  0  0  0  0  0
    2.3359   -0.4214   -2.6241 H   0  0  0  0  0  0  0  0  0  0  0  0
    3.3095    1.2137   -3.7908 H   0  0  0  0  0  0  0  0  0  0  0  0
    4.5918   -2.1976   -3.8412 H   0  0  0  0  0  0  0  0  0  0  0  0
    2.2428   -2.9033   -2.1636 H   0  0  0  0  0  0  0  0  0  0  0  0
    3.5610   -3.9974   -2.5872 H   0  0  0  0  0  0  0  0  0  0  0  0
  1  2  2  0
  1 28  1  0
  1 29  1  0
  2  9  1  0
  2  3  1  0
  3  4  2  3
  3 30  1  0
  4  5  1  0
  4 31  1  0
  5 27  1  0
  5  6  1  0
  5 32  1  6
  6 12  1  0
  6  7  1  0
  6 33  1  6
  7  8  1  0
  7 34  1  0
  7 35  1  0
  8  9  1  0
  8 36  1  0
  8 37  1  0
  9 10  1  0
  9 38  1  1
 10 16  1  0
 10 11  1  0
 10 39  1  1
 11 12  1  0
 11 40  1  0
 11 41  1  0
 12 13  1  0
 12 42  1  6
 13 14  1  0
 13 15  1  0
 13 16  1  0
 14 43  1  0
 14 44  1  0
 14 45  1  0
 15 46  1  0
 15 47  1  0
 15 48  1  0
 16 17  1  0
 16 49  1  1
 17 18  1  0
 17 19  1  0
 17 50  1  1
 18 51  1  0
 19 20  1  0
 19 52  1  0
 19 53  1  0
 20 27  1  0
 20 21  1  1
 20 22  1  0
 21 54  1  0
 22 25  1  0
 22 23  1  0
 22 55  1  1
 23 24  1  0
 23 25  1  0
 23 56  1  1
 24 57  1  0
 25 26  1  0
 25 58  1  6
 26 27  1  0
 26 59  1  0
 26 60  1  0
M  END
>  <i_m_ct_stereo_status>  (45) 
1

>  <s_m_source_file>  (45) 
/var/tmp/pbs.5076255.sched01/tmpvv81v907/0tx7qkblw.sdf

>  <i_m_source_file_index>  (45) 
19

>  <i_lp_mmshare_version>  (45) 
48012

>  <i_f3d_flags>  (45) 
0

>  <s_epik_input>  (45) 
W0NIXVwxPVtDSF1cQyg9W0NIMl0pW0NAQEhdKFtDSDJdW0NIMl0yKVtDQEhdKFtDSF0oQzMoW0NIM10pW0NIM10pW0NAQEhdKFtPSF0pW0NIMl00KVtDSDJdW0NASF0zW0NAQEhdMltDQEBIXTFONVtDSDJdW0NAQEhdKFtDQEBIXTZbT0hdKVtDQEBIXTZbQ0BdNDVbT0hd

>  <s_epik_cmdline>  (45) 
J2VwaWtfcHl0aG9uJywgJy1waHQnLCAnMi4wJywgJy1waCcsICc3LjAnLCAnLXRuJywgJzgnLCAnLW1hJywgJzIwMCcsICctaW1hZScsICc8aW5maWxlLm1hZT4nLCAnLW9tYWUnLCAnPG91dGZpbGUubWFlPic=

>  <r_epik_Ionization_Penalty>  (45) 
0.815981

>  <r_epik_Ionization_Penalty_Charging>  (45) 
0

>  <r_epik_Ionization_Penalty_Neutral>  (45) 
0.815981

>  <r_epik_State_Penalty>  (45) 
0.849717

>  <r_epik_Charging_Adjusted_Penalty>  (45) 
0.849717

>  <i_epik_Tot_Q>  (45) 
0

>  <i_epik_Tot_abs_Q>  (45) 
0

>  <s_lp_Force_Field>  (45) 
OPLS3e

>  <r_lp_Energy>  (45) 
197.915

>  <b_lp_Chiralities_Consistent>  (45) 
1

>  <s_lp_Variant>  (45) 
5:0-12

>  <s_i_glide_gridfile>  (45) 
pfpi4k_grid

>  <i_i_glide_lignum>  (45) 
19

>  <i_i_glide_rotatable_bonds>  (45) 
3

>  <r_i_docking_score>  (45) 
4.68032

>  <r_i_glide_ligand_efficiency>  (45) 
0.173345

>  <r_i_glide_ligand_efficiency_sa>  (45) 
0.520035

>  <r_i_glide_ligand_efficiency_ln>  (45) 
1.0895

>  <r_i_glide_gscore>  (45) 
4.68032

>  <r_i_glide_lipo>  (45) 
-0.983163

>  <r_i_glide_hbond>  (45) 
-0.620014

>  <r_i_glide_metal>  (45) 
-0

>  <r_i_glide_rewards>  (45) 
-0.876048

>  <r_i_glide_evdw>  (45) 
-10.3283

>  <r_i_glide_ecoul>  (45) 
-9.89446

>  <r_i_glide_erotb>  (45) 
0

>  <r_i_glide_esite>  (45) 
-0.042468

>  <r_i_glide_emodel>  (45) 
16.3321

>  <r_i_glide_energy>  (45) 
-20.2228

>  <r_i_glide_einternal>  (45) 
2.62877

>  <r_i_glide_intrahb_reward>  (45) 
-0

>  <i_i_glide_confnum>  (45) 
2

>  <i_i_glide_posenum>  (45) 
22

>  <r_i_glide_eff_state_penalty>  (45) 
0

>  <ligand_id>  (45) 
5

>  <original_smiles>  (45) 
C=C1C=CC2C3CCC1C1CC3C(C)(C)C1C(O)CC1(O)C3C(O)C3CN21

>  <smiles>  (45) 
[H]OC1([H])C2([H])C([H])([H])N3C4([H])C([H])=C([H])C(=C([H])[H])C5([H])C([H])([H])C([H])([H])C4([H])C4([H])C([H])([H])C5([H])C([H])(C([H])(O[H])C([H])([H])C3(O[H])C12[H])C4(C([H])([H])[H])C([H])([H])[H]

$$$$
5:11:2
     RDKit          3D

 60 65  0  0  1  0  0  0  0  0999 V2000
    3.1708   -3.1277    4.4774 C   0  0  0  0  0  0  0  0  0  0  0  0
    3.2902   -3.8591    3.3614 C   0  0  0  0  0  0  0  0  0  0  0  0
    2.3360   -3.7601    2.3234 C   0  0  0  0  0  0  0  0  0  0  0  0
    2.8722   -3.2444    1.1973 C   0  0  0  0  0  0  0  0  0  0  0  0
    3.4040   -3.8759   -0.0683 C   0  0  2  0  0  0  0  0  0  0  0  0
    4.3012   -5.1985    0.1499 C   0  0  2  0  0  0  0  0  0  0  0  0
    3.5537   -6.2873    1.0016 C   0  0  0  0  0  0  0  0  0  0  0  0
    3.6989   -6.2309    2.5599 C   0  0  0  0  0  0  0  0  0  0  0  0
    4.3593   -4.9328    3.1607 C   0  0  1  0  0  0  0  0  0  0  0  0
    5.8073   -4.5454    2.5939 C   0  0  1  0  0  0  0  0  0  0  0  0
    6.3097   -5.7412    1.7831 C   0  0  0  0  0  0  0  0  0  0  0  0
    5.9034   -5.2932    0.3701 C   0  0  2  0  0  0  0  0  0  0  0  0
    6.7675   -4.0131    0.2457 C   0  0  0  0  0  0  0  0  0  0  0  0
    8.3260   -4.2768    0.3491 C   0  0  0  0  0  0  0  0  0  0  0  0
    6.7065   -3.4549   -1.2108 C   0  0  0  0  0  0  0  0  0  0  0  0
    6.2480   -3.3427    1.6014 C   0  0  1  0  0  0  0  0  0  0  0  0
    5.5599   -1.9172    1.6922 C   0  0  1  0  0  0  0  0  0  0  0  0
    6.3699   -1.0610    2.4682 O   0  0  0  0  0  0  0  0  0  0  0  0
    5.2925   -1.0596    0.4148 C   0  0  0  0  0  0  0  0  0  0  0  0
    4.2015   -1.4127   -0.6550 C   0  0  1  0  0  0  0  0  0  0  0  0
    3.0312   -0.7619   -0.2240 O   0  0  0  0  0  0  0  0  0  0  0  0
    4.5474   -0.8645   -2.0528 C   0  0  2  0  0  0  0  0  0  0  0  0
    3.4672   -0.5043   -3.0742 C   0  0  1  0  0  0  0  0  0  0  0  0
    3.8343    0.4164   -4.0865 O   0  0  0  0  0  0  0  0  0  0  0  0
    4.1000   -1.8691   -3.0911 C   0  0  2  0  0  0  0  0  0  0  0  0
    3.4516   -2.9939   -2.3310 C   0  0  0  0  0  0  0  0  0  0  0  0
    3.9303   -2.8343   -0.9663 N   0  0  0  0  0  0  0  0  0  0  0  0
    3.8854   -3.2245    5.2770 H   0  0  0  0  0  0  0  0  0  0  0  0
    2.3646   -2.4199    4.6014 H   0  0  0  0  0  0  0  0  0  0  0  0
    1.7625   -4.6826    2.1929 H   0  0  0  0  0  0  0  0  0  0  0  0
    2.1670   -3.7815    0.7190 H   0  0  0  0  0  0  0  0  0  0  0  0
    2.6141   -4.3203   -0.7771 H   0  0  0  0  0  0  0  0  0  0  0  0
    4.2220   -5.6013   -0.8530 H   0  0  0  0  0  0  0  0  0  0  0  0
    2.4926   -6.2863    0.7463 H   0  0  0  0  0  0  0  0  0  0  0  0
    3.8907   -7.2750    0.6754 H   0  0  0  0  0  0  0  0  0  0  0  0
    2.7254   -6.4057    3.0204 H   0  0  0  0  0  0  0  0  0  0  0  0
    4.2166   -7.1232    2.9173 H   0  0  0  0  0  0  0  0  0  0  0  0
    4.5605   -5.2468    4.1853 H   0  0  0  0  0  0  0  0  0  0  0  0
    6.4209   -4.4839    3.4893 H   0  0  0  0  0  0  0  0  0  0  0  0
    7.3776   -5.8896    1.9217 H   0  0  0  0  0  0  0  0  0  0  0  0
    5.9894   -6.7398    2.0453 H   0  0  0  0  0  0  0  0  0  0  0  0
    6.2806   -6.0470   -0.3159 H   0  0  0  0  0  0  0  0  0  0  0  0
    8.8993   -3.4125    0.0054 H   0  0  0  0  0  0  0  0  0  0  0  0
    8.6362   -5.1255   -0.2658 H   0  0  0  0  0  0  0  0  0  0  0  0
    8.7180   -4.4598    1.3489 H   0  0  0  0  0  0  0  0  0  0  0  0
    6.7064   -2.3746   -1.3141 H   0  0  0  0  0  0  0  0  0  0  0  0
    5.9170   -3.8974   -1.8041 H   0  0  0  0  0  0  0  0  0  0  0  0
    7.5630   -3.7497   -1.8165 H   0  0  0  0  0  0  0  0  0  0  0  0
    7.2027   -3.1056    2.0554 H   0  0  0  0  0  0  0  0  0  0  0  0
    4.7044   -1.9726    2.3464 H   0  0  0  0  0  0  0  0  0  0  0  0
    5.8917   -0.2646    2.6898 H   0  0  0  0  0  0  0  0  0  0  0  0
    5.0413   -0.0519    0.7581 H   0  0  0  0  0  0  0  0  0  0  0  0
    6.2414   -0.8762   -0.0635 H   0  0  0  0  0  0  0  0  0  0  0  0
    2.2436   -1.0551   -0.7029 H   0  0  0  0  0  0  0  0  0  0  0  0
    5.5375   -0.4329   -2.1671 H   0  0  0  0  0  0  0  0  0  0  0  0
    2.4356   -0.4146   -2.7660 H   0  0  0  0  0  0  0  0  0  0  0  0
    3.3873    1.2399   -3.8995 H   0  0  0  0  0  0  0  0  0  0  0  0
    4.7693   -2.1397   -3.9102 H   0  0  0  0  0  0  0  0  0  0  0  0
    2.3638   -2.9070   -2.3439 H   0  0  0  0  0  0  0  0  0  0  0  0
    3.7129   -3.9763   -2.7210 H   0  0  0  0  0  0  0  0  0  0  0  0
  1  2  2  0
  1 28  1  0
  1 29  1  0
  2  9  1  0
  2  3  1  0
  3  4  2  3
  3 30  1  0
  4  5  1  0
  4 31  1  0
  5 27  1  0
  5  6  1  0
  5 32  1  6
  6 12  1  0
  6  7  1  0
  6 33  1  6
  7  8  1  0
  7 34  1  0
  7 35  1  0
  8  9  1  0
  8 36  1  0
  8 37  1  0
  9 10  1  0
  9 38  1  1
 10 16  1  0
 10 11  1  0
 10 39  1  1
 11 12  1  0
 11 40  1  0
 11 41  1  0
 12 13  1  0
 12 42  1  6
 13 14  1  0
 13 15  1  0
 13 16  1  0
 14 43  1  0
 14 44  1  0
 14 45  1  0
 15 46  1  0
 15 47  1  0
 15 48  1  0
 16 17  1  0
 16 49  1  1
 17 18  1  0
 17 19  1  0
 17 50  1  1
 18 51  1  0
 19 20  1  0
 19 52  1  0
 19 53  1  0
 20 27  1  0
 20 21  1  1
 20 22  1  0
 21 54  1  0
 22 25  1  0
 22 23  1  0
 22 55  1  1
 23 24  1  0
 23 25  1  0
 23 56  1  1
 24 57  1  0
 25 26  1  0
 25 58  1  6
 26 27  1  0
 26 59  1  0
 26 60  1  0
M  END
>  <i_m_ct_stereo_status>  (46) 
1

>  <s_m_source_file>  (46) 
/var/tmp/pbs.5076255.sched01/tmpvv81v907/0tx7qkblw.sdf

>  <i_m_source_file_index>  (46) 
19

>  <i_lp_mmshare_version>  (46) 
48012

>  <i_f3d_flags>  (46) 
0

>  <s_epik_input>  (46) 
W0NIXVwxPVtDSF1cQyg9W0NIMl0pW0NAQEhdKFtDSDJdW0NIMl0yKVtDQEhdKFtDSF0oQzMoW0NIM10pW0NIM10pW0NAQEhdKFtPSF0pW0NIMl00KVtDSDJdW0NASF0zW0NAQEhdMltDQEBIXTFONVtDSDJdW0NAQEhdKFtDQEBIXTZbT0hdKVtDQEBIXTZbQ0BdNDVbT0hd

>  <s_epik_cmdline>  (46) 
J2VwaWtfcHl0aG9uJywgJy1waHQnLCAnMi4wJywgJy1waCcsICc3LjAnLCAnLXRuJywgJzgnLCAnLW1hJywgJzIwMCcsICctaW1hZScsICc8aW5maWxlLm1hZT4nLCAnLW9tYWUnLCAnPG91dGZpbGUubWFlPic=

>  <r_epik_Ionization_Penalty>  (46) 
0.815981

>  <r_epik_Ionization_Penalty_Charging>  (46) 
0

>  <r_epik_Ionization_Penalty_Neutral>  (46) 
0.815981

>  <r_epik_State_Penalty>  (46) 
0.849717

>  <r_epik_Charging_Adjusted_Penalty>  (46) 
0.849717

>  <i_epik_Tot_Q>  (46) 
0

>  <i_epik_Tot_abs_Q>  (46) 
0

>  <s_lp_Force_Field>  (46) 
OPLS3e

>  <r_lp_Energy>  (46) 
197.915

>  <b_lp_Chiralities_Consistent>  (46) 
1

>  <s_lp_Variant>  (46) 
5:0-12

>  <s_i_glide_gridfile>  (46) 
pfpi4k_grid

>  <i_i_glide_lignum>  (46) 
19

>  <i_i_glide_rotatable_bonds>  (46) 
3

>  <r_i_docking_score>  (46) 
5.31406

>  <r_i_glide_ligand_efficiency>  (46) 
0.196817

>  <r_i_glide_ligand_efficiency_sa>  (46) 
0.590451

>  <r_i_glide_ligand_efficiency_ln>  (46) 
1.23702

>  <r_i_glide_gscore>  (46) 
5.31406

>  <r_i_glide_lipo>  (46) 
-1.06752

>  <r_i_glide_hbond>  (46) 
-0.419648

>  <r_i_glide_metal>  (46) 
-0

>  <r_i_glide_rewards>  (46) 
-0.876048

>  <r_i_glide_evdw>  (46) 
-12.665

>  <r_i_glide_ecoul>  (46) 
-8.24076

>  <r_i_glide_erotb>  (46) 
0

>  <r_i_glide_esite>  (46) 
-0.0434247

>  <r_i_glide_emodel>  (46) 
17.0442

>  <r_i_glide_energy>  (46) 
-20.9058

>  <r_i_glide_einternal>  (46) 
1.71272

>  <r_i_glide_intrahb_reward>  (46) 
-0

>  <i_i_glide_confnum>  (46) 
1

>  <i_i_glide_posenum>  (46) 
14

>  <r_i_glide_eff_state_penalty>  (46) 
0

>  <ligand_id>  (46) 
5

>  <original_smiles>  (46) 
C=C1C=CC2C3CCC1C1CC3C(C)(C)C1C(O)CC1(O)C3C(O)C3CN21

>  <smiles>  (46) 
[H]OC1([H])C2([H])C([H])([H])N3C4([H])C([H])=C([H])C(=C([H])[H])C5([H])C([H])([H])C([H])([H])C4([H])C4([H])C([H])([H])C5([H])C([H])(C([H])(O[H])C([H])([H])C3(O[H])C12[H])C4(C([H])([H])[H])C([H])([H])[H]

$$$$
6:0:0
     RDKit          3D

 54 58  0  0  1  0  0  0  0  0999 V2000
    4.8529   -6.5631    0.6954 C   0  0  0  0  0  0  0  0  0  0  0  0
    5.6364   -6.1847    1.9760 C   0  0  2  0  0  0  0  0  0  0  0  0
    5.7640   -4.6315    2.0608 C   0  0  0  0  0  0  0  0  0  0  0  0
    6.6312   -3.9919    0.9632 C   0  0  0  0  0  0  0  0  0  0  0  0
    7.9958   -4.6554    0.9159 C   0  0  0  0  0  0  0  0  0  0  0  0
    9.0316   -3.9936    0.8568 O   0  0  0  0  0  0  0  0  0  0  0  0
    8.0114   -6.1752    0.8656 C   0  0  0  0  0  0  0  0  0  0  0  0
    7.0427   -6.8026    1.8619 C   0  0  0  0  0  0  0  0  0  0  0  0
    7.4251   -7.8768    2.5735 C   0  0  0  0  0  0  0  0  0  0  0  0
    6.5410   -8.6466    3.5311 C   0  0  0  0  0  0  0  0  0  0  0  0
    5.0501   -8.2384    3.4814 C   0  0  2  0  0  0  0  0  0  0  0  0
    4.9142   -6.7106    3.2729 C   0  0  2  0  0  0  0  0  0  0  0  0
    3.4295   -6.3111    3.3609 C   0  0  0  0  0  0  0  0  0  0  0  0
    2.8741   -6.6606    4.7368 C   0  0  0  0  0  0  0  0  0  0  0  0
    2.9046   -8.1777    5.0498 C   0  0  1  0  0  0  0  0  0  0  0  0
    2.5757   -8.3574    6.5510 C   0  0  0  0  0  0  0  0  0  0  0  0
    1.9311   -9.0741    4.2816 C   0  0  0  0  0  0  0  0  0  0  0  0
    0.5689   -8.7127    3.8141 C   0  0  0  0  0  0  0  0  0  0  0  0
   -0.0921   -9.4544    2.8088 C   0  0  0  0  0  0  0  0  0  0  0  0
   -1.4034   -9.0735    2.4777 C   0  0  0  0  0  0  0  0  0  0  0  0
   -1.9587   -7.9838    3.1662 C   0  0  0  0  0  0  0  0  0  0  0  0
   -1.2818   -7.2959    4.1088 N   0  0  0  0  0  0  0  0  0  0  0  0
   -0.0451   -7.6798    4.4424 N   0  0  0  0  0  0  0  0  0  0  0  0
    2.5415  -10.2280    3.9807 C   0  0  0  0  0  0  0  0  0  0  0  0
    3.9560  -10.2990    4.4840 C   0  0  0  0  0  0  0  0  0  0  0  0
    4.3003   -8.8106    4.7345 C   0  0  1  0  0  0  0  0  0  0  0  0
    3.8714   -6.0907    0.6591 H   0  0  0  0  0  0  0  0  0  0  0  0
    4.7133   -7.6424    0.6212 H   0  0  0  0  0  0  0  0  0  0  0  0
    5.3819   -6.2527   -0.2063 H   0  0  0  0  0  0  0  0  0  0  0  0
    4.7837   -4.1571    2.0257 H   0  0  0  0  0  0  0  0  0  0  0  0
    6.1936   -4.3550    3.0238 H   0  0  0  0  0  0  0  0  0  0  0  0
    6.1637   -4.0987   -0.0136 H   0  0  0  0  0  0  0  0  0  0  0  0
    6.7494   -2.9225    1.1397 H   0  0  0  0  0  0  0  0  0  0  0  0
    7.7369   -6.4747   -0.1391 H   0  0  0  0  0  0  0  0  0  0  0  0
    9.0173   -6.5459    1.0397 H   0  0  0  0  0  0  0  0  0  0  0  0
    8.4339   -8.2547    2.4589 H   0  0  0  0  0  0  0  0  0  0  0  0
    6.6407   -9.7061    3.2950 H   0  0  0  0  0  0  0  0  0  0  0  0
    6.9521   -8.5055    4.5316 H   0  0  0  0  0  0  0  0  0  0  0  0
    4.6088   -8.7039    2.5998 H   0  0  0  0  0  0  0  0  0  0  0  0
    5.4210   -6.2468    4.1209 H   0  0  0  0  0  0  0  0  0  0  0  0
    3.3049   -5.2412    3.2084 H   0  0  0  0  0  0  0  0  0  0  0  0
    2.8415   -6.8143    2.5922 H   0  0  0  0  0  0  0  0  0  0  0  0
    3.4760   -6.1414    5.4834 H   0  0  0  0  0  0  0  0  0  0  0  0
    1.8829   -6.2277    4.8482 H   0  0  0  0  0  0  0  0  0  0  0  0
    3.3104   -7.8599    7.1862 H   0  0  0  0  0  0  0  0  0  0  0  0
    2.5503   -9.4118    6.8398 H   0  0  0  0  0  0  0  0  0  0  0  0
    1.5945   -7.9421    6.7885 H   0  0  0  0  0  0  0  0  0  0  0  0
    0.3726  -10.2798    2.2918 H   0  0  0  0  0  0  0  0  0  0  0  0
   -1.9667   -9.6004    1.7228 H   0  0  0  0  0  0  0  0  0  0  0  0
   -2.9648   -7.6411    2.9638 H   0  0  0  0  0  0  0  0  0  0  0  0
    2.1106  -11.0543    3.4345 H   0  0  0  0  0  0  0  0  0  0  0  0
    3.9589  -10.8780    5.4084 H   0  0  0  0  0  0  0  0  0  0  0  0
    4.6136  -10.7966    3.7712 H   0  0  0  0  0  0  0  0  0  0  0  0
    4.9460   -8.7094    5.6079 H   0  0  0  0  0  0  0  0  0  0  0  0
  2  1  1  6
  1 27  1  0
  1 28  1  0
  1 29  1  0
  2  8  1  0
  2 12  1  0
  2  3  1  0
  3  4  1  0
  3 30  1  0
  3 31  1  0
  4  5  1  0
  4 32  1  0
  4 33  1  0
  5  6  2  0
  5  7  1  0
  7  8  1  0
  7 34  1  0
  7 35  1  0
  8  9  2  0
  9 10  1  0
  9 36  1  0
 10 11  1  0
 10 37  1  0
 10 38  1  0
 11 26  1  0
 11 12  1  0
 11 39  1  6
 12 13  1  0
 12 40  1  1
 13 14  1  0
 13 41  1  0
 13 42  1  0
 14 15  1  0
 14 43  1  0
 14 44  1  0
 15 26  1  0
 15 16  1  1
 15 17  1  0
 16 45  1  0
 16 46  1  0
 16 47  1  0
 17 18  1  0
 17 24  2  0
 18 23  1  0
 18 19  2  0
 19 20  1  0
 19 48  1  0
 20 21  2  0
 20 49  1  0
 21 22  1  0
 21 50  1  0
 22 23  2  0
 24 25  1  0
 24 51  1  0
 25 26  1  0
 25 52  1  0
 25 53  1  0
 26 54  1  1
M  END
>  <i_m_ct_stereo_status>  (47) 
1

>  <s_m_source_file>  (47) 
/var/tmp/pbs.5076255.sched01/tmpvv81v907/0tx7qkblw.sdf

>  <i_m_source_file_index>  (47) 
20

>  <i_lp_mmshare_version>  (47) 
48012

>  <i_f3d_flags>  (47) 
0

>  <s_epik_input>  (47) 
W0NIMl0xW0NIMl1DKD1PKVtDSDJdQyhbQ0BdMTJbQ0gzXSk9W0NIXVtDSDJdW0NAQEhdM1tDQEBIXTJbQ0gyXVtDSDJdW0NAXTQoW0NIM10pW0NASF0zW0NIMl1bQ0hdPUM0YzVbY0hdW2NIXVtjSF1ubjU=

>  <s_epik_cmdline>  (47) 
J2VwaWtfcHl0aG9uJywgJy1waHQnLCAnMi4wJywgJy1waCcsICc3LjAnLCAnLXRuJywgJzgnLCAnLW1hJywgJzIwMCcsICctaW1hZScsICc8aW5maWxlLm1hZT4nLCAnLW9tYWUnLCAnPG91dGZpbGUubWFlPic=

>  <r_lp_tautomer_probability>  (47) 
0.99995

>  <r_epik_Ionization_Penalty>  (47) 
0.00351302

>  <r_epik_Ionization_Penalty_Charging>  (47) 
0

>  <r_epik_Ionization_Penalty_Neutral>  (47) 
0.00351302

>  <r_epik_State_Penalty>  (47) 
0.00232142

>  <r_epik_Charging_Adjusted_Penalty>  (47) 
0.00232142

>  <i_epik_Tot_Q>  (47) 
0

>  <i_epik_Tot_abs_Q>  (47) 
0

>  <s_lp_Force_Field>  (47) 
OPLS3e

>  <r_lp_Energy>  (47) 
38.7505

>  <b_lp_Chiralities_Consistent>  (47) 
1

>  <s_lp_Variant>  (47) 
6:0-1

>  <s_i_glide_gridfile>  (47) 
pfpi4k_grid

>  <i_i_glide_lignum>  (47) 
20

>  <i_i_glide_rotatable_bonds>  (47) 
1

>  <r_i_docking_score>  (47) 
-3.40169

>  <r_i_glide_ligand_efficiency>  (47) 
-0.130834

>  <r_i_glide_ligand_efficiency_sa>  (47) 
-0.387595

>  <r_i_glide_ligand_efficiency_ln>  (47) 
-0.798875

>  <r_i_glide_gscore>  (47) 
-3.40169

>  <r_i_glide_lipo>  (47) 
-0.551022

>  <r_i_glide_hbond>  (47) 
-0.0150587

>  <r_i_glide_metal>  (47) 
-0

>  <r_i_glide_rewards>  (47) 
-1.23158

>  <r_i_glide_evdw>  (47) 
-27.3063

>  <r_i_glide_ecoul>  (47) 
-2.02105

>  <r_i_glide_erotb>  (47) 
0.156763

>  <r_i_glide_esite>  (47) 
-0.092319

>  <r_i_glide_emodel>  (47) 
-35.8097

>  <r_i_glide_energy>  (47) 
-29.3274

>  <r_i_glide_einternal>  (47) 
0.202022

>  <r_i_glide_intrahb_reward>  (47) 
-0

>  <i_i_glide_confnum>  (47) 
5

>  <i_i_glide_posenum>  (47) 
35

>  <r_i_glide_eff_state_penalty>  (47) 
0

>  <ligand_id>  (47) 
6

>  <original_smiles>  (47) 
CC12CCC(=O)CC1=CCC1C2CCC2(C)C(c3cccnn3)=CCC12

>  <smiles>  (47) 
[H]C1=C2C([H])([H])C(=O)C([H])([H])C([H])([H])C2(C([H])([H])[H])C2([H])C([H])([H])C([H])([H])C3(C([H])([H])[H])C(c4nnc([H])c([H])c4[H])=C([H])C([H])([H])C3([H])C2([H])C1([H])[H]

$$$$
6:0:1
     RDKit          3D

 54 58  0  0  1  0  0  0  0  0999 V2000
    4.2483   -4.9356    0.3223 C   0  0  0  0  0  0  0  0  0  0  0  0
    5.3097   -4.6931    1.4237 C   0  0  2  0  0  0  0  0  0  0  0  0
    5.1753   -3.2326    1.9618 C   0  0  0  0  0  0  0  0  0  0  0  0
    5.5315   -2.1345    0.9465 C   0  0  0  0  0  0  0  0  0  0  0  0
    6.9080   -2.3841    0.3562 C   0  0  0  0  0  0  0  0  0  0  0  0
    7.7409   -1.4838    0.2536 O   0  0  0  0  0  0  0  0  0  0  0  0
    7.1682   -3.7818   -0.1842 C   0  0  0  0  0  0  0  0  0  0  0  0
    6.6983   -4.8719    0.7780 C   0  0  0  0  0  0  0  0  0  0  0  0
    7.4668   -5.9535    0.9988 C   0  0  0  0  0  0  0  0  0  0  0  0
    7.0766   -7.1418    1.8528 C   0  0  0  0  0  0  0  0  0  0  0  0
    5.5966   -7.1382    2.3019 C   0  0  2  0  0  0  0  0  0  0  0  0
    5.1341   -5.6964    2.6245 C   0  0  2  0  0  0  0  0  0  0  0  0
    3.7062   -5.7325    3.1996 C   0  0  0  0  0  0  0  0  0  0  0  0
    3.6884   -6.5421    4.4913 C   0  0  0  0  0  0  0  0  0  0  0  0
    4.0719   -8.0307    4.2881 C   0  0  1  0  0  0  0  0  0  0  0  0
    4.2650   -8.6617    5.6876 C   0  0  0  0  0  0  0  0  0  0  0  0
    3.0805   -8.9258    3.5356 C   0  0  0  0  0  0  0  0  0  0  0  0
    1.5936   -8.8386    3.5602 C   0  0  0  0  0  0  0  0  0  0  0  0
    0.7864   -9.5661    2.6561 C   0  0  0  0  0  0  0  0  0  0  0  0
   -0.6089   -9.4567    2.7900 C   0  0  0  0  0  0  0  0  0  0  0  0
   -1.1038   -8.6254    3.8085 C   0  0  0  0  0  0  0  0  0  0  0  0
   -0.2922   -7.9394    4.6420 N   0  0  0  0  0  0  0  0  0  0  0  0
    1.0357   -8.0698    4.5287 N   0  0  0  0  0  0  0  0  0  0  0  0
    3.7653   -9.7733    2.7539 C   0  0  0  0  0  0  0  0  0  0  0  0
    5.2553   -9.5949    2.8438 C   0  0  0  0  0  0  0  0  0  0  0  0
    5.3894   -8.1801    3.4559 C   0  0  1  0  0  0  0  0  0  0  0  0
    3.2372   -4.7388    0.6793 H   0  0  0  0  0  0  0  0  0  0  0  0
    4.2824   -5.9605   -0.0478 H   0  0  0  0  0  0  0  0  0  0  0  0
    4.4060   -4.2917   -0.5443 H   0  0  0  0  0  0  0  0  0  0  0  0
    4.1639   -3.0390    2.3168 H   0  0  0  0  0  0  0  0  0  0  0  0
    5.8201   -3.1004    2.8312 H   0  0  0  0  0  0  0  0  0  0  0  0
    4.8096   -2.1138    0.1320 H   0  0  0  0  0  0  0  0  0  0  0  0
    5.5046   -1.1495    1.4122 H   0  0  0  0  0  0  0  0  0  0  0  0
    6.6295   -3.8749   -1.1243 H   0  0  0  0  0  0  0  0  0  0  0  0
    8.2289   -3.8990   -0.4009 H   0  0  0  0  0  0  0  0  0  0  0  0
    8.4365   -6.0307    0.5250 H   0  0  0  0  0  0  0  0  0  0  0  0
    7.2848   -8.0447    1.2786 H   0  0  0  0  0  0  0  0  0  0  0  0
    7.7478   -7.1557    2.7121 H   0  0  0  0  0  0  0  0  0  0  0  0
    4.9916   -7.4673    1.4567 H   0  0  0  0  0  0  0  0  0  0  0  0
    5.7889   -5.3445    3.4232 H   0  0  0  0  0  0  0  0  0  0  0  0
    3.3500   -4.7292    3.4266 H   0  0  0  0  0  0  0  0  0  0  0  0
    3.0050   -6.1657    2.4856 H   0  0  0  0  0  0  0  0  0  0  0  0
    4.4008   -6.0912    5.1836 H   0  0  0  0  0  0  0  0  0  0  0  0
    2.7315   -6.4106    4.9891 H   0  0  0  0  0  0  0  0  0  0  0  0
    5.0596   -8.1655    6.2466 H   0  0  0  0  0  0  0  0  0  0  0  0
    4.5191   -9.7225    5.6277 H   0  0  0  0  0  0  0  0  0  0  0  0
    3.3493   -8.5901    6.2783 H   0  0  0  0  0  0  0  0  0  0  0  0
    1.2010  -10.1937    1.8832 H   0  0  0  0  0  0  0  0  0  0  0  0
   -1.2805  -10.0059    2.1455 H   0  0  0  0  0  0  0  0  0  0  0  0
   -2.1683   -8.5048    3.9743 H   0  0  0  0  0  0  0  0  0  0  0  0
    3.3502  -10.5261    2.0991 H   0  0  0  0  0  0  0  0  0  0  0  0
    5.6511  -10.3648    3.5074 H   0  0  0  0  0  0  0  0  0  0  0  0
    5.7335   -9.7112    1.8706 H   0  0  0  0  0  0  0  0  0  0  0  0
    6.2476   -8.1350    4.1292 H   0  0  0  0  0  0  0  0  0  0  0  0
  2  1  1  6
  1 27  1  0
  1 28  1  0
  1 29  1  0
  2  8  1  0
  2 12  1  0
  2  3  1  0
  3  4  1  0
  3 30  1  0
  3 31  1  0
  4  5  1  0
  4 32  1  0
  4 33  1  0
  5  6  2  0
  5  7  1  0
  7  8  1  0
  7 34  1  0
  7 35  1  0
  8  9  2  0
  9 10  1  0
  9 36  1  0
 10 11  1  0
 10 37  1  0
 10 38  1  0
 11 26  1  0
 11 12  1  0
 11 39  1  6
 12 13  1  0
 12 40  1  1
 13 14  1  0
 13 41  1  0
 13 42  1  0
 14 15  1  0
 14 43  1  0
 14 44  1  0
 15 26  1  0
 15 16  1  1
 15 17  1  0
 16 45  1  0
 16 46  1  0
 16 47  1  0
 17 18  1  0
 17 24  2  0
 18 23  1  0
 18 19  2  0
 19 20  1  0
 19 48  1  0
 20 21  2  0
 20 49  1  0
 21 22  1  0
 21 50  1  0
 22 23  2  0
 24 25  1  0
 24 51  1  0
 25 26  1  0
 25 52  1  0
 25 53  1  0
 26 54  1  1
M  END
>  <i_m_ct_stereo_status>  (48) 
1

>  <s_m_source_file>  (48) 
/var/tmp/pbs.5076255.sched01/tmpvv81v907/0tx7qkblw.sdf

>  <i_m_source_file_index>  (48) 
20

>  <i_lp_mmshare_version>  (48) 
48012

>  <i_f3d_flags>  (48) 
0

>  <s_epik_input>  (48) 
W0NIMl0xW0NIMl1DKD1PKVtDSDJdQyhbQ0BdMTJbQ0gzXSk9W0NIXVtDSDJdW0NAQEhdM1tDQEBIXTJbQ0gyXVtDSDJdW0NAXTQoW0NIM10pW0NASF0zW0NIMl1bQ0hdPUM0YzVbY0hdW2NIXVtjSF1ubjU=

>  <s_epik_cmdline>  (48) 
J2VwaWtfcHl0aG9uJywgJy1waHQnLCAnMi4wJywgJy1waCcsICc3LjAnLCAnLXRuJywgJzgnLCAnLW1hJywgJzIwMCcsICctaW1hZScsICc8aW5maWxlLm1hZT4nLCAnLW9tYWUnLCAnPG91dGZpbGUubWFlPic=

>  <r_lp_tautomer_probability>  (48) 
0.99995

>  <r_epik_Ionization_Penalty>  (48) 
0.00351302

>  <r_epik_Ionization_Penalty_Charging>  (48) 
0

>  <r_epik_Ionization_Penalty_Neutral>  (48) 
0.00351302

>  <r_epik_State_Penalty>  (48) 
0.00232142

>  <r_epik_Charging_Adjusted_Penalty>  (48) 
0.00232142

>  <i_epik_Tot_Q>  (48) 
0

>  <i_epik_Tot_abs_Q>  (48) 
0

>  <s_lp_Force_Field>  (48) 
OPLS3e

>  <r_lp_Energy>  (48) 
38.7505

>  <b_lp_Chiralities_Consistent>  (48) 
1

>  <s_lp_Variant>  (48) 
6:0-1

>  <s_i_glide_gridfile>  (48) 
pfpi4k_grid

>  <i_i_glide_lignum>  (48) 
20

>  <i_i_glide_rotatable_bonds>  (48) 
1

>  <r_i_docking_score>  (48) 
-3.35341

>  <r_i_glide_ligand_efficiency>  (48) 
-0.128977

>  <r_i_glide_ligand_efficiency_sa>  (48) 
-0.382095

>  <r_i_glide_ligand_efficiency_ln>  (48) 
-0.787538

>  <r_i_glide_gscore>  (48) 
-3.35341

>  <r_i_glide_lipo>  (48) 
-0.579712

>  <r_i_glide_hbond>  (48) 
-0.070851

>  <r_i_glide_metal>  (48) 
-0

>  <r_i_glide_rewards>  (48) 
-1.18247

>  <r_i_glide_evdw>  (48) 
-26.1517

>  <r_i_glide_ecoul>  (48) 
-2.06749

>  <r_i_glide_erotb>  (48) 
0.156763

>  <r_i_glide_esite>  (48) 
-0.0594378

>  <r_i_glide_emodel>  (48) 
-34.3582

>  <r_i_glide_energy>  (48) 
-28.2192

>  <r_i_glide_einternal>  (48) 
0.713278

>  <r_i_glide_intrahb_reward>  (48) 
-0

>  <i_i_glide_confnum>  (48) 
5

>  <i_i_glide_posenum>  (48) 
19

>  <r_i_glide_eff_state_penalty>  (48) 
0

>  <ligand_id>  (48) 
6

>  <original_smiles>  (48) 
CC12CCC(=O)CC1=CCC1C2CCC2(C)C(c3cccnn3)=CCC12

>  <smiles>  (48) 
[H]C1=C2C([H])([H])C(=O)C([H])([H])C([H])([H])C2(C([H])([H])[H])C2([H])C([H])([H])C([H])([H])C3(C([H])([H])[H])C(c4nnc([H])c([H])c4[H])=C([H])C([H])([H])C3([H])C2([H])C1([H])[H]

$$$$
6:0:2
     RDKit          3D

 54 58  0  0  1  0  0  0  0  0999 V2000
    2.8710   -6.6363    7.3039 C   0  0  0  0  0  0  0  0  0  0  0  0
    1.3394   -6.7566    7.4974 C   0  0  2  0  0  0  0  0  0  0  0  0
    0.7831   -5.4297    8.1005 C   0  0  0  0  0  0  0  0  0  0  0  0
    1.2585   -5.1261    9.5315 C   0  0  0  0  0  0  0  0  0  0  0  0
    0.9803   -6.3092   10.4423 C   0  0  0  0  0  0  0  0  0  0  0  0
    0.4139   -6.1703   11.5270 O   0  0  0  0  0  0  0  0  0  0  0  0
    1.4620   -7.6688    9.9562 C   0  0  0  0  0  0  0  0  0  0  0  0
    1.0962   -7.9079    8.4908 C   0  0  0  0  0  0  0  0  0  0  0  0
    0.6181   -9.1028    8.1036 C   0  0  0  0  0  0  0  0  0  0  0  0
    0.2946   -9.4907    6.6775 C   0  0  0  0  0  0  0  0  0  0  0  0
    0.7896   -8.4872    5.6198 C   0  0  2  0  0  0  0  0  0  0  0  0
    0.6095   -7.0403    6.1309 C   0  0  2  0  0  0  0  0  0  0  0  0
    0.9785   -6.0560    5.0098 C   0  0  0  0  0  0  0  0  0  0  0  0
    0.0700   -6.2718    3.8086 C   0  0  0  0  0  0  0  0  0  0  0  0
    0.1855   -7.6760    3.1728 C   0  0  1  0  0  0  0  0  0  0  0  0
   -0.9829   -7.8416    2.1745 C   0  0  0  0  0  0  0  0  0  0  0  0
    1.4693   -7.9868    2.4045 C   0  0  0  0  0  0  0  0  0  0  0  0
    2.2973   -7.0220    1.6432 C   0  0  0  0  0  0  0  0  0  0  0  0
    3.6804   -7.2308    1.4163 C   0  0  0  0  0  0  0  0  0  0  0  0
    4.3561   -6.2971    0.6089 C   0  0  0  0  0  0  0  0  0  0  0  0
    3.6101   -5.2218    0.0919 C   0  0  0  0  0  0  0  0  0  0  0  0
    2.2886   -5.0742    0.3383 N   0  0  0  0  0  0  0  0  0  0  0  0
    1.6417   -5.9792    1.0815 N   0  0  0  0  0  0  0  0  0  0  0  0
    1.8306   -9.2538    2.6460 C   0  0  0  0  0  0  0  0  0  0  0  0
    0.8765   -9.9737    3.5583 C   0  0  0  0  0  0  0  0  0  0  0  0
    0.1170   -8.8085    4.2430 C   0  0  1  0  0  0  0  0  0  0  0  0
    3.1361   -5.7846    6.6776 H   0  0  0  0  0  0  0  0  0  0  0  0
    3.2799   -7.5371    6.8441 H   0  0  0  0  0  0  0  0  0  0  0  0
    3.3925   -6.5100    8.2539 H   0  0  0  0  0  0  0  0  0  0  0  0
    1.0512   -4.5802    7.4731 H   0  0  0  0  0  0  0  0  0  0  0  0
   -0.3075   -5.4621    8.1112 H   0  0  0  0  0  0  0  0  0  0  0  0
    2.3273   -4.9234    9.5480 H   0  0  0  0  0  0  0  0  0  0  0  0
    0.7651   -4.2355    9.9200 H   0  0  0  0  0  0  0  0  0  0  0  0
    2.5417   -7.7130   10.0726 H   0  0  0  0  0  0  0  0  0  0  0  0
    1.0345   -8.4483   10.5842 H   0  0  0  0  0  0  0  0  0  0  0  0
    0.4749   -9.8824    8.8377 H   0  0  0  0  0  0  0  0  0  0  0  0
    0.7565  -10.4569    6.4802 H   0  0  0  0  0  0  0  0  0  0  0  0
   -0.7836   -9.6448    6.6166 H   0  0  0  0  0  0  0  0  0  0  0  0
    1.8623   -8.6358    5.4969 H   0  0  0  0  0  0  0  0  0  0  0  0
   -0.4570   -6.9179    6.3175 H   0  0  0  0  0  0  0  0  0  0  0  0
    0.8564   -5.0280    5.3438 H   0  0  0  0  0  0  0  0  0  0  0  0
    2.0179   -6.1786    4.7024 H   0  0  0  0  0  0  0  0  0  0  0  0
   -0.9594   -6.1406    4.1451 H   0  0  0  0  0  0  0  0  0  0  0  0
    0.2408   -5.4776    3.0858 H   0  0  0  0  0  0  0  0  0  0  0  0
   -1.9570   -7.7679    2.6632 H   0  0  0  0  0  0  0  0  0  0  0  0
   -0.9445   -8.8135    1.6775 H   0  0  0  0  0  0  0  0  0  0  0  0
   -0.9337   -7.0810    1.3932 H   0  0  0  0  0  0  0  0  0  0  0  0
    4.2054   -8.0772    1.8287 H   0  0  0  0  0  0  0  0  0  0  0  0
    5.4031   -6.4044    0.3696 H   0  0  0  0  0  0  0  0  0  0  0  0
    4.0633   -4.4745   -0.5477 H   0  0  0  0  0  0  0  0  0  0  0  0
    2.7063   -9.7463    2.2508 H   0  0  0  0  0  0  0  0  0  0  0  0
    0.2150  -10.5875    2.9446 H   0  0  0  0  0  0  0  0  0  0  0  0
    1.4011  -10.6328    4.2504 H   0  0  0  0  0  0  0  0  0  0  0  0
   -0.9268   -9.0769    4.4151 H   0  0  0  0  0  0  0  0  0  0  0  0
  2  1  1  6
  1 27  1  0
  1 28  1  0
  1 29  1  0
  2  8  1  0
  2 12  1  0
  2  3  1  0
  3  4  1  0
  3 30  1  0
  3 31  1  0
  4  5  1  0
  4 32  1  0
  4 33  1  0
  5  6  2  0
  5  7  1  0
  7  8  1  0
  7 34  1  0
  7 35  1  0
  8  9  2  0
  9 10  1  0
  9 36  1  0
 10 11  1  0
 10 37  1  0
 10 38  1  0
 11 26  1  0
 11 12  1  0
 11 39  1  6
 12 13  1  0
 12 40  1  1
 13 14  1  0
 13 41  1  0
 13 42  1  0
 14 15  1  0
 14 43  1  0
 14 44  1  0
 15 26  1  0
 15 16  1  6
 15 17  1  0
 16 45  1  0
 16 46  1  0
 16 47  1  0
 17 18  1  0
 17 24  2  0
 18 23  1  0
 18 19  2  0
 19 20  1  0
 19 48  1  0
 20 21  2  0
 20 49  1  0
 21 22  1  0
 21 50  1  0
 22 23  2  0
 24 25  1  0
 24 51  1  0
 25 26  1  0
 25 52  1  0
 25 53  1  0
 26 54  1  1
M  END
>  <i_m_ct_stereo_status>  (49) 
1

>  <s_m_source_file>  (49) 
/var/tmp/pbs.5076255.sched01/tmpvv81v907/0tx7qkblw.sdf

>  <i_m_source_file_index>  (49) 
20

>  <i_lp_mmshare_version>  (49) 
48012

>  <i_f3d_flags>  (49) 
0

>  <s_epik_input>  (49) 
W0NIMl0xW0NIMl1DKD1PKVtDSDJdQyhbQ0BdMTJbQ0gzXSk9W0NIXVtDSDJdW0NAQEhdM1tDQEBIXTJbQ0gyXVtDSDJdW0NAXTQoW0NIM10pW0NASF0zW0NIMl1bQ0hdPUM0YzVbY0hdW2NIXVtjSF1ubjU=

>  <s_epik_cmdline>  (49) 
J2VwaWtfcHl0aG9uJywgJy1waHQnLCAnMi4wJywgJy1waCcsICc3LjAnLCAnLXRuJywgJzgnLCAnLW1hJywgJzIwMCcsICctaW1hZScsICc8aW5maWxlLm1hZT4nLCAnLW9tYWUnLCAnPG91dGZpbGUubWFlPic=

>  <r_lp_tautomer_probability>  (49) 
0.99995

>  <r_epik_Ionization_Penalty>  (49) 
0.00351302

>  <r_epik_Ionization_Penalty_Charging>  (49) 
0

>  <r_epik_Ionization_Penalty_Neutral>  (49) 
0.00351302

>  <r_epik_State_Penalty>  (49) 
0.00232142

>  <r_epik_Charging_Adjusted_Penalty>  (49) 
0.00232142

>  <i_epik_Tot_Q>  (49) 
0

>  <i_epik_Tot_abs_Q>  (49) 
0

>  <s_lp_Force_Field>  (49) 
OPLS3e

>  <r_lp_Energy>  (49) 
38.7505

>  <b_lp_Chiralities_Consistent>  (49) 
1

>  <s_lp_Variant>  (49) 
6:0-1

>  <s_i_glide_gridfile>  (49) 
pfpi4k_grid

>  <i_i_glide_lignum>  (49) 
20

>  <i_i_glide_rotatable_bonds>  (49) 
1

>  <r_i_docking_score>  (49) 
-2.85067

>  <r_i_glide_ligand_efficiency>  (49) 
-0.109641

>  <r_i_glide_ligand_efficiency_sa>  (49) 
-0.324811

>  <r_i_glide_ligand_efficiency_ln>  (49) 
-0.669469

>  <r_i_glide_gscore>  (49) 
-2.85067

>  <r_i_glide_lipo>  (49) 
-0.239894

>  <r_i_glide_hbond>  (49) 
0

>  <r_i_glide_metal>  (49) 
-0

>  <r_i_glide_rewards>  (49) 
-1.03308

>  <r_i_glide_evdw>  (49) 
-25.6419

>  <r_i_glide_ecoul>  (49) 
-2.10604

>  <r_i_glide_erotb>  (49) 
0.156763

>  <r_i_glide_esite>  (49) 
-0.136451

>  <r_i_glide_emodel>  (49) 
-33.2498

>  <r_i_glide_energy>  (49) 
-27.7479

>  <r_i_glide_einternal>  (49) 
0.00589488

>  <r_i_glide_intrahb_reward>  (49) 
-0

>  <i_i_glide_confnum>  (49) 
5

>  <i_i_glide_posenum>  (49) 
14

>  <r_i_glide_eff_state_penalty>  (49) 
0

>  <ligand_id>  (49) 
6

>  <original_smiles>  (49) 
CC12CCC(=O)CC1=CCC1C2CCC2(C)C(c3cccnn3)=CCC12

>  <smiles>  (49) 
[H]C1=C2C([H])([H])C(=O)C([H])([H])C([H])([H])C2(C([H])([H])[H])C2([H])C([H])([H])C([H])([H])C3(C([H])([H])[H])C(c4nnc([H])c([H])c4[H])=C([H])C([H])([H])C3([H])C2([H])C1([H])[H]

$$$$
7:0:0
     RDKit          3D

 61 66  0  0  1  0  0  0  0  0999 V2000
    3.6827    0.1920    1.3203 C   0  0  0  0  0  0  0  0  0  0  0  0
    4.0699   -0.9871    1.8066 C   0  0  0  0  0  0  0  0  0  0  0  0
    3.4146   -1.5740    3.0460 C   0  0  1  0  0  0  0  0  0  0  0  0
    4.3942   -1.9627    4.1552 C   0  0  0  0  0  0  0  0  0  0  0  0
    4.6635   -3.3602    4.1429 O   0  0  0  0  0  0  0  0  0  0  0  0
    4.7316   -4.0452    2.8800 C   0  0  2  0  0  0  0  0  0  0  0  0
    5.6777   -3.1926    1.8936 C   0  0  1  0  0  0  0  0  0  0  0  0
    6.9394   -3.8550    1.2230 C   0  0  1  0  0  0  0  0  0  0  0  0
    7.3968   -5.2190    1.7810 C   0  0  0  0  0  0  0  0  0  0  0  0
    6.9434   -3.8430   -0.2978 C   0  0  0  0  0  0  0  0  0  0  0  0
    6.6570   -2.4568   -0.8726 C   0  0  0  0  0  0  0  0  0  0  0  0
    5.3474   -1.8083   -0.3622 C   0  0  1  0  0  0  0  0  0  0  0  0
    4.0702   -2.1577   -1.1845 C   0  0  1  0  0  0  0  0  0  0  0  0
    4.1860   -1.7311   -2.6655 C   0  0  0  0  0  0  0  0  0  0  0  0
    3.5903   -3.6172   -1.1016 C   0  0  0  0  0  0  0  0  0  0  0  0
    2.6393   -3.9324    0.0593 C   0  0  0  0  0  0  0  0  0  0  0  0
    2.9771   -5.0572    1.0721 C   0  0  1  0  0  0  0  0  0  0  0  0
    3.8693   -6.1970    0.6194 C   0  0  0  0  0  0  0  0  0  0  0  0
    3.8113   -7.3612    1.6178 C   0  0  1  0  0  0  0  0  0  0  0  0
    4.8313   -8.4632    1.2989 C   0  0  0  0  0  0  0  0  0  0  0  0
    4.1650   -6.8285    2.8886 O   0  0  0  0  0  0  0  0  0  0  0  0
    3.0348   -5.8255    3.2557 O   0  0  0  0  0  0  0  0  0  0  0  0
    3.2635   -4.6110    2.5257 C   0  0  1  0  0  0  0  0  0  0  0  0
    2.0454   -3.7607    2.9999 C   0  0  1  0  0  0  0  0  0  0  0  0
    1.9778   -3.1453    4.3133 O   0  0  0  0  0  0  0  0  0  0  0  0
    2.0884   -2.2485    3.1666 C   0  0  1  0  0  0  0  0  0  0  0  0
    5.2605   -1.8211    1.1995 C   0  0  1  0  0  0  0  0  0  0  0  0
    4.1688    0.6544    0.4744 H   0  0  0  0  0  0  0  0  0  0  0  0
    2.8835    0.7427    1.7934 H   0  0  0  0  0  0  0  0  0  0  0  0
    3.4600   -2.2573    2.2437 H   0  0  0  0  0  0  0  0  0  0  0  0
    5.3151   -1.3785    4.1111 H   0  0  0  0  0  0  0  0  0  0  0  0
    3.9611   -1.7312    5.1290 H   0  0  0  0  0  0  0  0  0  0  0  0
    5.3175   -4.9065    3.1614 H   0  0  0  0  0  0  0  0  0  0  0  0
    6.2401   -2.7432    2.6930 H   0  0  0  0  0  0  0  0  0  0  0  0
    7.7801   -3.2039    1.4355 H   0  0  0  0  0  0  0  0  0  0  0  0
    6.6685   -6.0096    1.6272 H   0  0  0  0  0  0  0  0  0  0  0  0
    7.5868   -5.1674    2.8536 H   0  0  0  0  0  0  0  0  0  0  0  0
    8.3283   -5.5504    1.3186 H   0  0  0  0  0  0  0  0  0  0  0  0
    7.9382   -4.1352   -0.6422 H   0  0  0  0  0  0  0  0  0  0  0  0
    6.2815   -4.6101   -0.6699 H   0  0  0  0  0  0  0  0  0  0  0  0
    7.4932   -1.8269   -0.5761 H   0  0  0  0  0  0  0  0  0  0  0  0
    6.6969   -2.5090   -1.9618 H   0  0  0  0  0  0  0  0  0  0  0  0
    5.4886   -0.7585   -0.6294 H   0  0  0  0  0  0  0  0  0  0  0  0
    3.2587   -1.5329   -0.8085 H   0  0  0  0  0  0  0  0  0  0  0  0
    4.8681   -2.3692   -3.2281 H   0  0  0  0  0  0  0  0  0  0  0  0
    4.5227   -0.6988   -2.7598 H   0  0  0  0  0  0  0  0  0  0  0  0
    3.2138   -1.7901   -3.1604 H   0  0  0  0  0  0  0  0  0  0  0  0
    2.9964   -3.7901   -2.0003 H   0  0  0  0  0  0  0  0  0  0  0  0
    4.3790   -4.3462   -1.2025 H   0  0  0  0  0  0  0  0  0  0  0  0
    2.3430   -3.0099    0.5486 H   0  0  0  0  0  0  0  0  0  0  0  0
    1.7205   -4.2479   -0.4288 H   0  0  0  0  0  0  0  0  0  0  0  0
    2.0091   -5.5510    1.1717 H   0  0  0  0  0  0  0  0  0  0  0  0
    3.5262   -6.5670   -0.3291 H   0  0  0  0  0  0  0  0  0  0  0  0
    4.8908   -5.8619    0.4900 H   0  0  0  0  0  0  0  0  0  0  0  0
    2.8066   -7.7965    1.6475 H   0  0  0  0  0  0  0  0  0  0  0  0
    4.7205   -8.8216    0.2743 H   0  0  0  0  0  0  0  0  0  0  0  0
    4.7043   -9.3252    1.9607 H   0  0  0  0  0  0  0  0  0  0  0  0
    5.8643   -8.1203    1.4201 H   0  0  0  0  0  0  0  0  0  0  0  0
    1.0711   -4.1702    2.7304 H   0  0  0  0  0  0  0  0  0  0  0  0
    1.1876   -1.6710    2.9578 H   0  0  0  0  0  0  0  0  0  0  0  0
    6.0885   -1.1557    1.4511 H   0  0  0  0  0  0  0  0  0  0  0  0
  1  2  2  0
  1 28  1  0
  1 29  1  0
  2 27  1  0
  2  3  1  0
  3 26  1  0
  3  4  1  0
  3 30  1  1
  4  5  1  0
  4 31  1  0
  4 32  1  0
  5  6  1  0
  6 23  1  0
  6  7  1  0
  6 33  1  1
  7 27  1  0
  7  8  1  0
  7 34  1  1
  8  9  1  0
  8 10  1  0
  8 35  1  1
  9 36  1  0
  9 37  1  0
  9 38  1  0
 10 11  1  0
 10 39  1  0
 10 40  1  0
 11 12  1  0
 11 41  1  0
 11 42  1  0
 12 13  1  0
 12 27  1  0
 12 43  1  6
 13 14  1  0
 13 15  1  0
 13 44  1  1
 14 45  1  0
 14 46  1  0
 14 47  1  0
 15 16  1  0
 15 48  1  0
 15 49  1  0
 16 17  1  0
 16 50  1  0
 16 51  1  0
 17 23  1  0
 17 18  1  0
 17 52  1  1
 18 19  1  0
 18 53  1  0
 18 54  1  0
 19 20  1  0
 19 21  1  0
 19 55  1  1
 20 56  1  0
 20 57  1  0
 20 58  1  0
 21 22  1  0
 23 22  1  1
 23 24  1  0
 24 26  1  0
 24 25  1  0
 24 59  1  6
 25 26  1  0
 26 60  1  6
 27 61  1  1
M  END
>  <i_m_ct_stereo_status>  (50) 
1

>  <s_m_source_file>  (50) 
/var/tmp/pbs.5076255.sched01/tmpvv81v907/0tx7qkblw.sdf

>  <i_m_source_file_index>  (50) 
21

>  <i_lp_mmshare_version>  (50) 
48012

>  <i_f3d_flags>  (50) 
0

>  <s_epik_input>  (50) 
TzFbQ0BIXTJbQ0BASF0xW0NASF0oW0NIMl1PMylDKD1bQ0gyXSlbQ0BASF0oW0NASF00W0NIXTNDMjU2KVtDQEBIXShbQ0gyXVtDSDJdW0NAQEhdNFtDSDNdKVtDQEBIXShbQ0gzXSlbQ0gyXVtDSDJdW0NASF01W0NIMl1bQ0BASF0oW0NIM10pT082

>  <s_epik_cmdline>  (50) 
J2VwaWtfcHl0aG9uJywgJy1waHQnLCAnMi4wJywgJy1waCcsICc3LjAnLCAnLXRuJywgJzgnLCAnLW1hJywgJzIwMCcsICctaW1hZScsICc8aW5maWxlLm1hZT4nLCAnLW9tYWUnLCAnPG91dGZpbGUubWFlPic=

>  <r_lp_tautomer_probability>  (50) 
1

>  <r_epik_Ionization_Penalty>  (50) 
2.16584e-12

>  <r_epik_Ionization_Penalty_Charging>  (50) 
0

>  <r_epik_Ionization_Penalty_Neutral>  (50) 
2.16584e-12

>  <r_epik_State_Penalty>  (50) 
-0

>  <r_epik_Charging_Adjusted_Penalty>  (50) 
0

>  <i_epik_Tot_Q>  (50) 
0

>  <i_epik_Tot_abs_Q>  (50) 
0

>  <s_lp_Force_Field>  (50) 
OPLS3e

>  <r_lp_Energy>  (50) 
145.162

>  <b_lp_Chiralities_Consistent>  (50) 
1

>  <s_lp_Variant>  (50) 
7:0-1

>  <s_i_glide_gridfile>  (50) 
pfpi4k_grid

>  <i_i_glide_lignum>  (50) 
21

>  <i_i_glide_rotatable_bonds>  (50) 
0

>  <r_i_docking_score>  (50) 
-2.94521

>  <r_i_glide_ligand_efficiency>  (50) 
-0.109082

>  <r_i_glide_ligand_efficiency_sa>  (50) 
-0.327245

>  <r_i_glide_ligand_efficiency_ln>  (50) 
-0.685596

>  <r_i_glide_gscore>  (50) 
-2.94521

>  <r_i_glide_lipo>  (50) 
-0.610169

>  <r_i_glide_hbond>  (50) 
0

>  <r_i_glide_metal>  (50) 
-0

>  <r_i_glide_rewards>  (50) 
-0.855589

>  <r_i_glide_evdw>  (50) 
-26.2931

>  <r_i_glide_ecoul>  (50) 
-1.09862

>  <r_i_glide_erotb>  (50) 
0

>  <r_i_glide_esite>  (50) 
0

>  <r_i_glide_emodel>  (50) 
-32.5751

>  <r_i_glide_energy>  (50) 
-27.3918

>  <r_i_glide_einternal>  (50) 
0

>  <r_i_glide_intrahb_reward>  (50) 
-0

>  <i_i_glide_confnum>  (50) 
1

>  <i_i_glide_posenum>  (50) 
37

>  <r_i_glide_eff_state_penalty>  (50) 
0

>  <ligand_id>  (50) 
7

>  <original_smiles>  (50) 
C=C1C2COC3C4C(C)CCC(C(C)CCC5CC(C)OOC53C3OC23)C14

>  <smiles>  (50) 
[H]C([H])=C1C2([H])C([H])([H])OC3([H])C4([H])C1([H])C([H])(C([H])([H])C([H])([H])C4([H])C([H])([H])[H])C([H])(C([H])([H])[H])C([H])([H])C([H])([H])C1([H])C([H])([H])C([H])(C([H])([H])[H])OOC31C1([H])OC12[H]

$$$$
7:0:1
     RDKit          3D

 61 66  0  0  1  0  0  0  0  0999 V2000
    6.7750   -6.7336    3.3170 C   0  0  0  0  0  0  0  0  0  0  0  0
    5.4643   -6.5335    3.5329 C   0  0  0  0  0  0  0  0  0  0  0  0
    4.7214   -5.4261    2.8052 C   0  0  1  0  0  0  0  0  0  0  0  0
    3.9661   -4.4573    3.7192 C   0  0  0  0  0  0  0  0  0  0  0  0
    2.5768   -4.7754    3.7937 O   0  0  0  0  0  0  0  0  0  0  0  0
    2.1839   -6.1562    3.7772 C   0  0  2  0  0  0  0  0  0  0  0  0
    3.0987   -6.9432    4.8479 C   0  0  1  0  0  0  0  0  0  0  0  0
    2.4313   -7.7917    5.9952 C   0  0  1  0  0  0  0  0  0  0  0  0
    0.9359   -7.5372    6.2634 C   0  0  0  0  0  0  0  0  0  0  0  0
    2.7561   -9.2912    5.9977 C   0  0  0  0  0  0  0  0  0  0  0  0
    4.2608   -9.5464    5.8933 C   0  0  0  0  0  0  0  0  0  0  0  0
    4.9517   -8.8688    4.6819 C   0  0  1  0  0  0  0  0  0  0  0  0
    4.9553   -9.7046    3.3617 C   0  0  1  0  0  0  0  0  0  0  0  0
    5.6773  -11.0617    3.5315 C   0  0  0  0  0  0  0  0  0  0  0  0
    3.5841   -9.9197    2.6849 C   0  0  0  0  0  0  0  0  0  0  0  0
    3.1729   -8.8347    1.6844 C   0  0  0  0  0  0  0  0  0  0  0  0
    1.8321   -8.0918    1.8932 C   0  0  1  0  0  0  0  0  0  0  0  0
    0.7016   -8.8255    2.6134 C   0  0  0  0  0  0  0  0  0  0  0  0
   -0.6315   -8.0721    2.4146 C   0  0  1  0  0  0  0  0  0  0  0  0
   -1.7553   -8.6366    3.2712 C   0  0  0  0  0  0  0  0  0  0  0  0
   -0.4253   -6.7279    2.8117 O   0  0  0  0  0  0  0  0  0  0  0  0
    0.6071   -6.1402    1.8543 O   0  0  0  0  0  0  0  0  0  0  0  0
    1.9196   -6.5808    2.2393 C   0  0  1  0  0  0  0  0  0  0  0  0
    2.7939   -5.9007    1.1372 C   0  0  1  0  0  0  0  0  0  0  0  0
    3.1034   -4.5007    1.1728 O   0  0  0  0  0  0  0  0  0  0  0  0
    4.2039   -5.4100    1.3904 C   0  0  1  0  0  0  0  0  0  0  0  0
    4.6317   -7.3378    4.6004 C   0  0  1  0  0  0  0  0  0  0  0  0
    7.3398   -7.4913    3.8457 H   0  0  0  0  0  0  0  0  0  0  0  0
    7.3108   -6.1373    2.5956 H   0  0  0  0  0  0  0  0  0  0  0  0
    4.2223   -6.3561    2.7548 H   0  0  0  0  0  0  0  0  0  0  0  0
    4.4199   -4.4067    4.7124 H   0  0  0  0  0  0  0  0  0  0  0  0
    4.0428   -3.4426    3.3237 H   0  0  0  0  0  0  0  0  0  0  0  0
    1.2107   -6.0792    4.2372 H   0  0  0  0  0  0  0  0  0  0  0  0
    3.2609   -6.0885    5.5022 H   0  0  0  0  0  0  0  0  0  0  0  0
    2.9062   -7.4545    6.9202 H   0  0  0  0  0  0  0  0  0  0  0  0
    0.3063   -7.8385    5.4289 H   0  0  0  0  0  0  0  0  0  0  0  0
    0.7381   -6.4819    6.4630 H   0  0  0  0  0  0  0  0  0  0  0  0
    0.5891   -8.1002    7.1341 H   0  0  0  0  0  0  0  0  0  0  0  0
    2.4174   -9.7234    6.9401 H   0  0  0  0  0  0  0  0  0  0  0  0
    2.1797   -9.8340    5.2574 H   0  0  0  0  0  0  0  0  0  0  0  0
    4.7248   -9.1564    6.7990 H   0  0  0  0  0  0  0  0  0  0  0  0
    4.4494  -10.6185    5.9174 H   0  0  0  0  0  0  0  0  0  0  0  0
    6.0064   -8.9127    4.9652 H   0  0  0  0  0  0  0  0  0  0  0  0
    5.5892   -9.1799    2.6464 H   0  0  0  0  0  0  0  0  0  0  0  0
    5.0958  -11.7688    4.1244 H   0  0  0  0  0  0  0  0  0  0  0  0
    6.6535  -10.9482    4.0058 H   0  0  0  0  0  0  0  0  0  0  0  0
    5.8511  -11.5345    2.5642 H   0  0  0  0  0  0  0  0  0  0  0  0
    3.6568  -10.8370    2.1080 H   0  0  0  0  0  0  0  0  0  0  0  0
    2.8029  -10.1723    3.3859 H   0  0  0  0  0  0  0  0  0  0  0  0
    3.9945   -8.1427    1.5371 H   0  0  0  0  0  0  0  0  0  0  0  0
    3.1063   -9.3354    0.7186 H   0  0  0  0  0  0  0  0  0  0  0  0
    1.4398   -8.0683    0.8764 H   0  0  0  0  0  0  0  0  0  0  0  0
    0.5982   -9.8379    2.2186 H   0  0  0  0  0  0  0  0  0  0  0  0
    0.9176   -8.8995    3.6743 H   0  0  0  0  0  0  0  0  0  0  0  0
   -0.9250   -8.1094    1.3528 H   0  0  0  0  0  0  0  0  0  0  0  0
   -1.8744   -9.7042    3.1126 H   0  0  0  0  0  0  0  0  0  0  0  0
   -2.6991   -8.1527    3.0338 H   0  0  0  0  0  0  0  0  0  0  0  0
   -1.5858   -8.4883    4.3391 H   0  0  0  0  0  0  0  0  0  0  0  0
    2.5866   -6.2330    0.1222 H   0  0  0  0  0  0  0  0  0  0  0  0
    4.9299   -5.4608    0.5819 H   0  0  0  0  0  0  0  0  0  0  0  0
    5.1104   -6.9820    5.5116 H   0  0  0  0  0  0  0  0  0  0  0  0
  1  2  2  0
  1 28  1  0
  1 29  1  0
  2 27  1  0
  2  3  1  0
  3 26  1  0
  3  4  1  0
  3 30  1  6
  4  5  1  0
  4 31  1  0
  4 32  1  0
  5  6  1  0
  6 23  1  0
  6  7  1  0
  6 33  1  1
  7 27  1  0
  7  8  1  0
  7 34  1  1
  8  9  1  0
  8 10  1  0
  8 35  1  1
  9 36  1  0
  9 37  1  0
  9 38  1  0
 10 11  1  0
 10 39  1  0
 10 40  1  0
 11 12  1  0
 11 41  1  0
 11 42  1  0
 12 13  1  0
 12 27  1  0
 12 43  1  1
 13 14  1  0
 13 15  1  0
 13 44  1  6
 14 45  1  0
 14 46  1  0
 14 47  1  0
 15 16  1  0
 15 48  1  0
 15 49  1  0
 16 17  1  0
 16 50  1  0
 16 51  1  0
 17 23  1  0
 17 18  1  0
 17 52  1  6
 18 19  1  0
 18 53  1  0
 18 54  1  0
 19 20  1  0
 19 21  1  0
 19 55  1  6
 20 56  1  0
 20 57  1  0
 20 58  1  0
 21 22  1  0
 23 22  1  6
 23 24  1  0
 24 26  1  0
 24 25  1  0
 24 59  1  6
 25 26  1  0
 26 60  1  6
 27 61  1  1
M  END
>  <i_m_ct_stereo_status>  (51) 
1

>  <s_m_source_file>  (51) 
/var/tmp/pbs.5076255.sched01/tmpvv81v907/0tx7qkblw.sdf

>  <i_m_source_file_index>  (51) 
21

>  <i_lp_mmshare_version>  (51) 
48012

>  <i_f3d_flags>  (51) 
0

>  <s_epik_input>  (51) 
TzFbQ0BIXTJbQ0BASF0xW0NASF0oW0NIMl1PMylDKD1bQ0gyXSlbQ0BASF0oW0NASF00W0NIXTNDMjU2KVtDQEBIXShbQ0gyXVtDSDJdW0NAQEhdNFtDSDNdKVtDQEBIXShbQ0gzXSlbQ0gyXVtDSDJdW0NASF01W0NIMl1bQ0BASF0oW0NIM10pT082

>  <s_epik_cmdline>  (51) 
J2VwaWtfcHl0aG9uJywgJy1waHQnLCAnMi4wJywgJy1waCcsICc3LjAnLCAnLXRuJywgJzgnLCAnLW1hJywgJzIwMCcsICctaW1hZScsICc8aW5maWxlLm1hZT4nLCAnLW9tYWUnLCAnPG91dGZpbGUubWFlPic=

>  <r_lp_tautomer_probability>  (51) 
1

>  <r_epik_Ionization_Penalty>  (51) 
2.16584e-12

>  <r_epik_Ionization_Penalty_Charging>  (51) 
0

>  <r_epik_Ionization_Penalty_Neutral>  (51) 
2.16584e-12

>  <r_epik_State_Penalty>  (51) 
-0

>  <r_epik_Charging_Adjusted_Penalty>  (51) 
0

>  <i_epik_Tot_Q>  (51) 
0

>  <i_epik_Tot_abs_Q>  (51) 
0

>  <s_lp_Force_Field>  (51) 
OPLS3e

>  <r_lp_Energy>  (51) 
145.162

>  <b_lp_Chiralities_Consistent>  (51) 
1

>  <s_lp_Variant>  (51) 
7:0-1

>  <s_i_glide_gridfile>  (51) 
pfpi4k_grid

>  <i_i_glide_lignum>  (51) 
21

>  <i_i_glide_rotatable_bonds>  (51) 
0

>  <r_i_docking_score>  (51) 
-2.72049

>  <r_i_glide_ligand_efficiency>  (51) 
-0.100759

>  <r_i_glide_ligand_efficiency_sa>  (51) 
-0.302276

>  <r_i_glide_ligand_efficiency_ln>  (51) 
-0.633284

>  <r_i_glide_gscore>  (51) 
-2.72049

>  <r_i_glide_lipo>  (51) 
-0.0320327

>  <r_i_glide_hbond>  (51) 
-0.329992

>  <r_i_glide_metal>  (51) 
-0

>  <r_i_glide_rewards>  (51) 
-0.855589

>  <r_i_glide_evdw>  (51) 
-23.5997

>  <r_i_glide_ecoul>  (51) 
-2.1526

>  <r_i_glide_erotb>  (51) 
0

>  <r_i_glide_esite>  (51) 
0

>  <r_i_glide_emodel>  (51) 
-30.5672

>  <r_i_glide_energy>  (51) 
-25.7523

>  <r_i_glide_einternal>  (51) 
0

>  <r_i_glide_intrahb_reward>  (51) 
-0

>  <i_i_glide_confnum>  (51) 
2

>  <i_i_glide_posenum>  (51) 
1

>  <r_i_glide_eff_state_penalty>  (51) 
0

>  <ligand_id>  (51) 
7

>  <original_smiles>  (51) 
C=C1C2COC3C4C(C)CCC(C(C)CCC5CC(C)OOC53C3OC23)C14

>  <smiles>  (51) 
[H]C([H])=C1C2([H])C([H])([H])OC3([H])C4([H])C1([H])C([H])(C([H])([H])C([H])([H])C4([H])C([H])([H])[H])C([H])(C([H])([H])[H])C([H])([H])C([H])([H])C1([H])C([H])([H])C([H])(C([H])([H])[H])OOC31C1([H])OC12[H]

$$$$
7:0:2
     RDKit          3D

 61 66  0  0  1  0  0  0  0  0999 V2000
    6.9270   -5.2549    1.6276 C   0  0  0  0  0  0  0  0  0  0  0  0
    5.6940   -5.2529    2.1684 C   0  0  0  0  0  0  0  0  0  0  0  0
    4.5665   -4.4819    1.5165 C   0  0  1  0  0  0  0  0  0  0  0  0
    3.8421   -3.4956    2.4395 C   0  0  0  0  0  0  0  0  0  0  0  0
    2.6271   -4.0415    2.9479 O   0  0  0  0  0  0  0  0  0  0  0  0
    2.5747   -5.4411    3.2612 C   0  0  2  0  0  0  0  0  0  0  0  0
    3.8775   -5.7998    4.1410 C   0  0  1  0  0  0  0  0  0  0  0  0
    3.7221   -6.4927    5.5469 C   0  0  1  0  0  0  0  0  0  0  0  0
    2.3177   -6.4652    6.1791 C   0  0  0  0  0  0  0  0  0  0  0  0
    4.3771   -7.8721    5.6915 C   0  0  0  0  0  0  0  0  0  0  0  0
    5.8297   -7.8631    5.2122 C   0  0  0  0  0  0  0  0  0  0  0  0
    6.0291   -7.3467    3.7643 C   0  0  1  0  0  0  0  0  0  0  0  0
    5.9121   -8.4307    2.6424 C   0  0  1  0  0  0  0  0  0  0  0  0
    6.9491   -9.5605    2.8217 C   0  0  0  0  0  0  0  0  0  0  0  0
    4.5122   -9.0433    2.4083 C   0  0  0  0  0  0  0  0  0  0  0  0
    3.6302   -8.2759    1.4167 C   0  0  0  0  0  0  0  0  0  0  0  0
    2.2373   -7.7677    1.8679 C   0  0  1  0  0  0  0  0  0  0  0  0
    1.5149   -8.5228    2.9812 C   0  0  0  0  0  0  0  0  0  0  0  0
    0.0338   -8.0852    3.0507 C   0  0  1  0  0  0  0  0  0  0  0  0
   -0.6846   -8.6494    4.2725 C   0  0  0  0  0  0  0  0  0  0  0  0
    0.0100   -6.6727    3.1613 O   0  0  0  0  0  0  0  0  0  0  0  0
    0.6200   -6.1192    1.8731 O   0  0  0  0  0  0  0  0  0  0  0  0
    2.0527   -6.2264    1.9467 C   0  0  1  0  0  0  0  0  0  0  0  0
    2.4613   -5.6434    0.5532 C   0  0  1  0  0  0  0  0  0  0  0  0
    2.4357   -4.2422    0.2786 O   0  0  0  0  0  0  0  0  0  0  0  0
    3.7303   -4.8658    0.3196 C   0  0  1  0  0  0  0  0  0  0  0  0
    5.3542   -5.9522    3.5405 C   0  0  1  0  0  0  0  0  0  0  0  0
    7.7603   -5.7645    2.0895 H   0  0  0  0  0  0  0  0  0  0  0  0
    7.1146   -4.7364    0.7015 H   0  0  0  0  0  0  0  0  0  0  0  0
    4.2970   -5.4737    1.7529 H   0  0  0  0  0  0  0  0  0  0  0  0
    4.4971   -3.1510    3.2462 H   0  0  0  0  0  0  0  0  0  0  0  0
    3.5827   -2.5916    1.8852 H   0  0  0  0  0  0  0  0  0  0  0  0
    1.7487   -5.4484    3.9560 H   0  0  0  0  0  0  0  0  0  0  0  0
    3.9882   -4.8106    4.5815 H   0  0  0  0  0  0  0  0  0  0  0  0
    4.3120   -5.8852    6.2378 H   0  0  0  0  0  0  0  0  0  0  0  0
    1.5939   -7.0470    5.6111 H   0  0  0  0  0  0  0  0  0  0  0  0
    1.9329   -5.4463    6.2583 H   0  0  0  0  0  0  0  0  0  0  0  0
    2.3294   -6.8830    7.1895 H   0  0  0  0  0  0  0  0  0  0  0  0
    4.3846   -8.1441    6.7463 H   0  0  0  0  0  0  0  0  0  0  0  0
    3.7830   -8.6544    5.2319 H   0  0  0  0  0  0  0  0  0  0  0  0
    6.3930   -7.2108    5.8768 H   0  0  0  0  0  0  0  0  0  0  0  0
    6.2654   -8.8514    5.3494 H   0  0  0  0  0  0  0  0  0  0  0  0
    7.1015   -7.1345    3.7440 H   0  0  0  0  0  0  0  0  0  0  0  0
    6.2190   -7.9612    1.7072 H   0  0  0  0  0  0  0  0  0  0  0  0
    6.7091  -10.2202    3.6555 H   0  0  0  0  0  0  0  0  0  0  0  0
    7.9534   -9.1649    2.9806 H   0  0  0  0  0  0  0  0  0  0  0  0
    6.9975  -10.1861    1.9304 H   0  0  0  0  0  0  0  0  0  0  0  0
    4.6512  -10.0279    1.9599 H   0  0  0  0  0  0  0  0  0  0  0  0
    4.0016   -9.2784    3.3318 H   0  0  0  0  0  0  0  0  0  0  0  0
    4.2080   -7.4913    0.9422 H   0  0  0  0  0  0  0  0  0  0  0  0
    3.4489   -8.9698    0.5958 H   0  0  0  0  0  0  0  0  0  0  0  0
    1.6238   -8.0305    1.0006 H   0  0  0  0  0  0  0  0  0  0  0  0
    1.5598   -9.5994    2.7990 H   0  0  0  0  0  0  0  0  0  0  0  0
    1.9912   -8.3269    3.9377 H   0  0  0  0  0  0  0  0  0  0  0  0
   -0.4900   -8.4022    2.1353 H   0  0  0  0  0  0  0  0  0  0  0  0
   -0.5651   -9.7229    4.3243 H   0  0  0  0  0  0  0  0  0  0  0  0
   -1.7554   -8.4374    4.2407 H   0  0  0  0  0  0  0  0  0  0  0  0
   -0.3059   -8.2347    5.2112 H   0  0  0  0  0  0  0  0  0  0  0  0
    2.0819   -6.2170   -0.2903 H   0  0  0  0  0  0  0  0  0  0  0  0
    4.2350   -4.9519   -0.6455 H   0  0  0  0  0  0  0  0  0  0  0  0
    5.9424   -5.3285    4.2124 H   0  0  0  0  0  0  0  0  0  0  0  0
  1  2  2  0
  1 28  1  0
  1 29  1  0
  2 27  1  0
  2  3  1  0
  3 26  1  0
  3  4  1  0
  3 30  1  6
  4  5  1  0
  4 31  1  0
  4 32  1  0
  5  6  1  0
  6 23  1  0
  6  7  1  0
  6 33  1  1
  7 27  1  0
  7  8  1  0
  7 34  1  1
  8  9  1  0
  8 10  1  0
  8 35  1  1
  9 36  1  0
  9 37  1  0
  9 38  1  0
 10 11  1  0
 10 39  1  0
 10 40  1  0
 11 12  1  0
 11 41  1  0
 11 42  1  0
 12 13  1  0
 12 27  1  0
 12 43  1  1
 13 14  1  0
 13 15  1  0
 13 44  1  6
 14 45  1  0
 14 46  1  0
 14 47  1  0
 15 16  1  0
 15 48  1  0
 15 49  1  0
 16 17  1  0
 16 50  1  0
 16 51  1  0
 17 23  1  0
 17 18  1  0
 17 52  1  6
 18 19  1  0
 18 53  1  0
 18 54  1  0
 19 20  1  0
 19 21  1  0
 19 55  1  6
 20 56  1  0
 20 57  1  0
 20 58  1  0
 21 22  1  0
 23 22  1  6
 23 24  1  0
 24 26  1  0
 24 25  1  0
 24 59  1  6
 25 26  1  0
 26 60  1  6
 27 61  1  1
M  END
>  <i_m_ct_stereo_status>  (52) 
1

>  <s_m_source_file>  (52) 
/var/tmp/pbs.5076255.sched01/tmpvv81v907/0tx7qkblw.sdf

>  <i_m_source_file_index>  (52) 
21

>  <i_lp_mmshare_version>  (52) 
48012

>  <i_f3d_flags>  (52) 
0

>  <s_epik_input>  (52) 
TzFbQ0BIXTJbQ0BASF0xW0NASF0oW0NIMl1PMylDKD1bQ0gyXSlbQ0BASF0oW0NASF00W0NIXTNDMjU2KVtDQEBIXShbQ0gyXVtDSDJdW0NAQEhdNFtDSDNdKVtDQEBIXShbQ0gzXSlbQ0gyXVtDSDJdW0NASF01W0NIMl1bQ0BASF0oW0NIM10pT082

>  <s_epik_cmdline>  (52) 
J2VwaWtfcHl0aG9uJywgJy1waHQnLCAnMi4wJywgJy1waCcsICc3LjAnLCAnLXRuJywgJzgnLCAnLW1hJywgJzIwMCcsICctaW1hZScsICc8aW5maWxlLm1hZT4nLCAnLW9tYWUnLCAnPG91dGZpbGUubWFlPic=

>  <r_lp_tautomer_probability>  (52) 
1

>  <r_epik_Ionization_Penalty>  (52) 
2.16584e-12

>  <r_epik_Ionization_Penalty_Charging>  (52) 
0

>  <r_epik_Ionization_Penalty_Neutral>  (52) 
2.16584e-12

>  <r_epik_State_Penalty>  (52) 
-0

>  <r_epik_Charging_Adjusted_Penalty>  (52) 
0

>  <i_epik_Tot_Q>  (52) 
0

>  <i_epik_Tot_abs_Q>  (52) 
0

>  <s_lp_Force_Field>  (52) 
OPLS3e

>  <r_lp_Energy>  (52) 
145.162

>  <b_lp_Chiralities_Consistent>  (52) 
1

>  <s_lp_Variant>  (52) 
7:0-1

>  <s_i_glide_gridfile>  (52) 
pfpi4k_grid

>  <i_i_glide_lignum>  (52) 
21

>  <i_i_glide_rotatable_bonds>  (52) 
0

>  <r_i_docking_score>  (52) 
-2.59097

>  <r_i_glide_ligand_efficiency>  (52) 
-0.0959617

>  <r_i_glide_ligand_efficiency_sa>  (52) 
-0.287885

>  <r_i_glide_ligand_efficiency_ln>  (52) 
-0.603134

>  <r_i_glide_gscore>  (52) 
-2.59097

>  <r_i_glide_lipo>  (52) 
-0.19774

>  <r_i_glide_hbond>  (52) 
-0.245413

>  <r_i_glide_metal>  (52) 
-0

>  <r_i_glide_rewards>  (52) 
-0.855589

>  <r_i_glide_evdw>  (52) 
-21.8176

>  <r_i_glide_ecoul>  (52) 
-1.34229

>  <r_i_glide_erotb>  (52) 
0

>  <r_i_glide_esite>  (52) 
0

>  <r_i_glide_emodel>  (52) 
-27.7259

>  <r_i_glide_energy>  (52) 
-23.1599

>  <r_i_glide_einternal>  (52) 
0

>  <r_i_glide_intrahb_reward>  (52) 
-0

>  <i_i_glide_confnum>  (52) 
2

>  <i_i_glide_posenum>  (52) 
8

>  <r_i_glide_eff_state_penalty>  (52) 
0

>  <ligand_id>  (52) 
7

>  <original_smiles>  (52) 
C=C1C2COC3C4C(C)CCC(C(C)CCC5CC(C)OOC53C3OC23)C14

>  <smiles>  (52) 
[H]C([H])=C1C2([H])C([H])([H])OC3([H])C4([H])C1([H])C([H])(C([H])([H])C([H])([H])C4([H])C([H])([H])[H])C([H])(C([H])([H])[H])C([H])([H])C([H])([H])C1([H])C([H])([H])C([H])(C([H])([H])[H])OOC31C1([H])OC12[H]

$$$$
7:1:0
     RDKit          3D

 61 66  0  0  1  0  0  0  0  0999 V2000
    6.2170   -5.1337    4.8796 C   0  0  0  0  0  0  0  0  0  0  0  0
    5.0103   -5.2925    4.3088 C   0  0  0  0  0  0  0  0  0  0  0  0
    3.7494   -4.6167    4.9890 C   0  0  1  0  0  0  0  0  0  0  0  0
    3.0463   -3.5563    4.0804 C   0  0  0  0  0  0  0  0  0  0  0  0
    2.2768   -4.0340    2.9290 O   0  0  0  0  0  0  0  0  0  0  0  0
    2.5042   -5.3477    2.3746 C   0  0  2  0  0  0  0  0  0  0  0  0
    3.9605   -5.5966    1.8803 C   0  0  1  0  0  0  0  0  0  0  0  0
    4.8507   -4.6255    1.0282 C   0  0  1  0  0  0  0  0  0  0  0  0
    4.9884   -3.1923    1.5482 C   0  0  0  0  0  0  0  0  0  0  0  0
    6.2716   -5.2306    0.6865 C   0  0  0  0  0  0  0  0  0  0  0  0
    6.9525   -6.2158    1.6991 C   0  0  0  0  0  0  0  0  0  0  0  0
    5.8520   -7.0543    2.3515 C   0  0  1  0  0  0  0  0  0  0  0  0
    5.9143   -8.5003    2.8856 C   0  0  1  0  0  0  0  0  0  0  0  0
    6.3317   -8.5919    4.3642 C   0  0  0  0  0  0  0  0  0  0  0  0
    4.5756   -9.2889    2.5397 C   0  0  0  0  0  0  0  0  0  0  0  0
    3.1929   -8.9756    3.2338 C   0  0  0  0  0  0  0  0  0  0  0  0
    2.0565   -8.0567    2.5604 C   0  0  1  0  0  0  0  0  0  0  0  0
    0.7790   -8.9394    2.5561 C   0  0  0  0  0  0  0  0  0  0  0  0
   -0.5349   -8.2424    2.1954 C   0  0  1  0  0  0  0  0  0  0  0  0
   -1.7579   -9.1247    2.4450 C   0  0  0  0  0  0  0  0  0  0  0  0
   -0.6050   -7.1272    3.0392 O   0  0  0  0  0  0  0  0  0  0  0  0
    0.4491   -6.1881    2.5597 O   0  0  0  0  0  0  0  0  0  0  0  0
    1.7196   -6.5583    3.0875 C   0  0  2  0  0  0  0  0  0  0  0  0
    1.6604   -6.4468    4.6883 C   0  0  1  0  0  0  0  0  0  0  0  0
    2.8045   -6.9345    5.4284 O   0  0  0  0  0  0  0  0  0  0  0  0
    2.6195   -5.5402    5.5414 C   0  0  1  0  0  0  0  0  0  0  0  0
    4.8064   -6.1869    3.0394 C   0  0  1  0  0  0  0  0  0  0  0  0
    7.1002   -5.6134    4.4884 H   0  0  0  0  0  0  0  0  0  0  0  0
    6.3430   -4.5316    5.7659 H   0  0  0  0  0  0  0  0  0  0  0  0
    4.1356   -4.0744    5.8524 H   0  0  0  0  0  0  0  0  0  0  0  0
    2.3088   -3.0443    4.7027 H   0  0  0  0  0  0  0  0  0  0  0  0
    3.7421   -2.7616    3.8097 H   0  0  0  0  0  0  0  0  0  0  0  0
    2.8656   -5.5659    3.2385 H   0  0  0  0  0  0  0  0  0  0  0  0
    3.7460   -6.3790    1.1554 H   0  0  0  0  0  0  0  0  0  0  0  0
    4.3362   -4.5109    0.0715 H   0  0  0  0  0  0  0  0  0  0  0  0
    5.4776   -3.1555    2.5195 H   0  0  0  0  0  0  0  0  0  0  0  0
    4.0165   -2.7026    1.6056 H   0  0  0  0  0  0  0  0  0  0  0  0
    5.5826   -2.5869    0.8664 H   0  0  0  0  0  0  0  0  0  0  0  0
    6.1647   -5.7583   -0.2592 H   0  0  0  0  0  0  0  0  0  0  0  0
    6.9738   -4.4231    0.4721 H   0  0  0  0  0  0  0  0  0  0  0  0
    7.6560   -6.8567    1.1613 H   0  0  0  0  0  0  0  0  0  0  0  0
    7.5443   -5.6660    2.4278 H   0  0  0  0  0  0  0  0  0  0  0  0
    5.4425   -7.3834    1.3991 H   0  0  0  0  0  0  0  0  0  0  0  0
    6.7049   -9.0014    2.3189 H   0  0  0  0  0  0  0  0  0  0  0  0
    5.5979   -8.1315    5.0271 H   0  0  0  0  0  0  0  0  0  0  0  0
    7.2872   -8.0896    4.5254 H   0  0  0  0  0  0  0  0  0  0  0  0
    6.4505   -9.6311    4.6727 H   0  0  0  0  0  0  0  0  0  0  0  0
    4.4209   -9.3246    1.4608 H   0  0  0  0  0  0  0  0  0  0  0  0
    4.7986  -10.3253    2.7933 H   0  0  0  0  0  0  0  0  0  0  0  0
    2.7592   -9.9729    3.3134 H   0  0  0  0  0  0  0  0  0  0  0  0
    3.3549   -8.7752    4.2830 H   0  0  0  0  0  0  0  0  0  0  0  0
    2.3058   -7.9601    1.5050 H   0  0  0  0  0  0  0  0  0  0  0  0
    0.9279   -9.7574    1.8484 H   0  0  0  0  0  0  0  0  0  0  0  0
    0.6373   -9.3946    3.5363 H   0  0  0  0  0  0  0  0  0  0  0  0
   -0.5359   -7.8899    1.1626 H   0  0  0  0  0  0  0  0  0  0  0  0
   -1.6912  -10.0427    1.8612 H   0  0  0  0  0  0  0  0  0  0  0  0
   -2.6750   -8.6118    2.1624 H   0  0  0  0  0  0  0  0  0  0  0  0
   -1.8286   -9.4033    3.4982 H   0  0  0  0  0  0  0  0  0  0  0  0
    0.7259   -6.7664    5.1509 H   0  0  0  0  0  0  0  0  0  0  0  0
    2.2281   -5.2220    6.5043 H   0  0  0  0  0  0  0  0  0  0  0  0
    4.2568   -6.9329    3.5624 H   0  0  0  0  0  0  0  0  0  0  0  0
  1  2  2  0
  1 28  1  0
  1 29  1  0
  2 27  1  0
  2  3  1  0
  3 26  1  0
  3  4  1  0
  3 30  1  1
  4  5  1  0
  4 31  1  0
  4 32  1  0
  5  6  1  0
  6 23  1  0
  6  7  1  0
  6 33  1  6
  7 27  1  0
  7  8  1  0
  7 34  1  6
  8  9  1  0
  8 10  1  0
  8 35  1  6
  9 36  1  0
  9 37  1  0
  9 38  1  0
 10 11  1  0
 10 39  1  0
 10 40  1  0
 11 12  1  0
 11 41  1  0
 11 42  1  0
 12 13  1  0
 12 27  1  0
 12 43  1  6
 13 14  1  0
 13 15  1  0
 13 44  1  6
 14 45  1  0
 14 46  1  0
 14 47  1  0
 15 16  1  0
 15 48  1  0
 15 49  1  0
 16 17  1  0
 16 50  1  0
 16 51  1  0
 17 23  1  0
 17 18  1  0
 17 52  1  6
 18 19  1  0
 18 53  1  0
 18 54  1  0
 19 20  1  0
 19 21  1  0
 19 55  1  6
 20 56  1  0
 20 57  1  0
 20 58  1  0
 21 22  1  0
 23 22  1  6
 23 24  1  0
 24 26  1  0
 24 25  1  0
 24 59  1  1
 25 26  1  0
 26 60  1  1
 27 61  1  1
M  END
>  <i_m_ct_stereo_status>  (53) 
1

>  <s_m_source_file>  (53) 
/var/tmp/pbs.5076255.sched01/tmpvv81v907/0tx7qkblw.sdf

>  <i_m_source_file_index>  (53) 
22

>  <i_lp_mmshare_version>  (53) 
48012

>  <i_f3d_flags>  (53) 
0

>  <s_epik_input>  (53) 
TzFbQ0BIXTJbQ0BASF0xW0NASF0oW0NIMl1PMylDKD1bQ0gyXSlbQ0BASF0oW0NASF00W0NIXTNDMjU2KVtDQEBIXShbQ0gyXVtDSDJdW0NAQEhdNFtDSDNdKVtDQEBIXShbQ0gzXSlbQ0gyXVtDSDJdW0NASF01W0NIMl1bQ0BASF0oW0NIM10pT082

>  <s_epik_cmdline>  (53) 
J2VwaWtfcHl0aG9uJywgJy1waHQnLCAnMi4wJywgJy1waCcsICc3LjAnLCAnLXRuJywgJzgnLCAnLW1hJywgJzIwMCcsICctaW1hZScsICc8aW5maWxlLm1hZT4nLCAnLW9tYWUnLCAnPG91dGZpbGUubWFlPic=

>  <r_lp_tautomer_probability>  (53) 
1

>  <r_epik_Ionization_Penalty>  (53) 
2.16584e-12

>  <r_epik_Ionization_Penalty_Charging>  (53) 
0

>  <r_epik_Ionization_Penalty_Neutral>  (53) 
2.16584e-12

>  <r_epik_State_Penalty>  (53) 
-0

>  <r_epik_Charging_Adjusted_Penalty>  (53) 
0

>  <i_epik_Tot_Q>  (53) 
0

>  <i_epik_Tot_abs_Q>  (53) 
0

>  <s_lp_Force_Field>  (53) 
OPLS3e

>  <r_lp_Energy>  (53) 
190.187

>  <b_lp_Chiralities_Consistent>  (53) 
1

>  <s_lp_Variant>  (53) 
7:0-2

>  <s_i_glide_gridfile>  (53) 
pfpi4k_grid

>  <i_i_glide_lignum>  (53) 
22

>  <i_i_glide_rotatable_bonds>  (53) 
0

>  <r_i_docking_score>  (53) 
-2.93085

>  <r_i_glide_ligand_efficiency>  (53) 
-0.10855

>  <r_i_glide_ligand_efficiency_sa>  (53) 
-0.32565

>  <r_i_glide_ligand_efficiency_ln>  (53) 
-0.682254

>  <r_i_glide_gscore>  (53) 
-2.93085

>  <r_i_glide_lipo>  (53) 
-0.574704

>  <r_i_glide_hbond>  (53) 
-0.172469

>  <r_i_glide_metal>  (53) 
-0

>  <r_i_glide_rewards>  (53) 
-0.855589

>  <r_i_glide_evdw>  (53) 
-22.6666

>  <r_i_glide_ecoul>  (53) 
-1.29838

>  <r_i_glide_erotb>  (53) 
0

>  <r_i_glide_esite>  (53) 
0

>  <r_i_glide_emodel>  (53) 
-28.4221

>  <r_i_glide_energy>  (53) 
-23.965

>  <r_i_glide_einternal>  (53) 
0

>  <r_i_glide_intrahb_reward>  (53) 
-0

>  <i_i_glide_confnum>  (53) 
1

>  <i_i_glide_posenum>  (53) 
17

>  <r_i_glide_eff_state_penalty>  (53) 
0

>  <ligand_id>  (53) 
7

>  <original_smiles>  (53) 
C=C1C2COC3C4C(C)CCC(C(C)CCC5CC(C)OOC53C3OC23)C14

>  <smiles>  (53) 
[H]C([H])=C1C2([H])C([H])([H])OC3([H])C4([H])C1([H])C([H])(C([H])([H])C([H])([H])C4([H])C([H])([H])[H])C([H])(C([H])([H])[H])C([H])([H])C([H])([H])C1([H])C([H])([H])C([H])(C([H])([H])[H])OOC31C1([H])OC12[H]

$$$$
7:1:1
     RDKit          3D

 61 66  0  0  1  0  0  0  0  0999 V2000
    0.8359    4.3602    7.0348 C   0  0  0  0  0  0  0  0  0  0  0  0
    0.5327    3.0938    6.6959 C   0  0  0  0  0  0  0  0  0  0  0  0
    0.3947    2.0061    7.8394 C   0  0  1  0  0  0  0  0  0  0  0  0
   -1.0372    1.3889    7.9366 C   0  0  0  0  0  0  0  0  0  0  0  0
   -1.4766    0.4758    6.8787 O   0  0  0  0  0  0  0  0  0  0  0  0
   -0.8116    0.4425    5.5899 C   0  0  2  0  0  0  0  0  0  0  0  0
   -0.8564    1.7953    4.8269 C   0  0  1  0  0  0  0  0  0  0  0  0
   -2.0954    2.7345    4.6597 C   0  0  1  0  0  0  0  0  0  0  0  0
   -2.8216    3.1253    5.9500 C   0  0  0  0  0  0  0  0  0  0  0  0
   -1.7799    4.0104    3.7792 C   0  0  0  0  0  0  0  0  0  0  0  0
   -0.3440    4.6413    3.8307 C   0  0  0  0  0  0  0  0  0  0  0  0
    0.6559    3.4941    3.9680 C   0  0  1  0  0  0  0  0  0  0  0  0
    2.1023    3.3924    3.4500 C   0  0  1  0  0  0  0  0  0  0  0  0
    3.1438    3.9166    4.4551 C   0  0  0  0  0  0  0  0  0  0  0  0
    2.3969    1.9281    2.9016 C   0  0  0  0  0  0  0  0  0  0  0  0
    2.5365    0.6702    3.8422 C   0  0  0  0  0  0  0  0  0  0  0  0
    1.3418   -0.3766    4.0925 C   0  0  1  0  0  0  0  0  0  0  0  0
    1.9434   -1.7621    3.7256 C   0  0  0  0  0  0  0  0  0  0  0  0
    1.1130   -2.9887    4.0993 C   0  0  1  0  0  0  0  0  0  0  0  0
    1.8750   -4.3076    3.9176 C   0  0  0  0  0  0  0  0  0  0  0  0
    0.8142   -2.8218    5.4581 O   0  0  0  0  0  0  0  0  0  0  0  0
   -0.1611   -1.6941    5.5371 O   0  0  0  0  0  0  0  0  0  0  0  0
    0.5265   -0.4471    5.4945 C   0  0  2  0  0  0  0  0  0  0  0  0
    1.4730   -0.3484    6.7866 C   0  0  1  0  0  0  0  0  0  0  0  0
    2.3886    0.7700    6.8543 O   0  0  0  0  0  0  0  0  0  0  0  0
    1.3920    0.8035    7.8527 C   0  0  1  0  0  0  0  0  0  0  0  0
    0.3846    2.6474    5.2026 C   0  0  1  0  0  0  0  0  0  0  0  0
    1.0018    5.1270    6.2944 H   0  0  0  0  0  0  0  0  0  0  0  0
    0.9604    4.6438    8.0677 H   0  0  0  0  0  0  0  0  0  0  0  0
    0.5642    2.5371    8.7772 H   0  0  0  0  0  0  0  0  0  0  0  0
   -1.0535    0.7874    8.8490 H   0  0  0  0  0  0  0  0  0  0  0  0
   -1.7735    2.1683    8.1397 H   0  0  0  0  0  0  0  0  0  0  0  0
   -0.0712    0.8409    6.0575 H   0  0  0  0  0  0  0  0  0  0  0  0
   -0.7438    1.4096    3.8170 H   0  0  0  0  0  0  0  0  0  0  0  0
   -2.8344    2.1634    4.0932 H   0  0  0  0  0  0  0  0  0  0  0  0
   -2.2041    3.7160    6.6225 H   0  0  0  0  0  0  0  0  0  0  0  0
   -3.2095    2.2581    6.4823 H   0  0  0  0  0  0  0  0  0  0  0  0
   -3.6957    3.7180    5.7020 H   0  0  0  0  0  0  0  0  0  0  0  0
   -1.9845    3.7520    2.7404 H   0  0  0  0  0  0  0  0  0  0  0  0
   -2.5018    4.7870    4.0098 H   0  0  0  0  0  0  0  0  0  0  0  0
   -0.1608    5.1976    2.9064 H   0  0  0  0  0  0  0  0  0  0  0  0
   -0.2624    5.3646    4.6381 H   0  0  0  0  0  0  0  0  0  0  0  0
    0.2683    2.9645    3.1002 H   0  0  0  0  0  0  0  0  0  0  0  0
    2.1585    4.0482    2.5753 H   0  0  0  0  0  0  0  0  0  0  0  0
    3.1766    3.3174    5.3653 H   0  0  0  0  0  0  0  0  0  0  0  0
    2.9201    4.9471    4.7364 H   0  0  0  0  0  0  0  0  0  0  0  0
    4.1435    3.9055    4.0260 H   0  0  0  0  0  0  0  0  0  0  0  0
    1.7169    1.6824    2.0848 H   0  0  0  0  0  0  0  0  0  0  0  0
    3.3618    2.0172    2.4071 H   0  0  0  0  0  0  0  0  0  0  0  0
    3.3233    0.1083    3.3386 H   0  0  0  0  0  0  0  0  0  0  0  0
    3.0732    0.9500    4.7364 H   0  0  0  0  0  0  0  0  0  0  0  0
    0.5996   -0.2055    3.3145 H   0  0  0  0  0  0  0  0  0  0  0  0
    2.1109   -1.7986    2.6472 H   0  0  0  0  0  0  0  0  0  0  0  0
    2.9154   -1.8813    4.2043 H   0  0  0  0  0  0  0  0  0  0  0  0
    0.1826   -3.0173    3.5360 H   0  0  0  0  0  0  0  0  0  0  0  0
    2.1963   -4.4332    2.8839 H   0  0  0  0  0  0  0  0  0  0  0  0
    1.2606   -5.1682    4.1905 H   0  0  0  0  0  0  0  0  0  0  0  0
    2.7641   -4.3211    4.5518 H   0  0  0  0  0  0  0  0  0  0  0  0
    1.9625   -1.2772    7.0837 H   0  0  0  0  0  0  0  0  0  0  0  0
    1.7489    0.5436    8.8459 H   0  0  0  0  0  0  0  0  0  0  0  0
    1.2594    2.0426    5.2175 H   0  0  0  0  0  0  0  0  0  0  0  0
  1  2  2  0
  1 28  1  0
  1 29  1  0
  2 27  1  0
  2  3  1  0
  3 26  1  0
  3  4  1  0
  3 30  1  1
  4  5  1  0
  4 31  1  0
  4 32  1  0
  5  6  1  0
  6 23  1  0
  6  7  1  0
  6 33  1  6
  7 27  1  0
  7  8  1  0
  7 34  1  6
  8  9  1  0
  8 10  1  0
  8 35  1  6
  9 36  1  0
  9 37  1  0
  9 38  1  0
 10 11  1  0
 10 39  1  0
 10 40  1  0
 11 12  1  0
 11 41  1  0
 11 42  1  0
 12 13  1  0
 12 27  1  0
 12 43  1  6
 13 14  1  0
 13 15  1  0
 13 44  1  6
 14 45  1  0
 14 46  1  0
 14 47  1  0
 15 16  1  0
 15 48  1  0
 15 49  1  0
 16 17  1  0
 16 50  1  0
 16 51  1  0
 17 23  1  0
 17 18  1  0
 17 52  1  6
 18 19  1  0
 18 53  1  0
 18 54  1  0
 19 20  1  0
 19 21  1  0
 19 55  1  6
 20 56  1  0
 20 57  1  0
 20 58  1  0
 21 22  1  0
 23 22  1  1
 23 24  1  0
 24 26  1  0
 24 25  1  0
 24 59  1  1
 25 26  1  0
 26 60  1  1
 27 61  1  6
M  END
>  <i_m_ct_stereo_status>  (54) 
1

>  <s_m_source_file>  (54) 
/var/tmp/pbs.5076255.sched01/tmpvv81v907/0tx7qkblw.sdf

>  <i_m_source_file_index>  (54) 
22

>  <i_lp_mmshare_version>  (54) 
48012

>  <i_f3d_flags>  (54) 
0

>  <s_epik_input>  (54) 
TzFbQ0BIXTJbQ0BASF0xW0NASF0oW0NIMl1PMylDKD1bQ0gyXSlbQ0BASF0oW0NASF00W0NIXTNDMjU2KVtDQEBIXShbQ0gyXVtDSDJdW0NAQEhdNFtDSDNdKVtDQEBIXShbQ0gzXSlbQ0gyXVtDSDJdW0NASF01W0NIMl1bQ0BASF0oW0NIM10pT082

>  <s_epik_cmdline>  (54) 
J2VwaWtfcHl0aG9uJywgJy1waHQnLCAnMi4wJywgJy1waCcsICc3LjAnLCAnLXRuJywgJzgnLCAnLW1hJywgJzIwMCcsICctaW1hZScsICc8aW5maWxlLm1hZT4nLCAnLW9tYWUnLCAnPG91dGZpbGUubWFlPic=

>  <r_lp_tautomer_probability>  (54) 
1

>  <r_epik_Ionization_Penalty>  (54) 
2.16584e-12

>  <r_epik_Ionization_Penalty_Charging>  (54) 
0

>  <r_epik_Ionization_Penalty_Neutral>  (54) 
2.16584e-12

>  <r_epik_State_Penalty>  (54) 
-0

>  <r_epik_Charging_Adjusted_Penalty>  (54) 
0

>  <i_epik_Tot_Q>  (54) 
0

>  <i_epik_Tot_abs_Q>  (54) 
0

>  <s_lp_Force_Field>  (54) 
OPLS3e

>  <r_lp_Energy>  (54) 
190.187

>  <b_lp_Chiralities_Consistent>  (54) 
1

>  <s_lp_Variant>  (54) 
7:0-2

>  <s_i_glide_gridfile>  (54) 
pfpi4k_grid

>  <i_i_glide_lignum>  (54) 
22

>  <i_i_glide_rotatable_bonds>  (54) 
0

>  <r_i_docking_score>  (54) 
-2.72598

>  <r_i_glide_ligand_efficiency>  (54) 
-0.100962

>  <r_i_glide_ligand_efficiency_sa>  (54) 
-0.302886

>  <r_i_glide_ligand_efficiency_ln>  (54) 
-0.634563

>  <r_i_glide_gscore>  (54) 
-2.72598

>  <r_i_glide_lipo>  (54) 
-0.10411

>  <r_i_glide_hbond>  (54) 
-0.16

>  <r_i_glide_metal>  (54) 
-0

>  <r_i_glide_rewards>  (54) 
-0.855589

>  <r_i_glide_evdw>  (54) 
-20.0058

>  <r_i_glide_ecoul>  (54) 
-4.03994

>  <r_i_glide_erotb>  (54) 
0

>  <r_i_glide_esite>  (54) 
0

>  <r_i_glide_emodel>  (54) 
-27.9986

>  <r_i_glide_energy>  (54) 
-24.0457

>  <r_i_glide_einternal>  (54) 
0

>  <r_i_glide_intrahb_reward>  (54) 
-0

>  <i_i_glide_confnum>  (54) 
1

>  <i_i_glide_posenum>  (54) 
14

>  <r_i_glide_eff_state_penalty>  (54) 
0

>  <ligand_id>  (54) 
7

>  <original_smiles>  (54) 
C=C1C2COC3C4C(C)CCC(C(C)CCC5CC(C)OOC53C3OC23)C14

>  <smiles>  (54) 
[H]C([H])=C1C2([H])C([H])([H])OC3([H])C4([H])C1([H])C([H])(C([H])([H])C([H])([H])C4([H])C([H])([H])[H])C([H])(C([H])([H])[H])C([H])([H])C([H])([H])C1([H])C([H])([H])C([H])(C([H])([H])[H])OOC31C1([H])OC12[H]

$$$$
7:1:2
     RDKit          3D

 61 66  0  0  1  0  0  0  0  0999 V2000
    1.5742   -9.6148    5.1307 C   0  0  0  0  0  0  0  0  0  0  0  0
    1.7175   -8.5945    4.2807 C   0  0  0  0  0  0  0  0  0  0  0  0
    1.3651   -8.8012    2.7489 C   0  0  1  0  0  0  0  0  0  0  0  0
    0.1850   -7.9002    2.2643 C   0  0  0  0  0  0  0  0  0  0  0  0
    0.4273   -6.4630    2.0821 O   0  0  0  0  0  0  0  0  0  0  0  0
    1.5490   -5.8227    2.7317 C   0  0  2  0  0  0  0  0  0  0  0  0
    1.5154   -5.9288    4.2851 C   0  0  1  0  0  0  0  0  0  0  0  0
    0.2820   -5.7257    5.2326 C   0  0  1  0  0  0  0  0  0  0  0  0
   -0.9784   -6.5246    4.8802 C   0  0  0  0  0  0  0  0  0  0  0  0
    0.6298   -5.8765    6.7689 C   0  0  0  0  0  0  0  0  0  0  0  0
    1.7578   -6.8743    7.1907 C   0  0  0  0  0  0  0  0  0  0  0  0
    2.8376   -6.8534    6.1038 C   0  0  1  0  0  0  0  0  0  0  0  0
    4.3601   -7.0756    6.2385 C   0  0  1  0  0  0  0  0  0  0  0  0
    4.7796   -8.5498    6.0829 C   0  0  0  0  0  0  0  0  0  0  0  0
    5.1691   -6.0706    5.3062 C   0  0  0  0  0  0  0  0  0  0  0  0
    5.1795   -6.1800    3.7341 C   0  0  0  0  0  0  0  0  0  0  0  0
    4.2439   -5.2842    2.7827 C   0  0  1  0  0  0  0  0  0  0  0  0
    5.2197   -4.5893    1.7963 C   0  0  0  0  0  0  0  0  0  0  0  0
    4.5865   -3.8506    0.6128 C   0  0  1  0  0  0  0  0  0  0  0  0
    5.6243   -3.4026   -0.4216 C   0  0  0  0  0  0  0  0  0  0  0  0
    3.7608   -4.8185    0.0222 O   0  0  0  0  0  0  0  0  0  0  0  0
    2.6080   -4.9827    0.9639 O   0  0  0  0  0  0  0  0  0  0  0  0
    2.9656   -5.9029    1.9910 C   0  0  2  0  0  0  0  0  0  0  0  0
    3.2622   -7.3329    1.3162 C   0  0  1  0  0  0  0  0  0  0  0  0
    3.7993   -8.3659    2.1725 O   0  0  0  0  0  0  0  0  0  0  0  0
    2.5074   -8.6552    1.6908 C   0  0  1  0  0  0  0  0  0  0  0  0
    2.2834   -7.2021    4.7299 C   0  0  1  0  0  0  0  0  0  0  0  0
    1.8503   -9.5493    6.1752 H   0  0  0  0  0  0  0  0  0  0  0  0
    1.2027  -10.5747    4.7991 H   0  0  0  0  0  0  0  0  0  0  0  0
    1.0215   -9.8297    2.6633 H   0  0  0  0  0  0  0  0  0  0  0  0
   -0.0844   -8.2487    1.2745 H   0  0  0  0  0  0  0  0  0  0  0  0
   -0.7187   -8.1046    2.8347 H   0  0  0  0  0  0  0  0  0  0  0  0
    1.9331   -6.7049    2.7787 H   0  0  0  0  0  0  0  0  0  0  0  0
    2.1062   -5.0454    4.5191 H   0  0  0  0  0  0  0  0  0  0  0  0
   -0.0267   -4.6929    5.1007 H   0  0  0  0  0  0  0  0  0  0  0  0
   -0.8241   -7.5986    4.9689 H   0  0  0  0  0  0  0  0  0  0  0  0
   -1.3344   -6.2782    3.8856 H   0  0  0  0  0  0  0  0  0  0  0  0
   -1.7868   -6.2469    5.5544 H   0  0  0  0  0  0  0  0  0  0  0  0
    0.9080   -4.8895    7.1382 H   0  0  0  0  0  0  0  0  0  0  0  0
   -0.2690   -6.1383    7.3225 H   0  0  0  0  0  0  0  0  0  0  0  0
    2.1764   -6.5682    8.1550 H   0  0  0  0  0  0  0  0  0  0  0  0
    1.3551   -7.8720    7.3443 H   0  0  0  0  0  0  0  0  0  0  0  0
    2.9599   -5.7762    6.1576 H   0  0  0  0  0  0  0  0  0  0  0  0
    4.6219   -6.8020    7.2662 H   0  0  0  0  0  0  0  0  0  0  0  0
    4.5773   -8.9290    5.0804 H   0  0  0  0  0  0  0  0  0  0  0  0
    4.2400   -9.1816    6.7923 H   0  0  0  0  0  0  0  0  0  0  0  0
    5.8449   -8.6761    6.2759 H   0  0  0  0  0  0  0  0  0  0  0  0
    4.9434   -5.0397    5.5808 H   0  0  0  0  0  0  0  0  0  0  0  0
    6.2055   -6.1946    5.6152 H   0  0  0  0  0  0  0  0  0  0  0  0
    6.2002   -5.8865    3.5006 H   0  0  0  0  0  0  0  0  0  0  0  0
    5.2319   -7.2228    3.4534 H   0  0  0  0  0  0  0  0  0  0  0  0
    3.8495   -4.4692    3.3891 H   0  0  0  0  0  0  0  0  0  0  0  0
    5.8052   -3.8631    2.3512 H   0  0  0  0  0  0  0  0  0  0  0  0
    5.9177   -5.3205    1.3840 H   0  0  0  0  0  0  0  0  0  0  0  0
    3.9837   -2.9929    0.9368 H   0  0  0  0  0  0  0  0  0  0  0  0
    6.3593   -2.7301    0.0208 H   0  0  0  0  0  0  0  0  0  0  0  0
    5.1582   -2.8840   -1.2643 H   0  0  0  0  0  0  0  0  0  0  0  0
    6.1608   -4.2644   -0.8233 H   0  0  0  0  0  0  0  0  0  0  0  0
    3.8120   -7.2979    0.3769 H   0  0  0  0  0  0  0  0  0  0  0  0
    2.4854   -9.4173    0.9164 H   0  0  0  0  0  0  0  0  0  0  0  0
    3.1910   -7.3031    4.1806 H   0  0  0  0  0  0  0  0  0  0  0  0
  1  2  2  0
  1 28  1  0
  1 29  1  0
  2 27  1  0
  2  3  1  0
  3 26  1  0
  3  4  1  0
  3 30  1  1
  4  5  1  0
  4 31  1  0
  4 32  1  0
  5  6  1  0
  6 23  1  0
  6  7  1  0
  6 33  1  1
  7 27  1  0
  7  8  1  0
  7 34  1  1
  8  9  1  0
  8 10  1  0
  8 35  1  1
  9 36  1  0
  9 37  1  0
  9 38  1  0
 10 11  1  0
 10 39  1  0
 10 40  1  0
 11 12  1  0
 11 41  1  0
 11 42  1  0
 12 13  1  0
 12 27  1  0
 12 43  1  6
 13 14  1  0
 13 15  1  0
 13 44  1  1
 14 45  1  0
 14 46  1  0
 14 47  1  0
 15 16  1  0
 15 48  1  0
 15 49  1  0
 16 17  1  0
 16 50  1  0
 16 51  1  0
 17 23  1  0
 17 18  1  0
 17 52  1  1
 18 19  1  0
 18 53  1  0
 18 54  1  0
 19 20  1  0
 19 21  1  0
 19 55  1  1
 20 56  1  0
 20 57  1  0
 20 58  1  0
 21 22  1  0
 23 22  1  6
 23 24  1  0
 24 26  1  0
 24 25  1  0
 24 59  1  6
 25 26  1  0
 26 60  1  6
 27 61  1  6
M  END
>  <i_m_ct_stereo_status>  (55) 
1

>  <s_m_source_file>  (55) 
/var/tmp/pbs.5076255.sched01/tmpvv81v907/0tx7qkblw.sdf

>  <i_m_source_file_index>  (55) 
22

>  <i_lp_mmshare_version>  (55) 
48012

>  <i_f3d_flags>  (55) 
0

>  <s_epik_input>  (55) 
TzFbQ0BIXTJbQ0BASF0xW0NASF0oW0NIMl1PMylDKD1bQ0gyXSlbQ0BASF0oW0NASF00W0NIXTNDMjU2KVtDQEBIXShbQ0gyXVtDSDJdW0NAQEhdNFtDSDNdKVtDQEBIXShbQ0gzXSlbQ0gyXVtDSDJdW0NASF01W0NIMl1bQ0BASF0oW0NIM10pT082

>  <s_epik_cmdline>  (55) 
J2VwaWtfcHl0aG9uJywgJy1waHQnLCAnMi4wJywgJy1waCcsICc3LjAnLCAnLXRuJywgJzgnLCAnLW1hJywgJzIwMCcsICctaW1hZScsICc8aW5maWxlLm1hZT4nLCAnLW9tYWUnLCAnPG91dGZpbGUubWFlPic=

>  <r_lp_tautomer_probability>  (55) 
1

>  <r_epik_Ionization_Penalty>  (55) 
2.16584e-12

>  <r_epik_Ionization_Penalty_Charging>  (55) 
0

>  <r_epik_Ionization_Penalty_Neutral>  (55) 
2.16584e-12

>  <r_epik_State_Penalty>  (55) 
-0

>  <r_epik_Charging_Adjusted_Penalty>  (55) 
0

>  <i_epik_Tot_Q>  (55) 
0

>  <i_epik_Tot_abs_Q>  (55) 
0

>  <s_lp_Force_Field>  (55) 
OPLS3e

>  <r_lp_Energy>  (55) 
190.187

>  <b_lp_Chiralities_Consistent>  (55) 
1

>  <s_lp_Variant>  (55) 
7:0-2

>  <s_i_glide_gridfile>  (55) 
pfpi4k_grid

>  <i_i_glide_lignum>  (55) 
22

>  <i_i_glide_rotatable_bonds>  (55) 
0

>  <r_i_docking_score>  (55) 
-2.46659

>  <r_i_glide_ligand_efficiency>  (55) 
-0.0913553

>  <r_i_glide_ligand_efficiency_sa>  (55) 
-0.274066

>  <r_i_glide_ligand_efficiency_ln>  (55) 
-0.574182

>  <r_i_glide_gscore>  (55) 
-2.46659

>  <r_i_glide_lipo>  (55) 
-0.202784

>  <r_i_glide_hbond>  (55) 
-0.091102

>  <r_i_glide_metal>  (55) 
-0

>  <r_i_glide_rewards>  (55) 
-0.855589

>  <r_i_glide_evdw>  (55) 
-21.7002

>  <r_i_glide_ecoul>  (55) 
-1.54737

>  <r_i_glide_erotb>  (55) 
0

>  <r_i_glide_esite>  (55) 
0

>  <r_i_glide_emodel>  (55) 
-26.8351

>  <r_i_glide_energy>  (55) 
-23.2476

>  <r_i_glide_einternal>  (55) 
0

>  <r_i_glide_intrahb_reward>  (55) 
-0

>  <i_i_glide_confnum>  (55) 
2

>  <i_i_glide_posenum>  (55) 
13

>  <r_i_glide_eff_state_penalty>  (55) 
0

>  <ligand_id>  (55) 
7

>  <original_smiles>  (55) 
C=C1C2COC3C4C(C)CCC(C(C)CCC5CC(C)OOC53C3OC23)C14

>  <smiles>  (55) 
[H]C([H])=C1C2([H])C([H])([H])OC3([H])C4([H])C1([H])C([H])(C([H])([H])C([H])([H])C4([H])C([H])([H])[H])C([H])(C([H])([H])[H])C([H])([H])C([H])([H])C1([H])C([H])([H])C([H])(C([H])([H])[H])OOC31C1([H])OC12[H]

$$$$
8:0:0
     RDKit          3D

 19 21  0  0  1  0  0  0  0  0999 V2000
    3.4921   -4.0025    0.0910 N   0  0  0  0  0  0  0  0  0  0  0  0
    3.0696   -5.2291    0.6200 C   0  0  0  0  0  0  0  0  0  0  0  0
    3.9604   -6.2519    0.8632 N   0  0  0  0  0  0  0  0  0  0  0  0
    3.1664   -7.1939    1.3661 C   0  0  0  0  0  0  0  0  0  0  0  0
    3.4893   -8.4444    1.7861 N   0  0  0  0  0  0  0  0  0  0  0  0
    2.5239   -9.2394    2.2721 N   0  0  0  0  0  0  0  0  0  0  0  0
    1.2366   -8.8101    2.3535 C   0  0  0  0  0  0  0  0  0  0  0  0
    0.2186   -9.6383    2.8555 C   0  0  0  0  0  0  0  0  0  0  0  0
   -1.0935   -9.1539    2.8907 C   0  0  0  0  0  0  0  0  0  0  0  0
   -1.3332   -7.8483    2.4492 C   0  0  0  0  0  0  0  0  0  0  0  0
   -0.3859   -7.0111    1.9636 N   0  0  0  0  0  0  0  0  0  0  0  0
    0.9026   -7.5008    1.9043 C   0  0  0  0  0  0  0  0  0  0  0  0
    1.9321   -6.7094    1.3998 N   0  0  0  0  0  0  0  0  0  0  0  0
    1.7975   -5.4599    0.9362 N   0  0  0  0  0  0  0  0  0  0  0  0
    4.4593   -3.8721   -0.1643 H   0  0  0  0  0  0  0  0  0  0  0  0
    0.4426  -10.6396    3.1941 H   0  0  0  0  0  0  0  0  0  0  0  0
   -1.8909   -9.7743    3.2695 H   0  0  0  0  0  0  0  0  0  0  0  0
   -2.3398   -7.4604    2.4812 H   0  0  0  0  0  0  0  0  0  0  0  0
    2.8268   -3.2631   -0.0971 H   0  0  0  0  0  0  0  0  0  0  0  0
  1  2  1  0
  1 15  1  0
  1 19  1  0
  2 14  2  0
  2  3  1  0
  3  4  2  0
  4 13  1  0
  4  5  1  0
  5  6  2  0
  6  7  1  0
  7 12  2  0
  7  8  1  0
  8  9  2  0
  8 16  1  0
  9 10  1  0
  9 17  1  0
 10 11  2  0
 10 18  1  0
 11 12  1  0
 12 13  1  0
 13 14  1  0
M  END
>  <i_m_ct_stereo_status>  (56) 
1

>  <s_m_source_file>  (56) 
/var/tmp/pbs.5076255.sched01/tmpvv81v907/0tx7qkblw.sdf

>  <i_m_source_file_index>  (56) 
23

>  <i_lp_mmshare_version>  (56) 
48012

>  <i_f3d_flags>  (56) 
0

>  <s_epik_input>  (56) 
W0hdL049YyhcbjEpW25IXW4oYzEyKWMzYyhubjIpW2NIXVtjSF1bY0hdbjM=

>  <s_epik_cmdline>  (56) 
J2VwaWtfcHl0aG9uJywgJy1waHQnLCAnMi4wJywgJy1waCcsICc3LjAnLCAnLXRuJywgJzgnLCAnLW1hJywgJzIwMCcsICctaW1hZScsICc8aW5maWxlLm1hZT4nLCAnLW9tYWUnLCAnPG91dGZpbGUubWFlPic=

>  <r_lp_tautomer_probability>  (56) 
1

>  <r_epik_Ionization_Penalty>  (56) 
3.31088e-05

>  <r_epik_Ionization_Penalty_Charging>  (56) 
0

>  <r_epik_Ionization_Penalty_Neutral>  (56) 
3.31088e-05

>  <r_epik_State_Penalty>  (56) 
-0

>  <r_epik_Charging_Adjusted_Penalty>  (56) 
0

>  <i_epik_Tot_Q>  (56) 
0

>  <i_epik_Tot_abs_Q>  (56) 
0

>  <s_lp_Force_Field>  (56) 
OPLS3e

>  <r_lp_Energy>  (56) 
23.2791

>  <b_lp_Chiralities_Consistent>  (56) 
1

>  <s_lp_Variant>  (56) 
8:0-1

>  <s_i_glide_gridfile>  (56) 
pfpi4k_grid

>  <i_i_glide_lignum>  (56) 
23

>  <i_i_glide_rotatable_bonds>  (56) 
0

>  <r_i_docking_score>  (56) 
-4.13268

>  <r_i_glide_ligand_efficiency>  (56) 
-0.295191

>  <r_i_glide_ligand_efficiency_sa>  (56) 
-0.711453

>  <r_i_glide_ligand_efficiency_ln>  (56) 
-1.13565

>  <r_i_glide_gscore>  (56) 
-4.13268

>  <r_i_glide_lipo>  (56) 
0

>  <r_i_glide_hbond>  (56) 
-0.211251

>  <r_i_glide_metal>  (56) 
-0

>  <r_i_glide_rewards>  (56) 
-2.22847

>  <r_i_glide_evdw>  (56) 
-19.4418

>  <r_i_glide_ecoul>  (56) 
-3.95428

>  <r_i_glide_erotb>  (56) 
0

>  <r_i_glide_esite>  (56) 
-0.127727

>  <r_i_glide_emodel>  (56) 
-30.3395

>  <r_i_glide_energy>  (56) 
-23.3961

>  <r_i_glide_einternal>  (56) 
0

>  <r_i_glide_intrahb_reward>  (56) 
-0

>  <i_i_glide_confnum>  (56) 
2

>  <i_i_glide_posenum>  (56) 
6

>  <r_i_glide_eff_state_penalty>  (56) 
0

>  <ligand_id>  (56) 
8

>  <original_smiles>  (56) 
N=c1nc2nnc3cccnc3n2[nH]1

>  <smiles>  (56) 
[H]c1nc2c(nnc3nc(N([H])[H])nn32)c([H])c1[H]

$$$$
8:0:1
     RDKit          3D

 19 21  0  0  1  0  0  0  0  0999 V2000
    0.8048   -0.2423    2.0840 N   0  0  0  0  0  0  0  0  0  0  0  0
    0.0457    0.5399    2.9619 C   0  0  0  0  0  0  0  0  0  0  0  0
   -0.8256    1.4939    2.4871 N   0  0  0  0  0  0  0  0  0  0  0  0
   -1.3208    2.0018    3.6106 C   0  0  0  0  0  0  0  0  0  0  0  0
   -2.2253    3.0018    3.7721 N   0  0  0  0  0  0  0  0  0  0  0  0
   -2.5867    3.3441    5.0171 N   0  0  0  0  0  0  0  0  0  0  0  0
   -2.0784    2.7149    6.1043 C   0  0  0  0  0  0  0  0  0  0  0  0
   -2.4635    3.0630    7.4085 C   0  0  0  0  0  0  0  0  0  0  0  0
   -1.8990    2.3818    8.4929 C   0  0  0  0  0  0  0  0  0  0  0  0
   -0.9626    1.3728    8.2243 C   0  0  0  0  0  0  0  0  0  0  0  0
   -0.5983    0.9816    6.9852 N   0  0  0  0  0  0  0  0  0  0  0  0
   -1.1368    1.6684    5.9234 C   0  0  0  0  0  0  0  0  0  0  0  0
   -0.7725    1.3391    4.6248 N   0  0  0  0  0  0  0  0  0  0  0  0
    0.1001    0.3821    4.2867 N   0  0  0  0  0  0  0  0  0  0  0  0
    0.7040   -0.1248    1.0784 H   0  0  0  0  0  0  0  0  0  0  0  0
   -3.1807    3.8504    7.5748 H   0  0  0  0  0  0  0  0  0  0  0  0
   -2.1756    2.6315    9.5067 H   0  0  0  0  0  0  0  0  0  0  0  0
   -0.5208    0.8302    9.0452 H   0  0  0  0  0  0  0  0  0  0  0  0
    1.4188   -0.9614    2.4339 H   0  0  0  0  0  0  0  0  0  0  0  0
  1  2  1  0
  1 15  1  0
  1 19  1  0
  2 14  2  0
  2  3  1  0
  3  4  2  0
  4 13  1  0
  4  5  1  0
  5  6  2  0
  6  7  1  0
  7 12  2  0
  7  8  1  0
  8  9  2  0
  8 16  1  0
  9 10  1  0
  9 17  1  0
 10 11  2  0
 10 18  1  0
 11 12  1  0
 12 13  1  0
 13 14  1  0
M  END
>  <i_m_ct_stereo_status>  (57) 
1

>  <s_m_source_file>  (57) 
/var/tmp/pbs.5076255.sched01/tmpvv81v907/0tx7qkblw.sdf

>  <i_m_source_file_index>  (57) 
23

>  <i_lp_mmshare_version>  (57) 
48012

>  <i_f3d_flags>  (57) 
0

>  <s_epik_input>  (57) 
W0hdL049YyhcbjEpW25IXW4oYzEyKWMzYyhubjIpW2NIXVtjSF1bY0hdbjM=

>  <s_epik_cmdline>  (57) 
J2VwaWtfcHl0aG9uJywgJy1waHQnLCAnMi4wJywgJy1waCcsICc3LjAnLCAnLXRuJywgJzgnLCAnLW1hJywgJzIwMCcsICctaW1hZScsICc8aW5maWxlLm1hZT4nLCAnLW9tYWUnLCAnPG91dGZpbGUubWFlPic=

>  <r_lp_tautomer_probability>  (57) 
1

>  <r_epik_Ionization_Penalty>  (57) 
3.31088e-05

>  <r_epik_Ionization_Penalty_Charging>  (57) 
0

>  <r_epik_Ionization_Penalty_Neutral>  (57) 
3.31088e-05

>  <r_epik_State_Penalty>  (57) 
-0

>  <r_epik_Charging_Adjusted_Penalty>  (57) 
0

>  <i_epik_Tot_Q>  (57) 
0

>  <i_epik_Tot_abs_Q>  (57) 
0

>  <s_lp_Force_Field>  (57) 
OPLS3e

>  <r_lp_Energy>  (57) 
23.2791

>  <b_lp_Chiralities_Consistent>  (57) 
1

>  <s_lp_Variant>  (57) 
8:0-1

>  <s_i_glide_gridfile>  (57) 
pfpi4k_grid

>  <i_i_glide_lignum>  (57) 
23

>  <i_i_glide_rotatable_bonds>  (57) 
0

>  <r_i_docking_score>  (57) 
-3.81354

>  <r_i_glide_ligand_efficiency>  (57) 
-0.272396

>  <r_i_glide_ligand_efficiency_sa>  (57) 
-0.656512

>  <r_i_glide_ligand_efficiency_ln>  (57) 
-1.04795

>  <r_i_glide_gscore>  (57) 
-3.81354

>  <r_i_glide_lipo>  (57) 
-0.199958

>  <r_i_glide_hbond>  (57) 
-0.156513

>  <r_i_glide_metal>  (57) 
-0

>  <r_i_glide_rewards>  (57) 
-2.13299

>  <r_i_glide_evdw>  (57) 
-17.5038

>  <r_i_glide_ecoul>  (57) 
-1.37432

>  <r_i_glide_erotb>  (57) 
0

>  <r_i_glide_esite>  (57) 
-0.242738

>  <r_i_glide_emodel>  (57) 
-25.2848

>  <r_i_glide_energy>  (57) 
-18.8781

>  <r_i_glide_einternal>  (57) 
0

>  <r_i_glide_intrahb_reward>  (57) 
-0

>  <i_i_glide_confnum>  (57) 
2

>  <i_i_glide_posenum>  (57) 
20

>  <r_i_glide_eff_state_penalty>  (57) 
0

>  <ligand_id>  (57) 
8

>  <original_smiles>  (57) 
N=c1nc2nnc3cccnc3n2[nH]1

>  <smiles>  (57) 
[H]c1nc2c(nnc3nc(N([H])[H])nn32)c([H])c1[H]

$$$$
8:0:2
     RDKit          3D

 19 21  0  0  1  0  0  0  0  0999 V2000
   -2.0808    2.9406    3.0742 N   0  0  0  0  0  0  0  0  0  0  0  0
   -1.7422    3.3251    4.3780 C   0  0  0  0  0  0  0  0  0  0  0  0
   -0.6309    4.1036    4.6135 N   0  0  0  0  0  0  0  0  0  0  0  0
   -0.6682    4.2499    5.9357 C   0  0  0  0  0  0  0  0  0  0  0  0
    0.1785    4.9416    6.7400 N   0  0  0  0  0  0  0  0  0  0  0  0
   -0.0675    4.9936    8.0581 N   0  0  0  0  0  0  0  0  0  0  0  0
   -1.1477    4.3652    8.5914 C   0  0  0  0  0  0  0  0  0  0  0  0
   -1.4181    4.4071    9.9706 C   0  0  0  0  0  0  0  0  0  0  0  0
   -2.5488    3.7452   10.4628 C   0  0  0  0  0  0  0  0  0  0  0  0
   -3.3690    3.0666    9.5509 C   0  0  0  0  0  0  0  0  0  0  0  0
   -3.1401    2.9904    8.2213 N   0  0  0  0  0  0  0  0  0  0  0  0
   -2.0292    3.6415    7.7417 C   0  0  0  0  0  0  0  0  0  0  0  0
   -1.7418    3.6075    6.3799 N   0  0  0  0  0  0  0  0  0  0  0  0
   -2.4806    2.9980    5.4409 N   0  0  0  0  0  0  0  0  0  0  0  0
   -1.4596    3.1717    2.3036 H   0  0  0  0  0  0  0  0  0  0  0  0
   -0.7585    4.9391   10.6376 H   0  0  0  0  0  0  0  0  0  0  0  0
   -2.7776    3.7463   11.5181 H   0  0  0  0  0  0  0  0  0  0  0  0
   -4.2430    2.5508    9.9095 H   0  0  0  0  0  0  0  0  0  0  0  0
   -2.8672    2.3249    2.9023 H   0  0  0  0  0  0  0  0  0  0  0  0
  1  2  1  0
  1 15  1  0
  1 19  1  0
  2 14  2  0
  2  3  1  0
  3  4  2  0
  4 13  1  0
  4  5  1  0
  5  6  2  0
  6  7  1  0
  7 12  2  0
  7  8  1  0
  8  9  2  0
  8 16  1  0
  9 10  1  0
  9 17  1  0
 10 11  2  0
 10 18  1  0
 11 12  1  0
 12 13  1  0
 13 14  1  0
M  END
>  <i_m_ct_stereo_status>  (58) 
1

>  <s_m_source_file>  (58) 
/var/tmp/pbs.5076255.sched01/tmpvv81v907/0tx7qkblw.sdf

>  <i_m_source_file_index>  (58) 
23

>  <i_lp_mmshare_version>  (58) 
48012

>  <i_f3d_flags>  (58) 
0

>  <s_epik_input>  (58) 
W0hdL049YyhcbjEpW25IXW4oYzEyKWMzYyhubjIpW2NIXVtjSF1bY0hdbjM=

>  <s_epik_cmdline>  (58) 
J2VwaWtfcHl0aG9uJywgJy1waHQnLCAnMi4wJywgJy1waCcsICc3LjAnLCAnLXRuJywgJzgnLCAnLW1hJywgJzIwMCcsICctaW1hZScsICc8aW5maWxlLm1hZT4nLCAnLW9tYWUnLCAnPG91dGZpbGUubWFlPic=

>  <r_lp_tautomer_probability>  (58) 
1

>  <r_epik_Ionization_Penalty>  (58) 
3.31088e-05

>  <r_epik_Ionization_Penalty_Charging>  (58) 
0

>  <r_epik_Ionization_Penalty_Neutral>  (58) 
3.31088e-05

>  <r_epik_State_Penalty>  (58) 
-0

>  <r_epik_Charging_Adjusted_Penalty>  (58) 
0

>  <i_epik_Tot_Q>  (58) 
0

>  <i_epik_Tot_abs_Q>  (58) 
0

>  <s_lp_Force_Field>  (58) 
OPLS3e

>  <r_lp_Energy>  (58) 
23.2791

>  <b_lp_Chiralities_Consistent>  (58) 
1

>  <s_lp_Variant>  (58) 
8:0-1

>  <s_i_glide_gridfile>  (58) 
pfpi4k_grid

>  <i_i_glide_lignum>  (58) 
23

>  <i_i_glide_rotatable_bonds>  (58) 
0

>  <r_i_docking_score>  (58) 
-3.68672

>  <r_i_glide_ligand_efficiency>  (58) 
-0.263337

>  <r_i_glide_ligand_efficiency_sa>  (58) 
-0.634681

>  <r_i_glide_ligand_efficiency_ln>  (58) 
-1.0131

>  <r_i_glide_gscore>  (58) 
-3.68672

>  <r_i_glide_lipo>  (58) 
0

>  <r_i_glide_hbond>  (58) 
-0.0520009

>  <r_i_glide_metal>  (58) 
-0

>  <r_i_glide_rewards>  (58) 
-2.27486

>  <r_i_glide_evdw>  (58) 
-17.1438

>  <r_i_glide_ecoul>  (58) 
-2.65592

>  <r_i_glide_erotb>  (58) 
0

>  <r_i_glide_esite>  (58) 
-0.104291

>  <r_i_glide_emodel>  (58) 
-25.9922

>  <r_i_glide_energy>  (58) 
-19.7997

>  <r_i_glide_einternal>  (58) 
0

>  <r_i_glide_intrahb_reward>  (58) 
-0

>  <i_i_glide_confnum>  (58) 
2

>  <i_i_glide_posenum>  (58) 
40

>  <r_i_glide_eff_state_penalty>  (58) 
0

>  <ligand_id>  (58) 
8

>  <original_smiles>  (58) 
N=c1nc2nnc3cccnc3n2[nH]1

>  <smiles>  (58) 
[H]c1nc2c(nnc3nc(N([H])[H])nn32)c([H])c1[H]

$$$$
9:0:0
     RDKit          3D

 49 54  0  0  1  0  0  0  0  0999 V2000
    3.7259   -0.0732   -4.5387 C   0  0  0  0  0  0  0  0  0  0  0  0
    3.7594   -0.8965   -3.2564 C   0  0  0  0  0  0  0  0  0  0  0  0
    2.8752   -0.9497   -2.3182 C   0  0  0  0  0  0  0  0  0  0  0  0
    3.3967   -1.4543   -0.9710 C   0  0  1  0  0  0  0  0  0  0  0  0
    2.8437   -2.6132   -0.2565 C   0  0  0  0  0  0  0  0  0  0  0  0
    3.0739   -3.8546   -1.1236 C   0  0  0  0  0  0  0  0  0  0  0  0
    4.4819   -3.8801   -1.8510 C   0  0  1  0  0  0  0  0  0  0  0  0
    4.6500   -3.1239   -3.1657 C   0  0  0  0  0  0  0  0  0  0  0  0
    4.8755   -1.6685   -2.7201 C   0  0  2  0  0  0  0  0  0  0  0  0
    4.8576   -1.7322   -1.1567 C   0  0  1  0  0  0  0  0  0  0  0  0
    5.5460   -0.7600   -0.2211 C   0  0  0  0  0  0  0  0  0  0  0  0
    5.2945   -0.6021    1.1026 C   0  0  0  0  0  0  0  0  0  0  0  0
    4.3611   -1.3783    2.0673 C   0  0  1  0  0  0  0  0  0  0  0  0
    2.8324   -1.2193    1.9022 C   0  0  0  0  0  0  0  0  0  0  0  0
    2.9351   -2.5333    1.1028 C   0  0  0  0  0  0  0  0  0  0  0  0
    4.1330   -2.7775    1.7688 N   0  0  0  0  0  0  0  0  0  0  0  0
    4.5783   -3.8362    2.6532 C   0  0  0  0  0  0  0  0  0  0  0  0
    5.8318   -4.5631    2.1144 C   0  0  0  0  0  0  0  0  0  0  0  0
    6.8540   -3.6511    1.5142 N   0  0  0  0  0  0  0  0  0  0  0  0
    7.4526   -4.0938    0.2212 C   0  0  0  0  0  0  0  0  0  0  0  0
    6.9232   -3.3032   -1.0065 C   0  0  0  0  0  0  0  0  0  0  0  0
    5.3981   -3.1445   -0.9457 C   0  0  2  0  0  0  0  0  0  0  0  0
    3.9905   -0.6774   -5.4078 H   0  0  0  0  0  0  0  0  0  0  0  0
    4.4016    0.7888   -4.5045 H   0  0  0  0  0  0  0  0  0  0  0  0
    2.7474    0.3642   -4.7082 H   0  0  0  0  0  0  0  0  0  0  0  0
    2.0004   -0.3255   -2.3416 H   0  0  0  0  0  0  0  0  0  0  0  0
    3.2483   -0.5541   -0.4208 H   0  0  0  0  0  0  0  0  0  0  0  0
    2.9352   -4.7252   -0.4912 H   0  0  0  0  0  0  0  0  0  0  0  0
    2.2834   -3.8735   -1.8703 H   0  0  0  0  0  0  0  0  0  0  0  0
    4.7960   -4.8958   -1.9908 H   0  0  0  0  0  0  0  0  0  0  0  0
    5.5704   -3.4382   -3.6549 H   0  0  0  0  0  0  0  0  0  0  0  0
    3.8411   -3.2346   -3.8888 H   0  0  0  0  0  0  0  0  0  0  0  0
    5.7747   -1.2438   -2.8619 H   0  0  0  0  0  0  0  0  0  0  0  0
    6.2043   -0.0564   -0.6993 H   0  0  0  0  0  0  0  0  0  0  0  0
    5.8563    0.1680    1.5901 H   0  0  0  0  0  0  0  0  0  0  0  0
    4.6856   -1.2478    3.0991 H   0  0  0  0  0  0  0  0  0  0  0  0
    2.3495   -1.3228    2.8696 H   0  0  0  0  0  0  0  0  0  0  0  0
    4.7906   -3.3818    3.6183 H   0  0  0  0  0  0  0  0  0  0  0  0
    3.7665   -4.5480    2.8163 H   0  0  0  0  0  0  0  0  0  0  0  0
    6.2869   -5.1360    2.9216 H   0  0  0  0  0  0  0  0  0  0  0  0
    5.5013   -5.2895    1.3733 H   0  0  0  0  0  0  0  0  0  0  0  0
    6.4217   -2.7448    1.3651 H   0  0  0  0  0  0  0  0  0  0  0  0
    8.5239   -3.9297    0.2754 H   0  0  0  0  0  0  0  0  0  0  0  0
    7.3441   -5.1696    0.0990 H   0  0  0  0  0  0  0  0  0  0  0  0
    7.4212   -2.3391   -1.0469 H   0  0  0  0  0  0  0  0  0  0  0  0
    7.2111   -3.7388   -1.9680 H   0  0  0  0  0  0  0  0  0  0  0  0
    5.1137   -3.6201   -0.0569 H   0  0  0  0  0  0  0  0  0  0  0  0
    2.5071   -0.2750    1.4624 H   0  0  0  0  0  0  0  0  0  0  0  0
    7.6019   -3.5622    2.1856 H   0  0  0  0  0  0  0  0  0  0  0  0
  1  2  1  0
  1 23  1  0
  1 24  1  0
  1 25  1  0
  2  9  1  0
  2  3  2  0
  3  4  1  0
  3 26  1  0
  4 10  1  0
  4  5  1  0
  4 27  1  1
  5 15  2  0
  5  6  1  0
  6  7  1  0
  6 28  1  0
  6 29  1  0
  7 22  1  0
  7  8  1  0
  7 30  1  6
  8  9  1  0
  8 31  1  0
  8 32  1  0
  9 10  1  0
  9 33  1  1
 10 22  1  0
 10 11  1  1
 11 12  2  3
 11 34  1  0
 12 13  1  0
 12 35  1  0
 13 16  1  0
 13 14  1  0
 13 36  1  1
 14 15  1  0
 14 37  1  0
 14 48  1  0
 15 16  1  0
 16 17  1  0
 17 18  1  0
 17 38  1  0
 17 39  1  0
 18 19  1  0
 18 40  1  0
 18 41  1  0
 19 20  1  0
 19 42  1  0
 19 49  1  0
 20 21  1  0
 20 43  1  0
 20 44  1  0
 21 22  1  0
 21 45  1  0
 21 46  1  0
 22 47  1  1
M  CHG  1  19   1
M  END
>  <i_m_ct_stereo_status>  (59) 
1

>  <s_m_source_file>  (59) 
/var/tmp/pbs.5076255.sched01/tmpvv81v907/0tx7qkblw.sdf

>  <i_m_source_file_index>  (59) 
24

>  <i_lp_mmshare_version>  (59) 
48012

>  <i_f3d_flags>  (59) 
0

>  <s_epik_input>  (59) 
W0NIM11DKD1bQ0hdMSlbQ0BASF0yW0NIMl1bQ0BIXShbQ0gyXTMpW0NASF00W0NIMl1bQ0gyXVtOSF1bQ0gyXVtDSDJdTihbQ0BIXShbQ0hdPTUpL1tDSF09W0NIXVw2KUM1W0NASF0zW0NASF0xW0NAXTI0Ng==

>  <s_epik_cmdline>  (59) 
J2VwaWtfcHl0aG9uJywgJy1waHQnLCAnMi4wJywgJy1waCcsICc3LjAnLCAnLXRuJywgJzgnLCAnLW1hJywgJzIwMCcsICctaW1hZScsICc8aW5maWxlLm1hZT4nLCAnLW9tYWUnLCAnPG91dGZpbGUubWFlPic=

>  <r_lp_tautomer_probability>  (59) 
1

>  <r_epik_Ionization_Penalty>  (59) 
0.0153006

>  <r_epik_Ionization_Penalty_Charging>  (59) 
0.0152385

>  <r_epik_Ionization_Penalty_Neutral>  (59) 
6.201e-05

>  <r_epik_State_Penalty>  (59) 
0.0119642

>  <r_epik_Charging_Adjusted_Penalty>  (59) 
0.0272028

>  <i_epik_Tot_Q>  (59) 
1

>  <i_epik_Tot_abs_Q>  (59) 
1

>  <s_epik_Chemistry_Notes>  (59) 
This compound has an imine and may undergo hydrolysis.

>  <s_lp_Force_Field>  (59) 
OPLS3e

>  <r_lp_Energy>  (59) 
140.9

>  <b_lp_Chiralities_Consistent>  (59) 
1

>  <s_lp_Variant>  (59) 
9:0-1

>  <s_i_glide_gridfile>  (59) 
pfpi4k_grid

>  <i_i_glide_lignum>  (59) 
24

>  <i_i_glide_rotatable_bonds>  (59) 
0

>  <r_i_docking_score>  (59) 
-2.69127

>  <r_i_glide_ligand_efficiency>  (59) 
-0.12233

>  <r_i_glide_ligand_efficiency_sa>  (59) 
-0.342775

>  <r_i_glide_ligand_efficiency_ln>  (59) 
-0.657844

>  <r_i_glide_gscore>  (59) 
-2.69127

>  <r_i_glide_lipo>  (59) 
-1.09679

>  <r_i_glide_hbond>  (59) 
0

>  <r_i_glide_metal>  (59) 
-0

>  <r_i_glide_rewards>  (59) 
-1.39947

>  <r_i_glide_evdw>  (59) 
-4.64746

>  <r_i_glide_ecoul>  (59) 
0.249103

>  <r_i_glide_erotb>  (59) 
0

>  <r_i_glide_esite>  (59) 
0

>  <r_i_glide_emodel>  (59) 
-5.00644

>  <r_i_glide_energy>  (59) 
-4.39836

>  <r_i_glide_einternal>  (59) 
0

>  <r_i_glide_intrahb_reward>  (59) 
-0

>  <i_i_glide_confnum>  (59) 
2

>  <i_i_glide_posenum>  (59) 
14

>  <r_i_glide_eff_state_penalty>  (59) 
0

>  <ligand_id>  (59) 
9

>  <original_smiles>  (59) 
CC1=CC2C3CC4CC1C21C=CC2C=C3N2CCNCCC41

>  <smiles>  (59) 
[H]C1=C(C([H])([H])[H])C2([H])C([H])([H])C3([H])C([H])([H])C4=C5N6C([H])([H])C([H])([H])[N+]([H])([H])C([H])([H])C([H])([H])C3([H])C2(C([H])=C([H])C6([H])C5([H])[H])C14[H]

$$$$
9:0:1
     RDKit          3D

 49 54  0  0  1  0  0  0  0  0999 V2000
    3.2829   -1.4926   -3.9930 C   0  0  0  0  0  0  0  0  0  0  0  0
    3.6277   -1.8648   -2.5711 C   0  0  0  0  0  0  0  0  0  0  0  0
    4.0391   -1.0634   -1.5981 C   0  0  0  0  0  0  0  0  0  0  0  0
    4.5806   -1.8752   -0.4676 C   0  0  1  0  0  0  0  0  0  0  0  0
    4.0514   -1.7781    0.9419 C   0  0  0  0  0  0  0  0  0  0  0  0
    2.6304   -2.4016    1.0184 C   0  0  0  0  0  0  0  0  0  0  0  0
    2.4434   -3.6782    0.0810 C   0  0  1  0  0  0  0  0  0  0  0  0
    2.2047   -3.5185   -1.4490 C   0  0  0  0  0  0  0  0  0  0  0  0
    3.5958   -3.2860   -2.1040 C   0  0  2  0  0  0  0  0  0  0  0  0
    4.5248   -3.3671   -0.8667 C   0  0  1  0  0  0  0  0  0  0  0  0
    5.9566   -3.8068   -0.9600 C   0  0  0  0  0  0  0  0  0  0  0  0
    6.8676   -3.6433    0.0285 C   0  0  0  0  0  0  0  0  0  0  0  0
    6.7190   -3.0716    1.4685 C   0  0  1  0  0  0  0  0  0  0  0  0
    6.4744   -1.5415    1.6716 C   0  0  0  0  0  0  0  0  0  0  0  0
    5.0184   -1.9612    1.8825 C   0  0  0  0  0  0  0  0  0  0  0  0
    5.4837   -3.2399    2.2214 N   0  0  0  0  0  0  0  0  0  0  0  0
    5.3806   -4.1236    3.3897 C   0  0  0  0  0  0  0  0  0  0  0  0
    4.7804   -5.5238    3.1011 C   0  0  0  0  0  0  0  0  0  0  0  0
    5.3060   -6.1548    1.8607 N   0  0  0  0  0  0  0  0  0  0  0  0
    4.2534   -6.7508    1.0106 C   0  0  0  0  0  0  0  0  0  0  0  0
    3.8921   -5.8548   -0.1824 C   0  0  0  0  0  0  0  0  0  0  0  0
    3.7674   -4.3468    0.0743 C   0  0  2  0  0  0  0  0  0  0  0  0
    2.3212   -1.9161   -4.2996 H   0  0  0  0  0  0  0  0  0  0  0  0
    4.0543   -1.9035   -4.6395 H   0  0  0  0  0  0  0  0  0  0  0  0
    3.2575   -0.4165   -4.1311 H   0  0  0  0  0  0  0  0  0  0  0  0
    4.2411   -0.0139   -1.7020 H   0  0  0  0  0  0  0  0  0  0  0  0
    5.5770   -1.4833   -0.5785 H   0  0  0  0  0  0  0  0  0  0  0  0
    2.4410   -2.6718    2.0632 H   0  0  0  0  0  0  0  0  0  0  0  0
    1.9077   -1.6161    0.8162 H   0  0  0  0  0  0  0  0  0  0  0  0
    1.7474   -4.3725    0.5312 H   0  0  0  0  0  0  0  0  0  0  0  0
    1.7690   -4.4461   -1.8210 H   0  0  0  0  0  0  0  0  0  0  0  0
    1.4878   -2.7531   -1.7209 H   0  0  0  0  0  0  0  0  0  0  0  0
    3.8458   -3.9969   -2.8888 H   0  0  0  0  0  0  0  0  0  0  0  0
    6.2197   -4.2506   -1.9073 H   0  0  0  0  0  0  0  0  0  0  0  0
    7.8815   -3.9570   -0.1846 H   0  0  0  0  0  0  0  0  0  0  0  0
    7.5404   -3.4639    2.0622 H   0  0  0  0  0  0  0  0  0  0  0  0
    6.8966   -1.1177    2.5755 H   0  0  0  0  0  0  0  0  0  0  0  0
    6.3592   -4.3035    3.8075 H   0  0  0  0  0  0  0  0  0  0  0  0
    4.8215   -3.6321    4.1753 H   0  0  0  0  0  0  0  0  0  0  0  0
    4.9959   -6.1950    3.9329 H   0  0  0  0  0  0  0  0  0  0  0  0
    3.6956   -5.4194    3.0584 H   0  0  0  0  0  0  0  0  0  0  0  0
    5.7641   -5.4411    1.3043 H   0  0  0  0  0  0  0  0  0  0  0  0
    4.6074   -7.7077    0.6120 H   0  0  0  0  0  0  0  0  0  0  0  0
    3.3576   -6.9868    1.5908 H   0  0  0  0  0  0  0  0  0  0  0  0
    4.6096   -6.0413   -0.9899 H   0  0  0  0  0  0  0  0  0  0  0  0
    2.9129   -6.2090   -0.4909 H   0  0  0  0  0  0  0  0  0  0  0  0
    3.9134   -4.3286    1.1147 H   0  0  0  0  0  0  0  0  0  0  0  0
    6.8052   -0.9019    0.8526 H   0  0  0  0  0  0  0  0  0  0  0  0
    5.9824   -6.8678    2.0894 H   0  0  0  0  0  0  0  0  0  0  0  0
  1  2  1  0
  1 23  1  0
  1 24  1  0
  1 25  1  0
  2  9  1  0
  2  3  2  0
  3  4  1  0
  3 26  1  0
  4 10  1  0
  4  5  1  0
  4 27  1  1
  5 15  2  0
  5  6  1  0
  6  7  1  0
  6 28  1  0
  6 29  1  0
  7 22  1  0
  7  8  1  0
  7 30  1  1
  8  9  1  0
  8 31  1  0
  8 32  1  0
  9 10  1  0
  9 33  1  6
 10 22  1  0
 10 11  1  6
 11 12  2  3
 11 34  1  0
 12 13  1  0
 12 35  1  0
 13 16  1  0
 13 14  1  0
 13 36  1  1
 14 15  1  0
 14 37  1  0
 14 48  1  0
 15 16  1  0
 16 17  1  0
 17 18  1  0
 17 38  1  0
 17 39  1  0
 18 19  1  0
 18 40  1  0
 18 41  1  0
 19 20  1  0
 19 42  1  0
 19 49  1  0
 20 21  1  0
 20 43  1  0
 20 44  1  0
 21 22  1  0
 21 45  1  0
 21 46  1  0
 22 47  1  1
M  CHG  1  19   1
M  END
>  <i_m_ct_stereo_status>  (60) 
1

>  <s_m_source_file>  (60) 
/var/tmp/pbs.5076255.sched01/tmpvv81v907/0tx7qkblw.sdf

>  <i_m_source_file_index>  (60) 
24

>  <i_lp_mmshare_version>  (60) 
48012

>  <i_f3d_flags>  (60) 
0

>  <s_epik_input>  (60) 
W0NIM11DKD1bQ0hdMSlbQ0BASF0yW0NIMl1bQ0BIXShbQ0gyXTMpW0NASF00W0NIMl1bQ0gyXVtOSF1bQ0gyXVtDSDJdTihbQ0BIXShbQ0hdPTUpL1tDSF09W0NIXVw2KUM1W0NASF0zW0NASF0xW0NAXTI0Ng==

>  <s_epik_cmdline>  (60) 
J2VwaWtfcHl0aG9uJywgJy1waHQnLCAnMi4wJywgJy1waCcsICc3LjAnLCAnLXRuJywgJzgnLCAnLW1hJywgJzIwMCcsICctaW1hZScsICc8aW5maWxlLm1hZT4nLCAnLW9tYWUnLCAnPG91dGZpbGUubWFlPic=

>  <r_lp_tautomer_probability>  (60) 
1

>  <r_epik_Ionization_Penalty>  (60) 
0.0153006

>  <r_epik_Ionization_Penalty_Charging>  (60) 
0.0152385

>  <r_epik_Ionization_Penalty_Neutral>  (60) 
6.201e-05

>  <r_epik_State_Penalty>  (60) 
0.0119642

>  <r_epik_Charging_Adjusted_Penalty>  (60) 
0.0272028

>  <i_epik_Tot_Q>  (60) 
1

>  <i_epik_Tot_abs_Q>  (60) 
1

>  <s_epik_Chemistry_Notes>  (60) 
This compound has an imine and may undergo hydrolysis.

>  <s_lp_Force_Field>  (60) 
OPLS3e

>  <r_lp_Energy>  (60) 
140.9

>  <b_lp_Chiralities_Consistent>  (60) 
1

>  <s_lp_Variant>  (60) 
9:0-1

>  <s_i_glide_gridfile>  (60) 
pfpi4k_grid

>  <i_i_glide_lignum>  (60) 
24

>  <i_i_glide_rotatable_bonds>  (60) 
0

>  <r_i_docking_score>  (60) 
-2.44251

>  <r_i_glide_ligand_efficiency>  (60) 
-0.111023

>  <r_i_glide_ligand_efficiency_sa>  (60) 
-0.311091

>  <r_i_glide_ligand_efficiency_ln>  (60) 
-0.597037

>  <r_i_glide_gscore>  (60) 
-2.44251

>  <r_i_glide_lipo>  (60) 
-0.684485

>  <r_i_glide_hbond>  (60) 
0

>  <r_i_glide_metal>  (60) 
-0

>  <r_i_glide_rewards>  (60) 
-1.4441

>  <r_i_glide_evdw>  (60) 
-2.77542

>  <r_i_glide_ecoul>  (60) 
-1.16767

>  <r_i_glide_erotb>  (60) 
0

>  <r_i_glide_esite>  (60) 
0

>  <r_i_glide_emodel>  (60) 
-5.1537

>  <r_i_glide_energy>  (60) 
-3.94309

>  <r_i_glide_einternal>  (60) 
0

>  <r_i_glide_intrahb_reward>  (60) 
-0

>  <i_i_glide_confnum>  (60) 
2

>  <i_i_glide_posenum>  (60) 
22

>  <r_i_glide_eff_state_penalty>  (60) 
0

>  <ligand_id>  (60) 
9

>  <original_smiles>  (60) 
CC1=CC2C3CC4CC1C21C=CC2C=C3N2CCNCCC41

>  <smiles>  (60) 
[H]C1=C(C([H])([H])[H])C2([H])C([H])([H])C3([H])C([H])([H])C4=C5N6C([H])([H])C([H])([H])[N+]([H])([H])C([H])([H])C([H])([H])C3([H])C2(C([H])=C([H])C6([H])C5([H])[H])C14[H]

$$$$
9:0:2
     RDKit          3D

 49 54  0  0  1  0  0  0  0  0999 V2000
    4.1837   -1.1873   -4.3171 C   0  0  0  0  0  0  0  0  0  0  0  0
    4.1127   -1.6926   -2.9045 C   0  0  0  0  0  0  0  0  0  0  0  0
    3.0379   -1.5660   -2.1498 C   0  0  0  0  0  0  0  0  0  0  0  0
    3.3289   -1.8599   -0.7103 C   0  0  1  0  0  0  0  0  0  0  0  0
    2.5163   -2.8656    0.0476 C   0  0  0  0  0  0  0  0  0  0  0  0
    2.7557   -4.2432   -0.5650 C   0  0  0  0  0  0  0  0  0  0  0  0
    4.2873   -4.4646   -1.0199 C   0  0  1  0  0  0  0  0  0  0  0  0
    4.8058   -3.8781   -2.3659 C   0  0  0  0  0  0  0  0  0  0  0  0
    5.1691   -2.3957   -2.1257 C   0  0  2  0  0  0  0  0  0  0  0  0
    4.7939   -2.2411   -0.6109 C   0  0  1  0  0  0  0  0  0  0  0  0
    5.3582   -1.1795    0.3084 C   0  0  0  0  0  0  0  0  0  0  0  0
    4.8507   -0.8349    1.5309 C   0  0  0  0  0  0  0  0  0  0  0  0
    3.6832   -1.4114    2.4176 C   0  0  1  0  0  0  0  0  0  0  0  0
    2.2130   -1.1990    1.9565 C   0  0  0  0  0  0  0  0  0  0  0  0
    2.3320   -2.6078    1.3864 C   0  0  0  0  0  0  0  0  0  0  0  0
    3.3557   -2.8349    2.2971 N   0  0  0  0  0  0  0  0  0  0  0  0
    3.5189   -3.7871    3.4048 C   0  0  0  0  0  0  0  0  0  0  0  0
    4.7497   -4.6811    3.1884 C   0  0  0  0  0  0  0  0  0  0  0  0
    5.8870   -3.9315    2.6434 N   0  0  0  0  0  0  0  0  0  0  0  0
    6.7078   -4.5917    1.5939 C   0  0  0  0  0  0  0  0  0  0  0  0
    6.5362   -3.9784    0.1961 C   0  0  0  0  0  0  0  0  0  0  0  0
    5.0777   -3.6544   -0.0737 C   0  0  2  0  0  0  0  0  0  0  0  0
    4.5636   -1.9272   -5.0062 H   0  0  0  0  0  0  0  0  0  0  0  0
    4.8885   -0.3540   -4.2582 H   0  0  0  0  0  0  0  0  0  0  0  0
    3.2547   -0.7803   -4.6866 H   0  0  0  0  0  0  0  0  0  0  0  0
    2.2448   -1.0146   -2.4846 H   0  0  0  0  0  0  0  0  0  0  0  0
    3.0984   -0.8670   -0.3718 H   0  0  0  0  0  0  0  0  0  0  0  0
    2.4513   -5.0167    0.1681 H   0  0  0  0  0  0  0  0  0  0  0  0
    2.0931   -4.3240   -1.4307 H   0  0  0  0  0  0  0  0  0  0  0  0
    4.5269   -5.5253   -0.9302 H   0  0  0  0  0  0  0  0  0  0  0  0
    5.7110   -4.4090   -2.6606 H   0  0  0  0  0  0  0  0  0  0  0  0
    4.0559   -4.0474   -3.1521 H   0  0  0  0  0  0  0  0  0  0  0  0
    6.1727   -2.1205   -2.4071 H   0  0  0  0  0  0  0  0  0  0  0  0
    6.1767   -0.6263   -0.0919 H   0  0  0  0  0  0  0  0  0  0  0  0
    5.3340    0.0096    2.0202 H   0  0  0  0  0  0  0  0  0  0  0  0
    3.7854   -1.1156    3.4666 H   0  0  0  0  0  0  0  0  0  0  0  0
    1.5312   -1.1416    2.8110 H   0  0  0  0  0  0  0  0  0  0  0  0
    3.6312   -3.1995    4.3219 H   0  0  0  0  0  0  0  0  0  0  0  0
    2.6269   -4.3969    3.4991 H   0  0  0  0  0  0  0  0  0  0  0  0
    5.0498   -5.1171    4.1418 H   0  0  0  0  0  0  0  0  0  0  0  0
    4.4871   -5.5059    2.5303 H   0  0  0  0  0  0  0  0  0  0  0  0
    5.5371   -3.0363    2.2745 H   0  0  0  0  0  0  0  0  0  0  0  0
    7.7573   -4.4483    1.8410 H   0  0  0  0  0  0  0  0  0  0  0  0
    6.5439   -5.6727    1.5843 H   0  0  0  0  0  0  0  0  0  0  0  0
    7.1207   -3.0598    0.1110 H   0  0  0  0  0  0  0  0  0  0  0  0
    6.8912   -4.6581   -0.5592 H   0  0  0  0  0  0  0  0  0  0  0  0
    4.5588   -4.0044    0.7785 H   0  0  0  0  0  0  0  0  0  0  0  0
    2.0349   -0.3552    1.2962 H   0  0  0  0  0  0  0  0  0  0  0  0
    6.5115   -3.7407    3.4185 H   0  0  0  0  0  0  0  0  0  0  0  0
  1  2  1  0
  1 23  1  0
  1 24  1  0
  1 25  1  0
  2  9  1  0
  2  3  2  0
  3  4  1  0
  3 26  1  0
  4 10  1  0
  4  5  1  0
  4 27  1  1
  5 15  2  0
  5  6  1  0
  6  7  1  0
  6 28  1  0
  6 29  1  0
  7 22  1  0
  7  8  1  0
  7 30  1  6
  8  9  1  0
  8 31  1  0
  8 32  1  0
  9 10  1  0
  9 33  1  1
 10 22  1  0
 10 11  1  1
 11 12  2  3
 11 34  1  0
 12 13  1  0
 12 35  1  0
 13 16  1  0
 13 14  1  0
 13 36  1  1
 14 15  1  0
 14 37  1  0
 14 48  1  0
 15 16  1  0
 16 17  1  0
 17 18  1  0
 17 38  1  0
 17 39  1  0
 18 19  1  0
 18 40  1  0
 18 41  1  0
 19 20  1  0
 19 42  1  0
 19 49  1  0
 20 21  1  0
 20 43  1  0
 20 44  1  0
 21 22  1  0
 21 45  1  0
 21 46  1  0
 22 47  1  1
M  CHG  1  19   1
M  END
>  <i_m_ct_stereo_status>  (61) 
1

>  <s_m_source_file>  (61) 
/var/tmp/pbs.5076255.sched01/tmpvv81v907/0tx7qkblw.sdf

>  <i_m_source_file_index>  (61) 
24

>  <i_lp_mmshare_version>  (61) 
48012

>  <i_f3d_flags>  (61) 
0

>  <s_epik_input>  (61) 
W0NIM11DKD1bQ0hdMSlbQ0BASF0yW0NIMl1bQ0BIXShbQ0gyXTMpW0NASF00W0NIMl1bQ0gyXVtOSF1bQ0gyXVtDSDJdTihbQ0BIXShbQ0hdPTUpL1tDSF09W0NIXVw2KUM1W0NASF0zW0NASF0xW0NAXTI0Ng==

>  <s_epik_cmdline>  (61) 
J2VwaWtfcHl0aG9uJywgJy1waHQnLCAnMi4wJywgJy1waCcsICc3LjAnLCAnLXRuJywgJzgnLCAnLW1hJywgJzIwMCcsICctaW1hZScsICc8aW5maWxlLm1hZT4nLCAnLW9tYWUnLCAnPG91dGZpbGUubWFlPic=

>  <r_lp_tautomer_probability>  (61) 
1

>  <r_epik_Ionization_Penalty>  (61) 
0.0153006

>  <r_epik_Ionization_Penalty_Charging>  (61) 
0.0152385

>  <r_epik_Ionization_Penalty_Neutral>  (61) 
6.201e-05

>  <r_epik_State_Penalty>  (61) 
0.0119642

>  <r_epik_Charging_Adjusted_Penalty>  (61) 
0.0272028

>  <i_epik_Tot_Q>  (61) 
1

>  <i_epik_Tot_abs_Q>  (61) 
1

>  <s_epik_Chemistry_Notes>  (61) 
This compound has an imine and may undergo hydrolysis.

>  <s_lp_Force_Field>  (61) 
OPLS3e

>  <r_lp_Energy>  (61) 
140.9

>  <b_lp_Chiralities_Consistent>  (61) 
1

>  <s_lp_Variant>  (61) 
9:0-1

>  <s_i_glide_gridfile>  (61) 
pfpi4k_grid

>  <i_i_glide_lignum>  (61) 
24

>  <i_i_glide_rotatable_bonds>  (61) 
0

>  <r_i_docking_score>  (61) 
-2.18386

>  <r_i_glide_ligand_efficiency>  (61) 
-0.0992664

>  <r_i_glide_ligand_efficiency_sa>  (61) 
-0.278148

>  <r_i_glide_ligand_efficiency_ln>  (61) 
-0.533815

>  <r_i_glide_gscore>  (61) 
-2.18386

>  <r_i_glide_lipo>  (61) 
-0.501133

>  <r_i_glide_hbond>  (61) 
0

>  <r_i_glide_metal>  (61) 
-0

>  <r_i_glide_rewards>  (61) 
-1.39472

>  <r_i_glide_evdw>  (61) 
-7.13517

>  <r_i_glide_ecoul>  (61) 
0.460725

>  <r_i_glide_erotb>  (61) 
0

>  <r_i_glide_esite>  (61) 
-0.000361838

>  <r_i_glide_emodel>  (61) 
-7.69811

>  <r_i_glide_energy>  (61) 
-6.67444

>  <r_i_glide_einternal>  (61) 
0

>  <r_i_glide_intrahb_reward>  (61) 
-0

>  <i_i_glide_confnum>  (61) 
1

>  <i_i_glide_posenum>  (61) 
6

>  <r_i_glide_eff_state_penalty>  (61) 
0

>  <ligand_id>  (61) 
9

>  <original_smiles>  (61) 
CC1=CC2C3CC4CC1C21C=CC2C=C3N2CCNCCC41

>  <smiles>  (61) 
[H]C1=C(C([H])([H])[H])C2([H])C([H])([H])C3([H])C([H])([H])C4=C5N6C([H])([H])C([H])([H])[N+]([H])([H])C([H])([H])C([H])([H])C3([H])C2(C([H])=C([H])C6([H])C5([H])[H])C14[H]

$$$$
9:1:0
     RDKit          3D

 49 54  0  0  1  0  0  0  0  0999 V2000
    5.4008   -8.8534    2.0576 C   0  0  0  0  0  0  0  0  0  0  0  0
    5.0235   -7.4337    1.6680 C   0  0  0  0  0  0  0  0  0  0  0  0
    4.5739   -6.9929    0.5118 C   0  0  0  0  0  0  0  0  0  0  0  0
    4.7405   -5.5011    0.4401 C   0  0  1  0  0  0  0  0  0  0  0  0
    3.6041   -4.5915    0.1202 C   0  0  0  0  0  0  0  0  0  0  0  0
    2.6561   -4.4560    1.3285 C   0  0  0  0  0  0  0  0  0  0  0  0
    3.3365   -4.5736    2.7439 C   0  0  1  0  0  0  0  0  0  0  0  0
    3.7729   -6.0035    3.1989 C   0  0  0  0  0  0  0  0  0  0  0  0
    5.2090   -6.2785    2.6048 C   0  0  2  0  0  0  0  0  0  0  0  0
    5.4198   -4.9876    1.7496 C   0  0  1  0  0  0  0  0  0  0  0  0
    6.7413   -4.4171    1.2861 C   0  0  0  0  0  0  0  0  0  0  0  0
    6.8786   -3.5080    0.2688 C   0  0  0  0  0  0  0  0  0  0  0  0
    5.8318   -2.7317   -0.6107 C   0  0  1  0  0  0  0  0  0  0  0  0
    5.0842   -3.5173   -1.7119 C   0  0  0  0  0  0  0  0  0  0  0  0
    3.9637   -3.5450   -0.6680 C   0  0  0  0  0  0  0  0  0  0  0  0
    4.4838   -2.4010   -0.0942 N   0  0  0  0  0  0  0  0  0  0  0  0
    3.9649   -1.0565   -0.3169 C   0  0  0  0  0  0  0  0  0  0  0  0
    3.8015   -0.2817    0.9973 C   0  0  0  0  0  0  0  0  0  0  0  0
    3.0661   -1.0682    2.0042 N   0  0  0  0  0  0  0  0  0  0  0  0
    3.8595   -1.4956    3.1754 C   0  0  0  0  0  0  0  0  0  0  0  0
    5.0183   -2.4449    2.8058 C   0  0  0  0  0  0  0  0  0  0  0  0
    4.7248   -3.9800    2.7259 C   0  0  1  0  0  0  0  0  0  0  0  0
    4.9460   -9.1424    3.0041 H   0  0  0  0  0  0  0  0  0  0  0  0
    6.4831   -8.9122    2.1811 H   0  0  0  0  0  0  0  0  0  0  0  0
    5.1248   -9.5805    1.2924 H   0  0  0  0  0  0  0  0  0  0  0  0
    4.3951   -7.6013   -0.3629 H   0  0  0  0  0  0  0  0  0  0  0  0
    5.4498   -5.5462   -0.3717 H   0  0  0  0  0  0  0  0  0  0  0  0
    2.1308   -3.5043    1.2364 H   0  0  0  0  0  0  0  0  0  0  0  0
    1.8924   -5.2313    1.2504 H   0  0  0  0  0  0  0  0  0  0  0  0
    2.6910   -4.1337    3.5042 H   0  0  0  0  0  0  0  0  0  0  0  0
    3.8251   -6.0302    4.2874 H   0  0  0  0  0  0  0  0  0  0  0  0
    3.0210   -6.7491    2.9265 H   0  0  0  0  0  0  0  0  0  0  0  0
    5.9753   -6.4436    3.3637 H   0  0  0  0  0  0  0  0  0  0  0  0
    7.6156   -4.8002    1.7819 H   0  0  0  0  0  0  0  0  0  0  0  0
    7.8969   -3.2295    0.0414 H   0  0  0  0  0  0  0  0  0  0  0  0
    6.3116   -1.8452   -1.0287 H   0  0  0  0  0  0  0  0  0  0  0  0
    4.8858   -2.8956   -2.5862 H   0  0  0  0  0  0  0  0  0  0  0  0
    4.6203   -0.5040   -0.9866 H   0  0  0  0  0  0  0  0  0  0  0  0
    3.0107   -1.1416   -0.8365 H   0  0  0  0  0  0  0  0  0  0  0  0
    4.7814    0.0203    1.3659 H   0  0  0  0  0  0  0  0  0  0  0  0
    3.2565    0.6437    0.8237 H   0  0  0  0  0  0  0  0  0  0  0  0
    2.3016   -0.4966    2.3287 H   0  0  0  0  0  0  0  0  0  0  0  0
    4.2718   -0.6045    3.6515 H   0  0  0  0  0  0  0  0  0  0  0  0
    3.2112   -1.9488    3.9240 H   0  0  0  0  0  0  0  0  0  0  0  0
    5.5995   -2.0540    1.9853 H   0  0  0  0  0  0  0  0  0  0  0  0
    5.7483   -2.3241    3.6063 H   0  0  0  0  0  0  0  0  0  0  0  0
    5.1336   -4.2101    3.7144 H   0  0  0  0  0  0  0  0  0  0  0  0
    5.5957   -4.4173   -2.0477 H   0  0  0  0  0  0  0  0  0  0  0  0
    2.6993   -1.8847    1.5367 H   0  0  0  0  0  0  0  0  0  0  0  0
  1  2  1  0
  1 23  1  0
  1 24  1  0
  1 25  1  0
  2  9  1  0
  2  3  2  0
  3  4  1  0
  3 26  1  0
  4 10  1  0
  4  5  1  0
  4 27  1  6
  5 15  2  0
  5  6  1  0
  6  7  1  0
  6 28  1  0
  6 29  1  0
  7 22  1  0
  7  8  1  0
  7 30  1  1
  8  9  1  0
  8 31  1  0
  8 32  1  0
  9 10  1  0
  9 33  1  1
 10 22  1  0
 10 11  1  6
 11 12  2  3
 11 34  1  0
 12 13  1  0
 12 35  1  0
 13 16  1  0
 13 14  1  0
 13 36  1  6
 14 15  1  0
 14 37  1  0
 14 48  1  0
 15 16  1  0
 16 17  1  0
 17 18  1  0
 17 38  1  0
 17 39  1  0
 18 19  1  0
 18 40  1  0
 18 41  1  0
 19 20  1  0
 19 42  1  0
 19 49  1  0
 20 21  1  0
 20 43  1  0
 20 44  1  0
 21 22  1  0
 21 45  1  0
 21 46  1  0
 22 47  1  1
M  CHG  1  19   1
M  END
>  <i_m_ct_stereo_status>  (62) 
1

>  <s_m_source_file>  (62) 
/var/tmp/pbs.5076255.sched01/tmpvv81v907/0tx7qkblw.sdf

>  <i_m_source_file_index>  (62) 
25

>  <i_lp_mmshare_version>  (62) 
48012

>  <i_f3d_flags>  (62) 
3

>  <s_epik_input>  (62) 
W0NIM11DKD1bQ0hdMSlbQ0BASF0yW0NIMl1bQ0BIXShbQ0gyXTMpW0NASF00W0NIMl1bQ0gyXVtOSF1bQ0gyXVtDSDJdTihbQ0BIXShbQ0hdPTUpL1tDSF09W0NIXVw2KUM1W0NASF0zW0NASF0xW0NAXTI0Ng==

>  <s_epik_cmdline>  (62) 
J2VwaWtfcHl0aG9uJywgJy1waHQnLCAnMi4wJywgJy1waCcsICc3LjAnLCAnLXRuJywgJzgnLCAnLW1hJywgJzIwMCcsICctaW1hZScsICc8aW5maWxlLm1hZT4nLCAnLW9tYWUnLCAnPG91dGZpbGUubWFlPic=

>  <r_lp_tautomer_probability>  (62) 
1

>  <r_epik_Ionization_Penalty>  (62) 
0.0153006

>  <r_epik_Ionization_Penalty_Charging>  (62) 
0.0152385

>  <r_epik_Ionization_Penalty_Neutral>  (62) 
6.201e-05

>  <r_epik_State_Penalty>  (62) 
0.0119642

>  <r_epik_Charging_Adjusted_Penalty>  (62) 
0.0272028

>  <i_epik_Tot_Q>  (62) 
1

>  <i_epik_Tot_abs_Q>  (62) 
1

>  <s_epik_Chemistry_Notes>  (62) 
This compound has an imine and may undergo hydrolysis.

>  <s_lp_Force_Field>  (62) 
OPLS3e

>  <r_lp_Energy>  (62) 
148.564

>  <b_lp_Chiralities_Consistent>  (62) 
0

>  <s_lp_Variant>  (62) 
9:0-2

>  <s_i_glide_gridfile>  (62) 
pfpi4k_grid

>  <i_i_glide_lignum>  (62) 
25

>  <i_i_glide_rotatable_bonds>  (62) 
0

>  <r_i_docking_score>  (62) 
-3.62755

>  <r_i_glide_ligand_efficiency>  (62) 
-0.164889

>  <r_i_glide_ligand_efficiency_sa>  (62) 
-0.462025

>  <r_i_glide_ligand_efficiency_ln>  (62) 
-0.886706

>  <r_i_glide_gscore>  (62) 
-3.62755

>  <r_i_glide_lipo>  (62) 
-0.727166

>  <r_i_glide_hbond>  (62) 
0

>  <r_i_glide_metal>  (62) 
-0

>  <r_i_glide_rewards>  (62) 
-1.39472

>  <r_i_glide_evdw>  (62) 
-22.4269

>  <r_i_glide_ecoul>  (62) 
-2.37861

>  <r_i_glide_erotb>  (62) 
0

>  <r_i_glide_esite>  (62) 
-0.0275378

>  <r_i_glide_emodel>  (62) 
-30.1862

>  <r_i_glide_energy>  (62) 
-24.8055

>  <r_i_glide_einternal>  (62) 
0

>  <r_i_glide_intrahb_reward>  (62) 
-0

>  <i_i_glide_confnum>  (62) 
1

>  <i_i_glide_posenum>  (62) 
7

>  <r_i_glide_eff_state_penalty>  (62) 
0

>  <ligand_id>  (62) 
9

>  <original_smiles>  (62) 
CC1=CC2C3CC4CC1C21C=CC2C=C3N2CCNCCC41

>  <smiles>  (62) 
[H]C1=C(C([H])([H])[H])C2([H])C([H])([H])C3([H])C([H])([H])C4=C5N6C([H])([H])C([H])([H])[N+]([H])([H])C([H])([H])C([H])([H])C3([H])C2(C([H])=C([H])C6([H])C5([H])[H])C14[H]

$$$$
9:1:1
     RDKit          3D

 49 54  0  0  1  0  0  0  0  0999 V2000
    3.9894   -8.9026    2.3896 C   0  0  0  0  0  0  0  0  0  0  0  0
    3.8350   -7.4138    2.1168 C   0  0  0  0  0  0  0  0  0  0  0  0
    2.8161   -6.7943    1.5433 C   0  0  0  0  0  0  0  0  0  0  0  0
    3.2763   -5.4552    1.0363 C   0  0  1  0  0  0  0  0  0  0  0  0
    2.5953   -4.1981    1.4378 C   0  0  0  0  0  0  0  0  0  0  0  0
    2.9135   -3.8173    2.8893 C   0  0  0  0  0  0  0  0  0  0  0  0
    4.3438   -4.2297    3.3887 C   0  0  1  0  0  0  0  0  0  0  0  0
    4.5671   -5.7493    3.6833 C   0  0  0  0  0  0  0  0  0  0  0  0
    4.9707   -6.4554    2.3268 C   0  0  2  0  0  0  0  0  0  0  0  0
    4.7946   -5.2625    1.3320 C   0  0  1  0  0  0  0  0  0  0  0  0
    5.4236   -5.1325   -0.0316 C   0  0  0  0  0  0  0  0  0  0  0  0
    4.9993   -4.2831   -1.0141 C   0  0  0  0  0  0  0  0  0  0  0  0
    3.9157   -3.1560   -1.0466 C   0  0  1  0  0  0  0  0  0  0  0  0
    2.4325   -3.5836   -1.0544 C   0  0  0  0  0  0  0  0  0  0  0  0
    2.5543   -3.2838    0.4350 C   0  0  0  0  0  0  0  0  0  0  0  0
    3.5965   -2.4203    0.1990 N   0  0  0  0  0  0  0  0  0  0  0  0
    3.4330   -0.9824    0.1413 C   0  0  0  0  0  0  0  0  0  0  0  0
    4.4734   -0.2477    0.9609 C   0  0  0  0  0  0  0  0  0  0  0  0
    4.5419   -0.7927    2.3152 N   0  0  0  0  0  0  0  0  0  0  0  0
    5.7697   -1.5231    2.6151 C   0  0  0  0  0  0  0  0  0  0  0  0
    5.9651   -2.7858    1.7565 C   0  0  0  0  0  0  0  0  0  0  0  0
    5.3416   -4.1304    2.2607 C   0  0  1  0  0  0  0  0  0  0  0  0
    4.3423   -9.0799    3.4065 H   0  0  0  0  0  0  0  0  0  0  0  0
    4.7379   -9.3327    1.7184 H   0  0  0  0  0  0  0  0  0  0  0  0
    3.0679   -9.4652    2.2223 H   0  0  0  0  0  0  0  0  0  0  0  0
    1.9159   -7.2815    1.2004 H   0  0  0  0  0  0  0  0  0  0  0  0
    3.1114   -5.6980   -0.0040 H   0  0  0  0  0  0  0  0  0  0  0  0
    2.7491   -2.7439    3.0018 H   0  0  0  0  0  0  0  0  0  0  0  0
    2.1767   -4.2877    3.5391 H   0  0  0  0  0  0  0  0  0  0  0  0
    4.6215   -3.6393    4.2633 H   0  0  0  0  0  0  0  0  0  0  0  0
    5.3903   -5.8472    4.3843 H   0  0  0  0  0  0  0  0  0  0  0  0
    3.7079   -6.1820    4.2015 H   0  0  0  0  0  0  0  0  0  0  0  0
    5.9649   -6.9184    2.3313 H   0  0  0  0  0  0  0  0  0  0  0  0
    6.2149   -5.8273   -0.2296 H   0  0  0  0  0  0  0  0  0  0  0  0
    5.5223   -4.3523   -1.9516 H   0  0  0  0  0  0  0  0  0  0  0  0
    4.1118   -2.4612   -1.8635 H   0  0  0  0  0  0  0  0  0  0  0  0
    1.8365   -2.8861   -1.6417 H   0  0  0  0  0  0  0  0  0  0  0  0
    3.4578   -0.6561   -0.8948 H   0  0  0  0  0  0  0  0  0  0  0  0
    2.4476   -0.7220    0.5371 H   0  0  0  0  0  0  0  0  0  0  0  0
    5.4295   -0.2982    0.4483 H   0  0  0  0  0  0  0  0  0  0  0  0
    4.2016    0.8056    0.9877 H   0  0  0  0  0  0  0  0  0  0  0  0
    4.4588   -0.0250    2.9667 H   0  0  0  0  0  0  0  0  0  0  0  0
    6.6167   -0.8567    2.4639 H   0  0  0  0  0  0  0  0  0  0  0  0
    5.8069   -1.7760    3.6677 H   0  0  0  0  0  0  0  0  0  0  0  0
    5.8509   -2.5767    0.7038 H   0  0  0  0  0  0  0  0  0  0  0  0
    7.0327   -2.9737    1.7194 H   0  0  0  0  0  0  0  0  0  0  0  0
    6.2621   -4.5388    2.6840 H   0  0  0  0  0  0  0  0  0  0  0  0
    2.2044   -4.5782   -1.4234 H   0  0  0  0  0  0  0  0  0  0  0  0
    3.7603   -1.4290    2.4288 H   0  0  0  0  0  0  0  0  0  0  0  0
  1  2  1  0
  1 23  1  0
  1 24  1  0
  1 25  1  0
  2  9  1  0
  2  3  2  0
  3  4  1  0
  3 26  1  0
  4 10  1  0
  4  5  1  0
  4 27  1  6
  5 15  2  0
  5  6  1  0
  6  7  1  0
  6 28  1  0
  6 29  1  0
  7 22  1  0
  7  8  1  0
  7 30  1  1
  8  9  1  0
  8 31  1  0
  8 32  1  0
  9 10  1  0
  9 33  1  1
 10 22  1  0
 10 11  1  6
 11 12  2  3
 11 34  1  0
 12 13  1  0
 12 35  1  0
 13 16  1  0
 13 14  1  0
 13 36  1  6
 14 15  1  0
 14 37  1  0
 14 48  1  0
 15 16  1  0
 16 17  1  0
 17 18  1  0
 17 38  1  0
 17 39  1  0
 18 19  1  0
 18 40  1  0
 18 41  1  0
 19 20  1  0
 19 42  1  0
 19 49  1  0
 20 21  1  0
 20 43  1  0
 20 44  1  0
 21 22  1  0
 21 45  1  0
 21 46  1  0
 22 47  1  1
M  CHG  1  19   1
M  END
>  <i_m_ct_stereo_status>  (63) 
1

>  <s_m_source_file>  (63) 
/var/tmp/pbs.5076255.sched01/tmpvv81v907/0tx7qkblw.sdf

>  <i_m_source_file_index>  (63) 
25

>  <i_lp_mmshare_version>  (63) 
48012

>  <i_f3d_flags>  (63) 
3

>  <s_epik_input>  (63) 
W0NIM11DKD1bQ0hdMSlbQ0BASF0yW0NIMl1bQ0BIXShbQ0gyXTMpW0NASF00W0NIMl1bQ0gyXVtOSF1bQ0gyXVtDSDJdTihbQ0BIXShbQ0hdPTUpL1tDSF09W0NIXVw2KUM1W0NASF0zW0NASF0xW0NAXTI0Ng==

>  <s_epik_cmdline>  (63) 
J2VwaWtfcHl0aG9uJywgJy1waHQnLCAnMi4wJywgJy1waCcsICc3LjAnLCAnLXRuJywgJzgnLCAnLW1hJywgJzIwMCcsICctaW1hZScsICc8aW5maWxlLm1hZT4nLCAnLW9tYWUnLCAnPG91dGZpbGUubWFlPic=

>  <r_lp_tautomer_probability>  (63) 
1

>  <r_epik_Ionization_Penalty>  (63) 
0.0153006

>  <r_epik_Ionization_Penalty_Charging>  (63) 
0.0152385

>  <r_epik_Ionization_Penalty_Neutral>  (63) 
6.201e-05

>  <r_epik_State_Penalty>  (63) 
0.0119642

>  <r_epik_Charging_Adjusted_Penalty>  (63) 
0.0272028

>  <i_epik_Tot_Q>  (63) 
1

>  <i_epik_Tot_abs_Q>  (63) 
1

>  <s_epik_Chemistry_Notes>  (63) 
This compound has an imine and may undergo hydrolysis.

>  <s_lp_Force_Field>  (63) 
OPLS3e

>  <r_lp_Energy>  (63) 
148.564

>  <b_lp_Chiralities_Consistent>  (63) 
0

>  <s_lp_Variant>  (63) 
9:0-2

>  <s_i_glide_gridfile>  (63) 
pfpi4k_grid

>  <i_i_glide_lignum>  (63) 
25

>  <i_i_glide_rotatable_bonds>  (63) 
0

>  <r_i_docking_score>  (63) 
-3.04595

>  <r_i_glide_ligand_efficiency>  (63) 
-0.138452

>  <r_i_glide_ligand_efficiency_sa>  (63) 
-0.387948

>  <r_i_glide_ligand_efficiency_ln>  (63) 
-0.744541

>  <r_i_glide_gscore>  (63) 
-3.04595

>  <r_i_glide_lipo>  (63) 
-0.447772

>  <r_i_glide_hbond>  (63) 
0

>  <r_i_glide_metal>  (63) 
-0

>  <r_i_glide_rewards>  (63) 
-1.39472

>  <r_i_glide_evdw>  (63) 
-15.2615

>  <r_i_glide_ecoul>  (63) 
-2.72119

>  <r_i_glide_erotb>  (63) 
0

>  <r_i_glide_esite>  (63) 
-0.0322065

>  <r_i_glide_emodel>  (63) 
-22.1709

>  <r_i_glide_energy>  (63) 
-17.9827

>  <r_i_glide_einternal>  (63) 
0

>  <r_i_glide_intrahb_reward>  (63) 
-0

>  <i_i_glide_confnum>  (63) 
2

>  <i_i_glide_posenum>  (63) 
16

>  <r_i_glide_eff_state_penalty>  (63) 
0

>  <ligand_id>  (63) 
9

>  <original_smiles>  (63) 
CC1=CC2C3CC4CC1C21C=CC2C=C3N2CCNCCC41

>  <smiles>  (63) 
[H]C1=C(C([H])([H])[H])C2([H])C([H])([H])C3([H])C([H])([H])C4=C5N6C([H])([H])C([H])([H])[N+]([H])([H])C([H])([H])C([H])([H])C3([H])C2(C([H])=C([H])C6([H])C5([H])[H])C14[H]

$$$$
9:1:2
     RDKit          3D

 49 54  0  0  1  0  0  0  0  0999 V2000
    4.1014   -1.1672   -4.3212 C   0  0  0  0  0  0  0  0  0  0  0  0
    4.0785   -1.7037   -2.9124 C   0  0  0  0  0  0  0  0  0  0  0  0
    3.0563   -1.7604   -2.0863 C   0  0  0  0  0  0  0  0  0  0  0  0
    3.5327   -1.9583   -0.6777 C   0  0  1  0  0  0  0  0  0  0  0  0
    3.0064   -3.0431    0.1929 C   0  0  0  0  0  0  0  0  0  0  0  0
    3.5504   -4.4040   -0.2373 C   0  0  0  0  0  0  0  0  0  0  0  0
    4.9933   -4.3858   -0.8629 C   0  0  1  0  0  0  0  0  0  0  0  0
    5.1310   -3.8238   -2.3133 C   0  0  0  0  0  0  0  0  0  0  0  0
    5.2763   -2.2653   -2.2080 C   0  0  2  0  0  0  0  0  0  0  0  0
    5.0867   -2.0635   -0.6760 C   0  0  1  0  0  0  0  0  0  0  0  0
    5.5313   -0.8833    0.1581 C   0  0  0  0  0  0  0  0  0  0  0  0
    5.0535   -0.5891    1.4051 C   0  0  0  0  0  0  0  0  0  0  0  0
    4.0540   -1.3150    2.3722 C   0  0  1  0  0  0  0  0  0  0  0  0
    2.5527   -1.2655    2.0174 C   0  0  0  0  0  0  0  0  0  0  0  0
    2.8281   -2.6708    1.4858 C   0  0  0  0  0  0  0  0  0  0  0  0
    3.8925   -2.7850    2.3430 N   0  0  0  0  0  0  0  0  0  0  0  0
    3.8705   -3.5038    3.6079 C   0  0  0  0  0  0  0  0  0  0  0  0
    5.0985   -4.4107    3.7815 C   0  0  0  0  0  0  0  0  0  0  0  0
    5.3369   -5.2559    2.5874 N   0  0  0  0  0  0  0  0  0  0  0  0
    6.5545   -4.9501    1.7997 C   0  0  0  0  0  0  0  0  0  0  0  0
    6.5321   -3.5316    1.1874 C   0  0  0  0  0  0  0  0  0  0  0  0
    5.8551   -3.3391   -0.2078 C   0  0  1  0  0  0  0  0  0  0  0  0
    4.5858   -1.8730   -4.9727 H   0  0  0  0  0  0  0  0  0  0  0  0
    4.6643   -0.2517   -4.3627 H   0  0  0  0  0  0  0  0  0  0  0  0
    3.1121   -0.9070   -4.6978 H   0  0  0  0  0  0  0  0  0  0  0  0
    2.0886   -1.3831   -2.3281 H   0  0  0  0  0  0  0  0  0  0  0  0
    3.2018   -0.9842   -0.3450 H   0  0  0  0  0  0  0  0  0  0  0  0
    3.4975   -5.0934    0.6023 H   0  0  0  0  0  0  0  0  0  0  0  0
    2.8355   -4.7656   -0.9692 H   0  0  0  0  0  0  0  0  0  0  0  0
    5.4126   -5.3862   -0.8298 H   0  0  0  0  0  0  0  0  0  0  0  0
    6.0356   -4.2126   -2.7710 H   0  0  0  0  0  0  0  0  0  0  0  0
    4.3200   -4.1591   -2.9603 H   0  0  0  0  0  0  0  0  0  0  0  0
    6.2188   -1.8882   -2.5699 H   0  0  0  0  0  0  0  0  0  0  0  0
    6.2349   -0.2172   -0.3039 H   0  0  0  0  0  0  0  0  0  0  0  0
    5.4554    0.3087    1.8450 H   0  0  0  0  0  0  0  0  0  0  0  0
    4.2282   -0.9541    3.3844 H   0  0  0  0  0  0  0  0  0  0  0  0
    1.9252   -1.2396    2.9079 H   0  0  0  0  0  0  0  0  0  0  0  0
    3.8264   -2.8046    4.4401 H   0  0  0  0  0  0  0  0  0  0  0  0
    2.9647   -4.1039    3.6591 H   0  0  0  0  0  0  0  0  0  0  0  0
    5.9692   -3.7952    4.0043 H   0  0  0  0  0  0  0  0  0  0  0  0
    4.9647   -5.0530    4.6569 H   0  0  0  0  0  0  0  0  0  0  0  0
    5.4124   -6.2154    2.9021 H   0  0  0  0  0  0  0  0  0  0  0  0
    7.4188   -5.0534    2.4633 H   0  0  0  0  0  0  0  0  0  0  0  0
    6.6984   -5.7065    1.0268 H   0  0  0  0  0  0  0  0  0  0  0  0
    6.2558   -2.7974    1.9288 H   0  0  0  0  0  0  0  0  0  0  0  0
    7.5804   -3.2607    1.0549 H   0  0  0  0  0  0  0  0  0  0  0  0
    6.7923   -3.3435   -0.7755 H   0  0  0  0  0  0  0  0  0  0  0  0
    2.2599   -0.4424    1.3722 H   0  0  0  0  0  0  0  0  0  0  0  0
    4.5341   -5.1576    1.9767 H   0  0  0  0  0  0  0  0  0  0  0  0
  1  2  1  0
  1 23  1  0
  1 24  1  0
  1 25  1  0
  2  9  1  0
  2  3  2  0
  3  4  1  0
  3 26  1  0
  4 10  1  0
  4  5  1  0
  4 27  1  1
  5 15  2  0
  5  6  1  0
  6  7  1  0
  6 28  1  0
  6 29  1  0
  7 22  1  0
  7  8  1  0
  7 30  1  6
  8  9  1  0
  8 31  1  0
  8 32  1  0
  9 10  1  0
  9 33  1  6
 10 22  1  0
 10 11  1  1
 11 12  2  3
 11 34  1  0
 12 13  1  0
 12 35  1  0
 13 16  1  0
 13 14  1  0
 13 36  1  1
 14 15  1  0
 14 37  1  0
 14 48  1  0
 15 16  1  0
 16 17  1  0
 17 18  1  0
 17 38  1  0
 17 39  1  0
 18 19  1  0
 18 40  1  0
 18 41  1  0
 19 20  1  0
 19 42  1  0
 19 49  1  0
 20 21  1  0
 20 43  1  0
 20 44  1  0
 21 22  1  0
 21 45  1  0
 21 46  1  0
 22 47  1  6
M  CHG  1  19   1
M  END
>  <i_m_ct_stereo_status>  (64) 
1

>  <s_m_source_file>  (64) 
/var/tmp/pbs.5076255.sched01/tmpvv81v907/0tx7qkblw.sdf

>  <i_m_source_file_index>  (64) 
25

>  <i_lp_mmshare_version>  (64) 
48012

>  <i_f3d_flags>  (64) 
3

>  <s_epik_input>  (64) 
W0NIM11DKD1bQ0hdMSlbQ0BASF0yW0NIMl1bQ0BIXShbQ0gyXTMpW0NASF00W0NIMl1bQ0gyXVtOSF1bQ0gyXVtDSDJdTihbQ0BIXShbQ0hdPTUpL1tDSF09W0NIXVw2KUM1W0NASF0zW0NASF0xW0NAXTI0Ng==

>  <s_epik_cmdline>  (64) 
J2VwaWtfcHl0aG9uJywgJy1waHQnLCAnMi4wJywgJy1waCcsICc3LjAnLCAnLXRuJywgJzgnLCAnLW1hJywgJzIwMCcsICctaW1hZScsICc8aW5maWxlLm1hZT4nLCAnLW9tYWUnLCAnPG91dGZpbGUubWFlPic=

>  <r_lp_tautomer_probability>  (64) 
1

>  <r_epik_Ionization_Penalty>  (64) 
0.0153006

>  <r_epik_Ionization_Penalty_Charging>  (64) 
0.0152385

>  <r_epik_Ionization_Penalty_Neutral>  (64) 
6.201e-05

>  <r_epik_State_Penalty>  (64) 
0.0119642

>  <r_epik_Charging_Adjusted_Penalty>  (64) 
0.0272028

>  <i_epik_Tot_Q>  (64) 
1

>  <i_epik_Tot_abs_Q>  (64) 
1

>  <s_epik_Chemistry_Notes>  (64) 
This compound has an imine and may undergo hydrolysis.

>  <s_lp_Force_Field>  (64) 
OPLS3e

>  <r_lp_Energy>  (64) 
148.564

>  <b_lp_Chiralities_Consistent>  (64) 
0

>  <s_lp_Variant>  (64) 
9:0-2

>  <s_i_glide_gridfile>  (64) 
pfpi4k_grid

>  <i_i_glide_lignum>  (64) 
25

>  <i_i_glide_rotatable_bonds>  (64) 
0

>  <r_i_docking_score>  (64) 
-2.85234

>  <r_i_glide_ligand_efficiency>  (64) 
-0.129652

>  <r_i_glide_ligand_efficiency_sa>  (64) 
-0.36329

>  <r_i_glide_ligand_efficiency_ln>  (64) 
-0.697217

>  <r_i_glide_gscore>  (64) 
-2.85234

>  <r_i_glide_lipo>  (64) 
-0.515606

>  <r_i_glide_hbond>  (64) 
0

>  <r_i_glide_metal>  (64) 
-0

>  <r_i_glide_rewards>  (64) 
-1.39578

>  <r_i_glide_evdw>  (64) 
-18.2207

>  <r_i_glide_ecoul>  (64) 
-0.199488

>  <r_i_glide_erotb>  (64) 
0

>  <r_i_glide_esite>  (64) 
0

>  <r_i_glide_emodel>  (64) 
-22.4134

>  <r_i_glide_energy>  (64) 
-18.4202

>  <r_i_glide_einternal>  (64) 
0

>  <r_i_glide_intrahb_reward>  (64) 
-0

>  <i_i_glide_confnum>  (64) 
2

>  <i_i_glide_posenum>  (64) 
2

>  <r_i_glide_eff_state_penalty>  (64) 
0

>  <ligand_id>  (64) 
9

>  <original_smiles>  (64) 
CC1=CC2C3CC4CC1C21C=CC2C=C3N2CCNCCC41

>  <smiles>  (64) 
[H]C1=C(C([H])([H])[H])C2([H])C([H])([H])C3([H])C([H])([H])C4=C5N6C([H])([H])C([H])([H])[N+]([H])([H])C([H])([H])C([H])([H])C3([H])C2(C([H])=C([H])C6([H])C5([H])[H])C14[H]

$$$$
9:2:0
     RDKit          3D

 48 53  0  0  1  0  0  0  0  0999 V2000
    3.8826   -1.0217   -2.9684 C   0  0  0  0  0  0  0  0  0  0  0  0
    4.3656   -1.9129   -1.8343 C   0  0  0  0  0  0  0  0  0  0  0  0
    4.8900   -3.1293   -1.9303 C   0  0  0  0  0  0  0  0  0  0  0  0
    4.8405   -3.8120   -0.5928 C   0  0  1  0  0  0  0  0  0  0  0  0
    6.0791   -4.3530    0.0581 C   0  0  0  0  0  0  0  0  0  0  0  0
    6.9854   -3.1387    0.4366 C   0  0  0  0  0  0  0  0  0  0  0  0
    6.2208   -1.8607    0.9965 C   0  0  1  0  0  0  0  0  0  0  0  0
    5.5063   -0.8843    0.0295 C   0  0  0  0  0  0  0  0  0  0  0  0
    4.1564   -1.5440   -0.3914 C   0  0  2  0  0  0  0  0  0  0  0  0
    4.1766   -2.8564    0.4399 C   0  0  1  0  0  0  0  0  0  0  0  0
    2.9113   -3.5679    0.8467 C   0  0  0  0  0  0  0  0  0  0  0  0
    2.8336   -4.8630    1.2712 C   0  0  0  0  0  0  0  0  0  0  0  0
    3.9469   -5.9017    1.6179 C   0  0  1  0  0  0  0  0  0  0  0  0
    4.8049   -6.5347    0.4849 C   0  0  0  0  0  0  0  0  0  0  0  0
    5.8397   -5.4505    0.8456 C   0  0  0  0  0  0  0  0  0  0  0  0
    5.2073   -5.3729    2.0956 N   0  0  0  0  0  0  0  0  0  0  0  0
    5.6258   -5.4399    3.4852 C   0  0  0  0  0  0  0  0  0  0  0  0
    4.5879   -4.7724    4.4221 C   0  0  0  0  0  0  0  0  0  0  0  0
    4.7450   -3.3248    4.5821 N   0  0  0  0  0  0  0  0  0  0  0  0
    3.7243   -2.5250    3.8918 C   0  0  0  0  0  0  0  0  0  0  0  0
    4.3189   -1.6071    2.7895 C   0  0  0  0  0  0  0  0  0  0  0  0
    5.0180   -2.4226    1.6879 C   0  0  2  0  0  0  0  0  0  0  0  0
    4.2727   -0.0072   -2.8637 H   0  0  0  0  0  0  0  0  0  0  0  0
    2.7905   -0.9598   -2.9258 H   0  0  0  0  0  0  0  0  0  0  0  0
    4.1513   -1.4186   -3.9452 H   0  0  0  0  0  0  0  0  0  0  0  0
    5.0793   -3.6580   -2.8507 H   0  0  0  0  0  0  0  0  0  0  0  0
    4.1708   -4.6006   -0.9063 H   0  0  0  0  0  0  0  0  0  0  0  0
    7.7126   -3.4970    1.1718 H   0  0  0  0  0  0  0  0  0  0  0  0
    7.5663   -2.8494   -0.4424 H   0  0  0  0  0  0  0  0  0  0  0  0
    6.8800   -1.3164    1.6766 H   0  0  0  0  0  0  0  0  0  0  0  0
    5.2891    0.0353    0.5874 H   0  0  0  0  0  0  0  0  0  0  0  0
    6.1602   -0.5974   -0.7928 H   0  0  0  0  0  0  0  0  0  0  0  0
    3.2884   -0.9069   -0.2257 H   0  0  0  0  0  0  0  0  0  0  0  0
    2.0099   -2.9882    0.7183 H   0  0  0  0  0  0  0  0  0  0  0  0
    1.8437   -5.2330    1.4833 H   0  0  0  0  0  0  0  0  0  0  0  0
    3.5756   -6.6539    2.3144 H   0  0  0  0  0  0  0  0  0  0  0  0
    5.1069   -7.5468    0.7709 H   0  0  0  0  0  0  0  0  0  0  0  0
    5.6914   -6.5011    3.7254 H   0  0  0  0  0  0  0  0  0  0  0  0
    6.6240   -5.0444    3.6169 H   0  0  0  0  0  0  0  0  0  0  0  0
    3.5632   -5.0559    4.1748 H   0  0  0  0  0  0  0  0  0  0  0  0
    4.7558   -5.1878    5.4187 H   0  0  0  0  0  0  0  0  0  0  0  0
    5.6664   -3.0462    4.2799 H   0  0  0  0  0  0  0  0  0  0  0  0
    2.9171   -3.1431    3.4983 H   0  0  0  0  0  0  0  0  0  0  0  0
    3.2544   -1.8909    4.6478 H   0  0  0  0  0  0  0  0  0  0  0  0
    3.5341   -0.9839    2.3611 H   0  0  0  0  0  0  0  0  0  0  0  0
    5.0288   -0.9190    3.2521 H   0  0  0  0  0  0  0  0  0  0  0  0
    5.5017   -3.1620    2.2739 H   0  0  0  0  0  0  0  0  0  0  0  0
    4.3145   -6.5892   -0.4872 H   0  0  0  0  0  0  0  0  0  0  0  0
  1  2  1  0
  1 23  1  0
  1 24  1  0
  1 25  1  0
  2  9  1  0
  2  3  2  0
  3  4  1  0
  3 26  1  0
  4 10  1  0
  4  5  1  0
  4 27  1  6
  5 15  2  0
  5  6  1  0
  6  7  1  0
  6 28  1  0
  6 29  1  0
  7 22  1  0
  7  8  1  0
  7 30  1  1
  8  9  1  0
  8 31  1  0
  8 32  1  0
  9 10  1  0
  9 33  1  6
 10 22  1  0
 10 11  1  1
 11 12  2  3
 11 34  1  0
 12 13  1  0
 12 35  1  0
 13 16  1  0
 13 14  1  0
 13 36  1  1
 14 15  1  0
 14 37  1  0
 14 48  1  0
 15 16  1  0
 16 17  1  0
 17 18  1  0
 17 38  1  0
 17 39  1  0
 18 19  1  0
 18 40  1  0
 18 41  1  0
 19 20  1  0
 19 42  1  0
 20 21  1  0
 20 43  1  0
 20 44  1  0
 21 22  1  0
 21 45  1  0
 21 46  1  0
 22 47  1  1
M  END
>  <i_m_ct_stereo_status>  (65) 
1

>  <s_m_source_file>  (65) 
/var/tmp/pbs.5076255.sched01/tmpvv81v907/0tx7qkblw.sdf

>  <i_m_source_file_index>  (65) 
26

>  <i_lp_mmshare_version>  (65) 
48012

>  <i_f3d_flags>  (65) 
0

>  <s_epik_input>  (65) 
W0NIM11DKD1bQ0hdMSlbQ0BASF0yW0NIMl1bQ0BIXShbQ0gyXTMpW0NASF00W0NIMl1bQ0gyXVtOSF1bQ0gyXVtDSDJdTihbQ0BIXShbQ0hdPTUpL1tDSF09W0NIXVw2KUM1W0NASF0zW0NASF0xW0NAXTI0Ng==

>  <s_epik_cmdline>  (65) 
J2VwaWtfcHl0aG9uJywgJy1waHQnLCAnMi4wJywgJy1waCcsICc3LjAnLCAnLXRuJywgJzgnLCAnLW1hJywgJzIwMCcsICctaW1hZScsICc8aW5maWxlLm1hZT4nLCAnLW9tYWUnLCAnPG91dGZpbGUubWFlPic=

>  <r_lp_tautomer_probability>  (65) 
1

>  <r_epik_Ionization_Penalty>  (65) 
2.17797

>  <r_epik_Ionization_Penalty_Charging>  (65) 
1.38611e-09

>  <r_epik_Ionization_Penalty_Neutral>  (65) 
2.17797

>  <r_epik_State_Penalty>  (65) 
2.31809

>  <r_epik_Charging_Adjusted_Penalty>  (65) 
2.31809

>  <i_epik_Tot_Q>  (65) 
0

>  <i_epik_Tot_abs_Q>  (65) 
0

>  <s_epik_Chemistry_Notes>  (65) 
This compound has an imine and may undergo hydrolysis.

>  <s_lp_Force_Field>  (65) 
OPLS3e

>  <r_lp_Energy>  (65) 
139.651

>  <b_lp_Chiralities_Consistent>  (65) 
1

>  <s_lp_Variant>  (65) 
9:0-3

>  <s_i_glide_gridfile>  (65) 
pfpi4k_grid

>  <i_i_glide_lignum>  (65) 
26

>  <i_i_glide_rotatable_bonds>  (65) 
0

>  <r_i_docking_score>  (65) 
-3.50815

>  <r_i_glide_ligand_efficiency>  (65) 
-0.159461

>  <r_i_glide_ligand_efficiency_sa>  (65) 
-0.446817

>  <r_i_glide_ligand_efficiency_ln>  (65) 
-0.85752

>  <r_i_glide_gscore>  (65) 
-3.50815

>  <r_i_glide_lipo>  (65) 
-0.807202

>  <r_i_glide_hbond>  (65) 
0

>  <r_i_glide_metal>  (65) 
-0

>  <r_i_glide_rewards>  (65) 
-1.42428

>  <r_i_glide_evdw>  (65) 
-25.3048

>  <r_i_glide_ecoul>  (65) 
-0.0762379

>  <r_i_glide_erotb>  (65) 
0

>  <r_i_glide_esite>  (65) 
0

>  <r_i_glide_emodel>  (65) 
-30.0933

>  <r_i_glide_energy>  (65) 
-25.381

>  <r_i_glide_einternal>  (65) 
0

>  <r_i_glide_intrahb_reward>  (65) 
-0

>  <i_i_glide_confnum>  (65) 
2

>  <i_i_glide_posenum>  (65) 
4

>  <r_i_glide_eff_state_penalty>  (65) 
0

>  <ligand_id>  (65) 
9

>  <original_smiles>  (65) 
CC1=CC2C3CC4CC1C21C=CC2C=C3N2CCNCCC41

>  <smiles>  (65) 
[H]C1=C(C([H])([H])[H])C2([H])C([H])([H])C3([H])C([H])([H])C4=C5N6C([H])([H])C([H])([H])N([H])C([H])([H])C([H])([H])C3([H])C2(C([H])=C([H])C6([H])C5([H])[H])C14[H]

$$$$
9:3:0
     RDKit          3D

 48 53  0  0  1  0  0  0  0  0999 V2000
    3.7987   -1.0685   -3.1704 C   0  0  0  0  0  0  0  0  0  0  0  0
    4.1627   -1.9601   -1.9935 C   0  0  0  0  0  0  0  0  0  0  0  0
    4.5867   -3.2035   -2.0411 C   0  0  0  0  0  0  0  0  0  0  0  0
    4.5689   -3.7906   -0.6699 C   0  0  1  0  0  0  0  0  0  0  0  0
    6.0187   -3.9969   -0.1390 C   0  0  0  0  0  0  0  0  0  0  0  0
    6.4509   -2.5907    0.5052 C   0  0  0  0  0  0  0  0  0  0  0  0
    5.3212   -1.5658    1.1759 C   0  0  1  0  0  0  0  0  0  0  0  0
    4.9424   -0.6878    0.0282 C   0  0  0  0  0  0  0  0  0  0  0  0
    3.8641   -1.5912   -0.5726 C   0  0  2  0  0  0  0  0  0  0  0  0
    3.5571   -2.9252    0.3160 C   0  0  1  0  0  0  0  0  0  0  0  0
    4.0521   -3.9513    1.3442 C   0  0  0  0  0  0  0  0  0  0  0  0
    5.0362   -4.1222    2.3674 C   0  0  0  0  0  0  0  0  0  0  0  0
    5.8362   -5.4185    2.4050 C   0  0  2  0  0  0  0  0  0  0  0  0
    7.2322   -5.3079    1.7066 C   0  0  0  0  0  0  0  0  0  0  0  0
    6.3198   -5.2265    0.4962 C   0  0  0  0  0  0  0  0  0  0  0  0
    5.4761   -6.1903    1.2352 N   0  0  0  0  0  0  0  0  0  0  0  0
    4.0869   -6.7809    1.3888 C   0  0  0  0  0  0  0  0  0  0  0  0
    3.0050   -6.3981    2.6062 C   0  0  0  0  0  0  0  0  0  0  0  0
    2.8240   -5.1756    3.5224 N   0  0  0  0  0  0  0  0  0  0  0  0
    2.1672   -3.8389    3.1947 C   0  0  0  0  0  0  0  0  0  0  0  0
    3.0335   -2.4334    3.0119 C   0  0  0  0  0  0  0  0  0  0  0  0
    3.7768   -2.0182    1.5513 C   0  0  1  0  0  0  0  0  0  0  0  0
    2.7219   -0.8822   -3.1516 H   0  0  0  0  0  0  0  0  0  0  0  0
    4.0264   -1.5389   -4.1275 H   0  0  0  0  0  0  0  0  0  0  0  0
    4.3025   -0.1019   -3.1086 H   0  0  0  0  0  0  0  0  0  0  0  0
    4.7739   -3.7830   -2.9232 H   0  0  0  0  0  0  0  0  0  0  0  0
    4.1629   -4.7819   -0.8953 H   0  0  0  0  0  0  0  0  0  0  0  0
    7.2129   -2.7352    1.2610 H   0  0  0  0  0  0  0  0  0  0  0  0
    7.0230   -2.0713   -0.2599 H   0  0  0  0  0  0  0  0  0  0  0  0
    5.7615   -0.9637    1.9697 H   0  0  0  0  0  0  0  0  0  0  0  0
    4.5088    0.2505    0.3801 H   0  0  0  0  0  0  0  0  0  0  0  0
    5.7481   -0.4259   -0.6488 H   0  0  0  0  0  0  0  0  0  0  0  0
    2.9599   -1.0009   -0.6651 H   0  0  0  0  0  0  0  0  0  0  0  0
    3.4311   -4.7325    1.0058 H   0  0  0  0  0  0  0  0  0  0  0  0
    5.6088   -3.3197    2.7991 H   0  0  0  0  0  0  0  0  0  0  0  0
    5.8342   -5.9759    3.3399 H   0  0  0  0  0  0  0  0  0  0  0  0
    7.8308   -4.4809    2.0750 H   0  0  0  0  0  0  0  0  0  0  0  0
    3.5954   -6.7077    0.4199 H   0  0  0  0  0  0  0  0  0  0  0  0
    4.2725   -7.8506    1.4912 H   0  0  0  0  0  0  0  0  0  0  0  0
    2.0144   -6.6131    2.2137 H   0  0  0  0  0  0  0  0  0  0  0  0
    3.1743   -7.1819    3.3409 H   0  0  0  0  0  0  0  0  0  0  0  0
    2.4753   -5.4880    4.4131 H   0  0  0  0  0  0  0  0  0  0  0  0
    1.4767   -3.9696    2.3590 H   0  0  0  0  0  0  0  0  0  0  0  0
    1.5089   -3.6551    4.0460 H   0  0  0  0  0  0  0  0  0  0  0  0
    2.3115   -1.6389    3.2126 H   0  0  0  0  0  0  0  0  0  0  0  0
    3.7460   -2.3380    3.8320 H   0  0  0  0  0  0  0  0  0  0  0  0
    3.1679   -1.1099    1.4775 H   0  0  0  0  0  0  0  0  0  0  0  0
    7.8154   -6.2270    1.7941 H   0  0  0  0  0  0  0  0  0  0  0  0
  1  2  1  0
  1 23  1  0
  1 24  1  0
  1 25  1  0
  2  9  1  0
  2  3  2  0
  3  4  1  0
  3 26  1  0
  4 10  1  0
  4  5  1  0
  4 27  1  6
  5 15  2  0
  5  6  1  0
  6  7  1  0
  6 28  1  0
  6 29  1  0
  7 22  1  0
  7  8  1  0
  7 30  1  1
  8  9  1  0
  8 31  1  0
  8 32  1  0
  9 10  1  0
  9 33  1  6
 10 22  1  0
 10 11  1  1
 11 12  2  3
 11 34  1  0
 12 13  1  0
 12 35  1  0
 13 16  1  0
 13 14  1  0
 13 36  1  1
 14 15  1  0
 14 37  1  0
 14 48  1  0
 15 16  1  0
 16 17  1  0
 17 18  1  0
 17 38  1  0
 17 39  1  0
 18 19  1  0
 18 40  1  0
 18 41  1  0
 19 20  1  0
 19 42  1  0
 20 21  1  0
 20 43  1  0
 20 44  1  0
 21 22  1  0
 21 45  1  0
 21 46  1  0
 22 47  1  6
M  END
>  <i_m_ct_stereo_status>  (66) 
1

>  <s_m_source_file>  (66) 
/var/tmp/pbs.5076255.sched01/tmpvv81v907/0tx7qkblw.sdf

>  <i_m_source_file_index>  (66) 
27

>  <i_lp_mmshare_version>  (66) 
48012

>  <i_f3d_flags>  (66) 
2

>  <s_epik_input>  (66) 
W0NIM11DKD1bQ0hdMSlbQ0BASF0yW0NIMl1bQ0BIXShbQ0gyXTMpW0NASF00W0NIMl1bQ0gyXVtOSF1bQ0gyXVtDSDJdTihbQ0BIXShbQ0hdPTUpL1tDSF09W0NIXVw2KUM1W0NASF0zW0NASF0xW0NAXTI0Ng==

>  <s_epik_cmdline>  (66) 
J2VwaWtfcHl0aG9uJywgJy1waHQnLCAnMi4wJywgJy1waCcsICc3LjAnLCAnLXRuJywgJzgnLCAnLW1hJywgJzIwMCcsICctaW1hZScsICc8aW5maWxlLm1hZT4nLCAnLW9tYWUnLCAnPG91dGZpbGUubWFlPic=

>  <r_lp_tautomer_probability>  (66) 
1

>  <r_epik_Ionization_Penalty>  (66) 
2.17797

>  <r_epik_Ionization_Penalty_Charging>  (66) 
1.38611e-09

>  <r_epik_Ionization_Penalty_Neutral>  (66) 
2.17797

>  <r_epik_State_Penalty>  (66) 
2.31809

>  <r_epik_Charging_Adjusted_Penalty>  (66) 
2.31809

>  <i_epik_Tot_Q>  (66) 
0

>  <i_epik_Tot_abs_Q>  (66) 
0

>  <s_epik_Chemistry_Notes>  (66) 
This compound has an imine and may undergo hydrolysis.

>  <s_lp_Force_Field>  (66) 
OPLS3e

>  <r_lp_Energy>  (66) 
458.969

>  <b_lp_Chiralities_Consistent>  (66) 
0

>  <s_lp_Variant>  (66) 
9:0-4

>  <s_i_glide_gridfile>  (66) 
pfpi4k_grid

>  <i_i_glide_lignum>  (66) 
27

>  <i_i_glide_rotatable_bonds>  (66) 
0

>  <r_i_docking_score>  (66) 
-3.60641

>  <r_i_glide_ligand_efficiency>  (66) 
-0.163928

>  <r_i_glide_ligand_efficiency_sa>  (66) 
-0.459332

>  <r_i_glide_ligand_efficiency_ln>  (66) 
-0.881539

>  <r_i_glide_gscore>  (66) 
-3.60641

>  <r_i_glide_lipo>  (66) 
-0.745743

>  <r_i_glide_hbond>  (66) 
0

>  <r_i_glide_metal>  (66) 
-0

>  <r_i_glide_rewards>  (66) 
-1.5206

>  <r_i_glide_evdw>  (66) 
-24.9439

>  <r_i_glide_ecoul>  (66) 
-0.619169

>  <r_i_glide_erotb>  (66) 
0

>  <r_i_glide_esite>  (66) 
0

>  <r_i_glide_emodel>  (66) 
-30.7305

>  <r_i_glide_energy>  (66) 
-25.563

>  <r_i_glide_einternal>  (66) 
0

>  <r_i_glide_intrahb_reward>  (66) 
-0

>  <i_i_glide_confnum>  (66) 
2

>  <i_i_glide_posenum>  (66) 
24

>  <r_i_glide_eff_state_penalty>  (66) 
0

>  <ligand_id>  (66) 
9

>  <original_smiles>  (66) 
CC1=CC2C3CC4CC1C21C=CC2C=C3N2CCNCCC41

>  <smiles>  (66) 
[H]C1=C(C([H])([H])[H])C2([H])C([H])([H])C3([H])C([H])([H])C4=C5N6C([H])([H])C([H])([H])N([H])C([H])([H])C([H])([H])C3([H])C2(C([H])=C([H])C6([H])C5([H])[H])C14[H]

$$$$
9:3:1
     RDKit          3D

 48 53  0  0  1  0  0  0  0  0999 V2000
    2.8161   -2.5984   -3.8939 C   0  0  0  0  0  0  0  0  0  0  0  0
    3.0969   -2.8773   -2.4305 C   0  0  0  0  0  0  0  0  0  0  0  0
    2.2943   -3.4569   -1.5776 C   0  0  0  0  0  0  0  0  0  0  0  0
    2.8517   -3.3665   -0.1966 C   0  0  1  0  0  0  0  0  0  0  0  0
    3.3744   -4.7511    0.3095 C   0  0  0  0  0  0  0  0  0  0  0  0
    4.8778   -4.8749   -0.2351 C   0  0  0  0  0  0  0  0  0  0  0  0
    5.8118   -3.5219   -0.5026 C   0  0  1  0  0  0  0  0  0  0  0  0
    5.5285   -3.1865   -1.9380 C   0  0  0  0  0  0  0  0  0  0  0  0
    4.2795   -2.3150   -1.7046 C   0  0  2  0  0  0  0  0  0  0  0  0
    3.9216   -2.1103   -0.1219 C   0  0  1  0  0  0  0  0  0  0  0  0
    4.0350   -2.6103    1.3212 C   0  0  0  0  0  0  0  0  0  0  0  0
    4.8349   -3.4494    2.1591 C   0  0  0  0  0  0  0  0  0  0  0  0
    4.1360   -4.4126    3.1126 C   0  0  2  0  0  0  0  0  0  0  0  0
    4.0233   -5.8612    2.5365 C   0  0  0  0  0  0  0  0  0  0  0  0
    3.0399   -5.1348    1.6350 C   0  0  0  0  0  0  0  0  0  0  0  0
    2.7146   -4.3452    2.8418 N   0  0  0  0  0  0  0  0  0  0  0  0
    2.1325   -3.0478    3.3714 C   0  0  0  0  0  0  0  0  0  0  0  0
    3.0228   -1.7597    3.9545 C   0  0  0  0  0  0  0  0  0  0  0  0
    4.4670   -1.2802    3.7292 N   0  0  0  0  0  0  0  0  0  0  0  0
    5.0029   -0.4857    2.5456 C   0  0  0  0  0  0  0  0  0  0  0  0
    6.0188   -1.1444    1.4073 C   0  0  0  0  0  0  0  0  0  0  0  0
    5.4462   -2.0252    0.0917 C   0  0  1  0  0  0  0  0  0  0  0  0
    2.7239   -1.5206   -4.0238 H   0  0  0  0  0  0  0  0  0  0  0  0
    1.8706   -3.0397   -4.2166 H   0  0  0  0  0  0  0  0  0  0  0  0
    3.6212   -2.9601   -4.5342 H   0  0  0  0  0  0  0  0  0  0  0  0
    1.3326   -3.8796   -1.8019 H   0  0  0  0  0  0  0  0  0  0  0  0
    1.9335   -3.1447    0.3503 H   0  0  0  0  0  0  0  0  0  0  0  0
    5.4705   -5.5302    0.3940 H   0  0  0  0  0  0  0  0  0  0  0  0
    4.8208   -5.4714   -1.1406 H   0  0  0  0  0  0  0  0  0  0  0  0
    6.8689   -3.7500   -0.3725 H   0  0  0  0  0  0  0  0  0  0  0  0
    6.3385   -2.5958   -2.3619 H   0  0  0  0  0  0  0  0  0  0  0  0
    5.3918   -4.0421   -2.5927 H   0  0  0  0  0  0  0  0  0  0  0  0
    4.4169   -1.3393   -2.1792 H   0  0  0  0  0  0  0  0  0  0  0  0
    3.1382   -2.1638    1.6463 H   0  0  0  0  0  0  0  0  0  0  0  0
    5.8062   -3.8296    1.8912 H   0  0  0  0  0  0  0  0  0  0  0  0
    4.4076   -4.3577    4.1643 H   0  0  0  0  0  0  0  0  0  0  0  0
    4.9754   -6.2595    2.2070 H   0  0  0  0  0  0  0  0  0  0  0  0
    1.4044   -2.6948    2.6417 H   0  0  0  0  0  0  0  0  0  0  0  0
    1.5082   -3.3689    4.2062 H   0  0  0  0  0  0  0  0  0  0  0  0
    2.4030   -0.8756    3.8315 H   0  0  0  0  0  0  0  0  0  0  0  0
    3.0322   -1.9306    5.0272 H   0  0  0  0  0  0  0  0  0  0  0  0
    4.7872   -0.8274    4.5665 H   0  0  0  0  0  0  0  0  0  0  0  0
    4.1849    0.0535    2.0586 H   0  0  0  0  0  0  0  0  0  0  0  0
    5.5913    0.3031    3.0185 H   0  0  0  0  0  0  0  0  0  0  0  0
    6.5481   -0.2941    0.9775 H   0  0  0  0  0  0  0  0  0  0  0  0
    6.8018   -1.7079    1.9105 H   0  0  0  0  0  0  0  0  0  0  0  0
    5.8955   -1.3102   -0.6043 H   0  0  0  0  0  0  0  0  0  0  0  0
    3.5788   -6.5529    3.2533 H   0  0  0  0  0  0  0  0  0  0  0  0
  1  2  1  0
  1 23  1  0
  1 24  1  0
  1 25  1  0
  2  9  1  0
  2  3  2  0
  3  4  1  0
  3 26  1  0
  4 10  1  0
  4  5  1  0
  4 27  1  1
  5 15  2  0
  5  6  1  0
  6  7  1  0
  6 28  1  0
  6 29  1  0
  7 22  1  0
  7  8  1  0
  7 30  1  6
  8  9  1  0
  8 31  1  0
  8 32  1  0
  9 10  1  0
  9 33  1  6
 10 22  1  0
 10 11  1  6
 11 12  2  3
 11 34  1  0
 12 13  1  0
 12 35  1  0
 13 16  1  0
 13 14  1  0
 13 36  1  1
 14 15  1  0
 14 37  1  0
 14 48  1  0
 15 16  1  0
 16 17  1  0
 17 18  1  0
 17 38  1  0
 17 39  1  0
 18 19  1  0
 18 40  1  0
 18 41  1  0
 19 20  1  0
 19 42  1  0
 20 21  1  0
 20 43  1  0
 20 44  1  0
 21 22  1  0
 21 45  1  0
 21 46  1  0
 22 47  1  6
M  END
>  <i_m_ct_stereo_status>  (67) 
1

>  <s_m_source_file>  (67) 
/var/tmp/pbs.5076255.sched01/tmpvv81v907/0tx7qkblw.sdf

>  <i_m_source_file_index>  (67) 
27

>  <i_lp_mmshare_version>  (67) 
48012

>  <i_f3d_flags>  (67) 
2

>  <s_epik_input>  (67) 
W0NIM11DKD1bQ0hdMSlbQ0BASF0yW0NIMl1bQ0BIXShbQ0gyXTMpW0NASF00W0NIMl1bQ0gyXVtOSF1bQ0gyXVtDSDJdTihbQ0BIXShbQ0hdPTUpL1tDSF09W0NIXVw2KUM1W0NASF0zW0NASF0xW0NAXTI0Ng==

>  <s_epik_cmdline>  (67) 
J2VwaWtfcHl0aG9uJywgJy1waHQnLCAnMi4wJywgJy1waCcsICc3LjAnLCAnLXRuJywgJzgnLCAnLW1hJywgJzIwMCcsICctaW1hZScsICc8aW5maWxlLm1hZT4nLCAnLW9tYWUnLCAnPG91dGZpbGUubWFlPic=

>  <r_lp_tautomer_probability>  (67) 
1

>  <r_epik_Ionization_Penalty>  (67) 
2.17797

>  <r_epik_Ionization_Penalty_Charging>  (67) 
1.38611e-09

>  <r_epik_Ionization_Penalty_Neutral>  (67) 
2.17797

>  <r_epik_State_Penalty>  (67) 
2.31809

>  <r_epik_Charging_Adjusted_Penalty>  (67) 
2.31809

>  <i_epik_Tot_Q>  (67) 
0

>  <i_epik_Tot_abs_Q>  (67) 
0

>  <s_epik_Chemistry_Notes>  (67) 
This compound has an imine and may undergo hydrolysis.

>  <s_lp_Force_Field>  (67) 
OPLS3e

>  <r_lp_Energy>  (67) 
458.969

>  <b_lp_Chiralities_Consistent>  (67) 
0

>  <s_lp_Variant>  (67) 
9:0-4

>  <s_i_glide_gridfile>  (67) 
pfpi4k_grid

>  <i_i_glide_lignum>  (67) 
27

>  <i_i_glide_rotatable_bonds>  (67) 
0

>  <r_i_docking_score>  (67) 
-3.48099

>  <r_i_glide_ligand_efficiency>  (67) 
-0.158227

>  <r_i_glide_ligand_efficiency_sa>  (67) 
-0.443358

>  <r_i_glide_ligand_efficiency_ln>  (67) 
-0.850882

>  <r_i_glide_gscore>  (67) 
-3.48099

>  <r_i_glide_lipo>  (67) 
-0.806601

>  <r_i_glide_hbond>  (67) 
0

>  <r_i_glide_metal>  (67) 
-0

>  <r_i_glide_rewards>  (67) 
-1.40159

>  <r_i_glide_evdw>  (67) 
-25.6744

>  <r_i_glide_ecoul>  (67) 
0.0891629

>  <r_i_glide_erotb>  (67) 
0

>  <r_i_glide_esite>  (67) 
-0.00246045

>  <r_i_glide_emodel>  (67) 
-30.5736

>  <r_i_glide_energy>  (67) 
-25.5852

>  <r_i_glide_einternal>  (67) 
0

>  <r_i_glide_intrahb_reward>  (67) 
-0

>  <i_i_glide_confnum>  (67) 
2

>  <i_i_glide_posenum>  (67) 
20

>  <r_i_glide_eff_state_penalty>  (67) 
0

>  <ligand_id>  (67) 
9

>  <original_smiles>  (67) 
CC1=CC2C3CC4CC1C21C=CC2C=C3N2CCNCCC41

>  <smiles>  (67) 
[H]C1=C(C([H])([H])[H])C2([H])C([H])([H])C3([H])C([H])([H])C4=C5N6C([H])([H])C([H])([H])N([H])C([H])([H])C([H])([H])C3([H])C2(C([H])=C([H])C6([H])C5([H])[H])C14[H]

$$$$
9:3:2
     RDKit          3D

 48 53  0  0  1  0  0  0  0  0999 V2000
    3.5045   -1.0402   -3.2884 C   0  0  0  0  0  0  0  0  0  0  0  0
    3.6671   -1.9127   -2.0566 C   0  0  0  0  0  0  0  0  0  0  0  0
    3.2253   -3.1313   -1.8827 C   0  0  0  0  0  0  0  0  0  0  0  0
    3.4064   -3.5478   -0.4616 C   0  0  1  0  0  0  0  0  0  0  0  0
    4.5154   -4.6352   -0.3140 C   0  0  0  0  0  0  0  0  0  0  0  0
    5.9001   -3.8286   -0.2100 C   0  0  0  0  0  0  0  0  0  0  0  0
    5.9585   -2.2963    0.4447 C   0  0  1  0  0  0  0  0  0  0  0  0
    5.7649   -1.4157   -0.7476 C   0  0  0  0  0  0  0  0  0  0  0  0
    4.2349   -1.4054   -0.7634 C   0  0  2  0  0  0  0  0  0  0  0  0
    3.5739   -2.2052    0.4966 C   0  0  1  0  0  0  0  0  0  0  0  0
    3.7136   -3.2816    1.5893 C   0  0  0  0  0  0  0  0  0  0  0  0
    4.6966   -4.0193    2.3068 C   0  0  0  0  0  0  0  0  0  0  0  0
    4.5186   -5.5278    2.4668 C   0  0  2  0  0  0  0  0  0  0  0  0
    5.3114   -6.3654    1.4124 C   0  0  0  0  0  0  0  0  0  0  0  0
    4.2520   -5.7493    0.5149 C   0  0  0  0  0  0  0  0  0  0  0  0
    3.3644   -5.9109    1.6873 N   0  0  0  0  0  0  0  0  0  0  0  0
    2.0924   -5.4591    2.3794 C   0  0  0  0  0  0  0  0  0  0  0  0
    2.0126   -4.4310    3.6988 C   0  0  0  0  0  0  0  0  0  0  0  0
    2.9518   -3.3546    4.2646 N   0  0  0  0  0  0  0  0  0  0  0  0
    3.1525   -1.9212    3.7834 C   0  0  0  0  0  0  0  0  0  0  0  0
    4.5312   -1.4169    3.0017 C   0  0  0  0  0  0  0  0  0  0  0  0
    4.7428   -1.6235    1.3370 C   0  0  1  0  0  0  0  0  0  0  0  0
    2.8548   -0.2025   -3.0339 H   0  0  0  0  0  0  0  0  0  0  0  0
    3.0217   -1.5798   -4.1050 H   0  0  0  0  0  0  0  0  0  0  0  0
    4.4607   -0.6408   -3.6295 H   0  0  0  0  0  0  0  0  0  0  0  0
    2.6869   -3.7264   -2.5959 H   0  0  0  0  0  0  0  0  0  0  0  0
    2.4431   -4.0390   -0.2898 H   0  0  0  0  0  0  0  0  0  0  0  0
    6.6474   -4.4055    0.3203 H   0  0  0  0  0  0  0  0  0  0  0  0
    6.3209   -3.8264   -1.2137 H   0  0  0  0  0  0  0  0  0  0  0  0
    6.9332   -2.1018    0.8950 H   0  0  0  0  0  0  0  0  0  0  0  0
    6.1470   -0.4157   -0.5479 H   0  0  0  0  0  0  0  0  0  0  0  0
    6.2282   -1.7656   -1.6659 H   0  0  0  0  0  0  0  0  0  0  0  0
    3.8917   -0.3723   -0.7352 H   0  0  0  0  0  0  0  0  0  0  0  0
    2.6758   -3.4787    1.6580 H   0  0  0  0  0  0  0  0  0  0  0  0
    5.7474   -3.7728    2.3332 H   0  0  0  0  0  0  0  0  0  0  0  0
    4.5426   -5.9217    3.4812 H   0  0  0  0  0  0  0  0  0  0  0  0
    6.3622   -6.1062    1.3678 H   0  0  0  0  0  0  0  0  0  0  0  0
    1.4146   -5.1123    1.6048 H   0  0  0  0  0  0  0  0  0  0  0  0
    1.6328   -6.3911    2.7105 H   0  0  0  0  0  0  0  0  0  0  0  0
    1.0348   -3.9576    3.6605 H   0  0  0  0  0  0  0  0  0  0  0  0
    1.9448   -5.1149    4.5407 H   0  0  0  0  0  0  0  0  0  0  0  0
    2.8682   -3.3398    5.2679 H   0  0  0  0  0  0  0  0  0  0  0  0
    2.2640   -1.5988    3.2336 H   0  0  0  0  0  0  0  0  0  0  0  0
    3.1187   -1.3327    4.7011 H   0  0  0  0  0  0  0  0  0  0  0  0
    4.5652   -0.3393    3.1772 H   0  0  0  0  0  0  0  0  0  0  0  0
    5.4066   -1.7881    3.5366 H   0  0  0  0  0  0  0  0  0  0  0  0
    4.8221   -0.5390    1.1970 H   0  0  0  0  0  0  0  0  0  0  0  0
    5.2229   -7.4412    1.5742 H   0  0  0  0  0  0  0  0  0  0  0  0
  1  2  1  0
  1 23  1  0
  1 24  1  0
  1 25  1  0
  2  9  1  0
  2  3  2  0
  3  4  1  0
  3 26  1  0
  4 10  1  0
  4  5  1  0
  4 27  1  1
  5 15  2  0
  5  6  1  0
  6  7  1  0
  6 28  1  0
  6 29  1  0
  7 22  1  0
  7  8  1  0
  7 30  1  1
  8  9  1  0
  8 31  1  0
  8 32  1  0
  9 10  1  0
  9 33  1  1
 10 22  1  0
 10 11  1  1
 11 12  2  3
 11 34  1  0
 12 13  1  0
 12 35  1  0
 13 16  1  0
 13 14  1  0
 13 36  1  1
 14 15  1  0
 14 37  1  0
 14 48  1  0
 15 16  1  0
 16 17  1  0
 17 18  1  0
 17 38  1  0
 17 39  1  0
 18 19  1  0
 18 40  1  0
 18 41  1  0
 19 20  1  0
 19 42  1  0
 20 21  1  0
 20 43  1  0
 20 44  1  0
 21 22  1  0
 21 45  1  0
 21 46  1  0
 22 47  1  6
M  END
>  <i_m_ct_stereo_status>  (68) 
1

>  <s_m_source_file>  (68) 
/var/tmp/pbs.5076255.sched01/tmpvv81v907/0tx7qkblw.sdf

>  <i_m_source_file_index>  (68) 
27

>  <i_lp_mmshare_version>  (68) 
48012

>  <i_f3d_flags>  (68) 
2

>  <s_epik_input>  (68) 
W0NIM11DKD1bQ0hdMSlbQ0BASF0yW0NIMl1bQ0BIXShbQ0gyXTMpW0NASF00W0NIMl1bQ0gyXVtOSF1bQ0gyXVtDSDJdTihbQ0BIXShbQ0hdPTUpL1tDSF09W0NIXVw2KUM1W0NASF0zW0NASF0xW0NAXTI0Ng==

>  <s_epik_cmdline>  (68) 
J2VwaWtfcHl0aG9uJywgJy1waHQnLCAnMi4wJywgJy1waCcsICc3LjAnLCAnLXRuJywgJzgnLCAnLW1hJywgJzIwMCcsICctaW1hZScsICc8aW5maWxlLm1hZT4nLCAnLW9tYWUnLCAnPG91dGZpbGUubWFlPic=

>  <r_lp_tautomer_probability>  (68) 
1

>  <r_epik_Ionization_Penalty>  (68) 
2.17797

>  <r_epik_Ionization_Penalty_Charging>  (68) 
1.38611e-09

>  <r_epik_Ionization_Penalty_Neutral>  (68) 
2.17797

>  <r_epik_State_Penalty>  (68) 
2.31809

>  <r_epik_Charging_Adjusted_Penalty>  (68) 
2.31809

>  <i_epik_Tot_Q>  (68) 
0

>  <i_epik_Tot_abs_Q>  (68) 
0

>  <s_epik_Chemistry_Notes>  (68) 
This compound has an imine and may undergo hydrolysis.

>  <s_lp_Force_Field>  (68) 
OPLS3e

>  <r_lp_Energy>  (68) 
458.969

>  <b_lp_Chiralities_Consistent>  (68) 
0

>  <s_lp_Variant>  (68) 
9:0-4

>  <s_i_glide_gridfile>  (68) 
pfpi4k_grid

>  <i_i_glide_lignum>  (68) 
27

>  <i_i_glide_rotatable_bonds>  (68) 
0

>  <r_i_docking_score>  (68) 
-3.19447

>  <r_i_glide_ligand_efficiency>  (68) 
-0.145203

>  <r_i_glide_ligand_efficiency_sa>  (68) 
-0.406865

>  <r_i_glide_ligand_efficiency_ln>  (68) 
-0.780845

>  <r_i_glide_gscore>  (68) 
-3.19447

>  <r_i_glide_lipo>  (68) 
-0.532073

>  <r_i_glide_hbond>  (68) 
0

>  <r_i_glide_metal>  (68) 
-0

>  <r_i_glide_rewards>  (68) 
-1.43489

>  <r_i_glide_evdw>  (68) 
-24.9312

>  <r_i_glide_ecoul>  (68) 
0.127001

>  <r_i_glide_erotb>  (68) 
0

>  <r_i_glide_esite>  (68) 
0

>  <r_i_glide_emodel>  (68) 
-29.383

>  <r_i_glide_energy>  (68) 
-24.8042

>  <r_i_glide_einternal>  (68) 
0

>  <r_i_glide_intrahb_reward>  (68) 
-0

>  <i_i_glide_confnum>  (68) 
2

>  <i_i_glide_posenum>  (68) 
29

>  <r_i_glide_eff_state_penalty>  (68) 
0

>  <ligand_id>  (68) 
9

>  <original_smiles>  (68) 
CC1=CC2C3CC4CC1C21C=CC2C=C3N2CCNCCC41

>  <smiles>  (68) 
[H]C1=C(C([H])([H])[H])C2([H])C([H])([H])C3([H])C([H])([H])C4=C5N6C([H])([H])C([H])([H])N([H])C([H])([H])C([H])([H])C3([H])C2(C([H])=C([H])C6([H])C5([H])[H])C14[H]

$$$$
11:0:0
     RDKit          3D

 34 38  0  0  1  0  0  0  0  0999 V2000
    5.3784   -1.6740    3.3871 C   0  0  0  0  0  0  0  0  0  0  0  0
    5.8591   -0.9040    2.1277 C   0  0  0  0  0  0  0  0  0  0  0  0
    5.5312   -1.4888    0.7193 C   0  0  2  0  0  0  0  0  0  0  0  0
    4.0790   -1.2473    0.2237 C   0  0  2  0  0  0  0  0  0  0  0  0
    3.1855   -1.9740    1.2427 C   0  0  0  0  0  0  0  0  0  0  0  0
    3.0089   -3.2968    1.0834 C   0  0  0  0  0  0  0  0  0  0  0  0
    3.4658   -3.8743   -0.2421 C   0  0  2  0  0  0  0  0  0  0  0  0
    5.0718   -3.8521   -0.3977 C   0  0  1  0  0  0  0  0  0  0  0  0
    5.5832   -3.2646   -1.7585 C   0  0  2  0  0  0  0  0  0  0  0  0
    7.0494   -2.9928   -1.5313 C   0  0  0  0  0  0  0  0  0  0  0  0
    7.2783   -2.8971   -0.2088 C   0  0  0  0  0  0  0  0  0  0  0  0
    5.9803   -2.9760    0.5445 C   0  0  1  0  0  0  0  0  0  0  0  0
    4.6686   -2.0594   -2.1577 C   0  0  0  0  0  0  0  0  0  0  0  0
    3.9340   -2.5341   -3.1608 N   0  0  0  0  0  0  0  0  0  0  0  0
    2.8475   -3.1326   -2.5859 C   0  0  0  0  0  0  0  0  0  0  0  0
    2.9237   -2.9359   -1.2394 N   0  0  0  0  0  0  0  0  0  0  0  0
    3.6795   -1.8095   -1.1628 C   0  0  0  0  0  0  0  0  0  0  0  0
    5.7847   -1.2193    4.2920 H   0  0  0  0  0  0  0  0  0  0  0  0
    5.6942   -2.7210    3.3944 H   0  0  0  0  0  0  0  0  0  0  0  0
    4.2939   -1.6607    3.5195 H   0  0  0  0  0  0  0  0  0  0  0  0
    5.4924    0.1156    2.1730 H   0  0  0  0  0  0  0  0  0  0  0  0
    6.9369   -0.8083    2.1928 H   0  0  0  0  0  0  0  0  0  0  0  0
    6.1133   -0.8673    0.0266 H   0  0  0  0  0  0  0  0  0  0  0  0
    3.8389   -0.1860    0.2271 H   0  0  0  0  0  0  0  0  0  0  0  0
    2.7609   -1.3892    2.0568 H   0  0  0  0  0  0  0  0  0  0  0  0
    2.4265   -3.9126    1.7660 H   0  0  0  0  0  0  0  0  0  0  0  0
    3.0282   -4.8502   -0.4259 H   0  0  0  0  0  0  0  0  0  0  0  0
    5.4151   -4.8790   -0.3081 H   0  0  0  0  0  0  0  0  0  0  0  0
    5.5443   -4.0573   -2.5123 H   0  0  0  0  0  0  0  0  0  0  0  0
    7.8019   -2.9920   -2.3053 H   0  0  0  0  0  0  0  0  0  0  0  0
    8.2322   -2.7371    0.2529 H   0  0  0  0  0  0  0  0  0  0  0  0
    6.1408   -3.5162    1.4691 H   0  0  0  0  0  0  0  0  0  0  0  0
    2.2109   -3.8647   -3.0620 H   0  0  0  0  0  0  0  0  0  0  0  0
    4.3542   -2.7218   -4.0485 H   0  0  0  0  0  0  0  0  0  0  0  0
  1  2  1  0
  1 18  1  0
  1 19  1  0
  1 20  1  0
  2  3  1  0
  2 21  1  0
  2 22  1  0
  3 12  1  0
  3  4  1  0
  3 23  1  6
  4 17  1  0
  4  5  1  0
  4 24  1  6
  5  6  2  0
  5 25  1  0
  6  7  1  0
  6 26  1  0
  7 16  1  0
  7  8  1  0
  7 27  1  6
  8 12  1  0
  8  9  1  0
  8 28  1  6
  9 10  1  0
  9 13  1  0
  9 29  1  6
 10 11  2  0
 10 30  1  0
 11 12  1  0
 11 31  1  0
 12 32  1  1
 13 17  2  0
 13 14  1  0
 14 15  2  0
 14 34  1  0
 15 16  1  0
 15 33  1  0
 16 17  1  0
M  CHG  1  14   1
M  END
>  <i_m_ct_stereo_status>  (69) 
1

>  <s_m_source_file>  (69) 
/var/tmp/pbs.5076255.sched01/tmpvv81v907/0tx7qkblw.sdf

>  <i_m_source_file_index>  (69) 
29

>  <i_lp_mmshare_version>  (69) 
48012

>  <i_f3d_flags>  (69) 
0

>  <s_epik_input>  (69) 
W0NIM11bQ0gyXVtDQEhdMVtDQEhdKFtDSF09W0NIXTIpW0NAQEhdKFtDQEBIXShbQ0hdPVtDSF0zKW40W2NIXW41KVtDQEhdMmM1YzRbQ0BIXTEz

>  <s_epik_cmdline>  (69) 
J2VwaWtfcHl0aG9uJywgJy1waHQnLCAnMi4wJywgJy1waCcsICc3LjAnLCAnLXRuJywgJzgnLCAnLW1hJywgJzIwMCcsICctaW1hZScsICc8aW5maWxlLm1hZT4nLCAnLW9tYWUnLCAnPG91dGZpbGUubWFlPic=

>  <r_lp_tautomer_probability>  (69) 
1

>  <r_epik_Ionization_Penalty>  (69) 
0.0192325

>  <r_epik_Ionization_Penalty_Charging>  (69) 
0

>  <r_epik_Ionization_Penalty_Neutral>  (69) 
0.0192325

>  <r_epik_State_Penalty>  (69) 
0.015349

>  <r_epik_Charging_Adjusted_Penalty>  (69) 
0.015349

>  <i_epik_Tot_Q>  (69) 
1

>  <i_epik_Tot_abs_Q>  (69) 
1

>  <s_lp_Force_Field>  (69) 
OPLS3e

>  <r_lp_Energy>  (69) 
140.277

>  <b_lp_Chiralities_Consistent>  (69) 
1

>  <s_lp_Variant>  (69) 
11:0-1

>  <s_i_glide_gridfile>  (69) 
pfpi4k_grid

>  <i_i_glide_lignum>  (69) 
29

>  <i_i_glide_rotatable_bonds>  (69) 
1

>  <r_i_docking_score>  (69) 
-4.03692

>  <r_i_glide_ligand_efficiency>  (69) 
-0.237466

>  <r_i_glide_ligand_efficiency_sa>  (69) 
-0.610592

>  <r_i_glide_ligand_efficiency_ln>  (69) 
-1.05314

>  <r_i_glide_gscore>  (69) 
-4.03692

>  <r_i_glide_lipo>  (69) 
-0.572908

>  <r_i_glide_hbond>  (69) 
0

>  <r_i_glide_metal>  (69) 
-0

>  <r_i_glide_rewards>  (69) 
-1.87289

>  <r_i_glide_evdw>  (69) 
-19.0513

>  <r_i_glide_ecoul>  (69) 
-4.0481

>  <r_i_glide_erotb>  (69) 
0

>  <r_i_glide_esite>  (69) 
-0.03134

>  <r_i_glide_emodel>  (69) 
-26.4366

>  <r_i_glide_energy>  (69) 
-23.0994

>  <r_i_glide_einternal>  (69) 
4.50828

>  <r_i_glide_intrahb_reward>  (69) 
-0

>  <i_i_glide_confnum>  (69) 
1

>  <i_i_glide_posenum>  (69) 
18

>  <r_i_glide_eff_state_penalty>  (69) 
0

>  <ligand_id>  (69) 
11

>  <original_smiles>  (69) 
CCC1C2C=CC3C4C(C=CC14)c1ncn3c12

>  <smiles>  (69) 
[H]C1=C([H])C2([H])C3([H])C1([H])c1c4n(c([H])[n+]1[H])C3([H])C([H])=C([H])C4([H])C2([H])C([H])([H])C([H])([H])[H]

$$$$
11:0:1
     RDKit          3D

 34 38  0  0  1  0  0  0  0  0999 V2000
    7.6055   -5.9680    1.0370 C   0  0  0  0  0  0  0  0  0  0  0  0
    6.1038   -5.6789    1.1804 C   0  0  0  0  0  0  0  0  0  0  0  0
    5.7442   -4.1635    1.2288 C   0  0  2  0  0  0  0  0  0  0  0  0
    4.3109   -3.8943    1.7291 C   0  0  2  0  0  0  0  0  0  0  0  0
    3.4004   -4.6200    0.7238 C   0  0  0  0  0  0  0  0  0  0  0  0
    3.0273   -3.9402   -0.3738 C   0  0  0  0  0  0  0  0  0  0  0  0
    3.4079   -2.4811   -0.4131 C   0  0  2  0  0  0  0  0  0  0  0  0
    5.0086   -2.2757   -0.4916 C   0  0  1  0  0  0  0  0  0  0  0  0
    5.5753   -1.2213    0.5192 C   0  0  2  0  0  0  0  0  0  0  0  0
    7.0547   -1.4806    0.5293 C   0  0  0  0  0  0  0  0  0  0  0  0
    7.2980   -2.7144    0.0761 C   0  0  0  0  0  0  0  0  0  0  0  0
    6.0016   -3.4493   -0.1360 C   0  0  1  0  0  0  0  0  0  0  0  0
    4.7906   -1.3532    1.8639 C   0  0  0  0  0  0  0  0  0  0  0  0
    3.9962   -0.2691    1.8725 N   0  0  0  0  0  0  0  0  0  0  0  0
    2.8796   -0.6393    1.1971 C   0  0  0  0  0  0  0  0  0  0  0  0
    2.9484   -1.9549    0.8818 N   0  0  0  0  0  0  0  0  0  0  0  0
    3.8348   -2.4171    1.8094 C   0  0  0  0  0  0  0  0  0  0  0  0
    7.8122   -7.0371    1.0984 H   0  0  0  0  0  0  0  0  0  0  0  0
    8.1757   -5.4829    1.8280 H   0  0  0  0  0  0  0  0  0  0  0  0
    7.9876   -5.6213    0.0819 H   0  0  0  0  0  0  0  0  0  0  0  0
    5.5733   -6.1855    0.3727 H   0  0  0  0  0  0  0  0  0  0  0  0
    5.7607   -6.1629    2.0949 H   0  0  0  0  0  0  0  0  0  0  0  0
    6.3819   -3.7410    2.0105 H   0  0  0  0  0  0  0  0  0  0  0  0
    4.1641   -4.3363    2.7090 H   0  0  0  0  0  0  0  0  0  0  0  0
    3.1217   -5.6516    0.9037 H   0  0  0  0  0  0  0  0  0  0  0  0
    2.3949   -4.3471   -1.1508 H   0  0  0  0  0  0  0  0  0  0  0  0
    2.8843   -1.9377   -1.1951 H   0  0  0  0  0  0  0  0  0  0  0  0
    5.2466   -1.9632   -1.5033 H   0  0  0  0  0  0  0  0  0  0  0  0
    5.4568   -0.2286    0.0826 H   0  0  0  0  0  0  0  0  0  0  0  0
    7.8038   -0.7493    0.7893 H   0  0  0  0  0  0  0  0  0  0  0  0
    8.2676   -3.1648   -0.0222 H   0  0  0  0  0  0  0  0  0  0  0  0
    6.0730   -4.1470   -0.9680 H   0  0  0  0  0  0  0  0  0  0  0  0
    2.1731    0.0464    0.7526 H   0  0  0  0  0  0  0  0  0  0  0  0
    4.3392    0.6521    2.0400 H   0  0  0  0  0  0  0  0  0  0  0  0
  1  2  1  0
  1 18  1  0
  1 19  1  0
  1 20  1  0
  2  3  1  0
  2 21  1  0
  2 22  1  0
  3 12  1  0
  3  4  1  0
  3 23  1  1
  4 17  1  0
  4  5  1  0
  4 24  1  1
  5  6  2  0
  5 25  1  0
  6  7  1  0
  6 26  1  0
  7 16  1  0
  7  8  1  0
  7 27  1  6
  8 12  1  0
  8  9  1  0
  8 28  1  6
  9 10  1  0
  9 13  1  0
  9 29  1  6
 10 11  2  0
 10 30  1  0
 11 12  1  0
 11 31  1  0
 12 32  1  6
 13 17  2  0
 13 14  1  0
 14 15  2  0
 14 34  1  0
 15 16  1  0
 15 33  1  0
 16 17  1  0
M  CHG  1  14   1
M  END
>  <i_m_ct_stereo_status>  (70) 
1

>  <s_m_source_file>  (70) 
/var/tmp/pbs.5076255.sched01/tmpvv81v907/0tx7qkblw.sdf

>  <i_m_source_file_index>  (70) 
29

>  <i_lp_mmshare_version>  (70) 
48012

>  <i_f3d_flags>  (70) 
0

>  <s_epik_input>  (70) 
W0NIM11bQ0gyXVtDQEhdMVtDQEhdKFtDSF09W0NIXTIpW0NAQEhdKFtDQEBIXShbQ0hdPVtDSF0zKW40W2NIXW41KVtDQEhdMmM1YzRbQ0BIXTEz

>  <s_epik_cmdline>  (70) 
J2VwaWtfcHl0aG9uJywgJy1waHQnLCAnMi4wJywgJy1waCcsICc3LjAnLCAnLXRuJywgJzgnLCAnLW1hJywgJzIwMCcsICctaW1hZScsICc8aW5maWxlLm1hZT4nLCAnLW9tYWUnLCAnPG91dGZpbGUubWFlPic=

>  <r_lp_tautomer_probability>  (70) 
1

>  <r_epik_Ionization_Penalty>  (70) 
0.0192325

>  <r_epik_Ionization_Penalty_Charging>  (70) 
0

>  <r_epik_Ionization_Penalty_Neutral>  (70) 
0.0192325

>  <r_epik_State_Penalty>  (70) 
0.015349

>  <r_epik_Charging_Adjusted_Penalty>  (70) 
0.015349

>  <i_epik_Tot_Q>  (70) 
1

>  <i_epik_Tot_abs_Q>  (70) 
1

>  <s_lp_Force_Field>  (70) 
OPLS3e

>  <r_lp_Energy>  (70) 
140.277

>  <b_lp_Chiralities_Consistent>  (70) 
1

>  <s_lp_Variant>  (70) 
11:0-1

>  <s_i_glide_gridfile>  (70) 
pfpi4k_grid

>  <i_i_glide_lignum>  (70) 
29

>  <i_i_glide_rotatable_bonds>  (70) 
1

>  <r_i_docking_score>  (70) 
-3.94212

>  <r_i_glide_ligand_efficiency>  (70) 
-0.231889

>  <r_i_glide_ligand_efficiency_sa>  (70) 
-0.596253

>  <r_i_glide_ligand_efficiency_ln>  (70) 
-1.02841

>  <r_i_glide_gscore>  (70) 
-3.94212

>  <r_i_glide_lipo>  (70) 
-0.524602

>  <r_i_glide_hbond>  (70) 
0

>  <r_i_glide_metal>  (70) 
-0

>  <r_i_glide_rewards>  (70) 
-1.87289

>  <r_i_glide_evdw>  (70) 
-15.3108

>  <r_i_glide_ecoul>  (70) 
-4.47962

>  <r_i_glide_erotb>  (70) 
0

>  <r_i_glide_esite>  (70) 
-0.107143

>  <r_i_glide_emodel>  (70) 
-25.7524

>  <r_i_glide_energy>  (70) 
-19.7904

>  <r_i_glide_einternal>  (70) 
0.0247455

>  <r_i_glide_intrahb_reward>  (70) 
-0

>  <i_i_glide_confnum>  (70) 
1

>  <i_i_glide_posenum>  (70) 
1

>  <r_i_glide_eff_state_penalty>  (70) 
0

>  <ligand_id>  (70) 
11

>  <original_smiles>  (70) 
CCC1C2C=CC3C4C(C=CC14)c1ncn3c12

>  <smiles>  (70) 
[H]C1=C([H])C2([H])C3([H])C1([H])c1c4n(c([H])[n+]1[H])C3([H])C([H])=C([H])C4([H])C2([H])C([H])([H])C([H])([H])[H]

$$$$
11:0:2
     RDKit          3D

 34 38  0  0  1  0  0  0  0  0999 V2000
    5.1267   -0.1537    2.9938 C   0  0  0  0  0  0  0  0  0  0  0  0
    5.3708   -1.6176    2.5921 C   0  0  0  0  0  0  0  0  0  0  0  0
    5.1271   -1.9473    1.0914 C   0  0  2  0  0  0  0  0  0  0  0  0
    3.6702   -1.7510    0.6597 C   0  0  2  0  0  0  0  0  0  0  0  0
    2.8574   -2.6868    1.5739 C   0  0  0  0  0  0  0  0  0  0  0  0
    2.6926   -3.9547    1.1771 C   0  0  0  0  0  0  0  0  0  0  0  0
    3.1653   -4.2712   -0.2289 C   0  0  2  0  0  0  0  0  0  0  0  0
    4.7663   -4.1550   -0.3590 C   0  0  1  0  0  0  0  0  0  0  0  0
    5.2637   -3.3382   -1.5991 C   0  0  2  0  0  0  0  0  0  0  0  0
    6.7014   -3.0358   -1.3027 C   0  0  0  0  0  0  0  0  0  0  0  0
    6.9167   -3.1541    0.0106 C   0  0  0  0  0  0  0  0  0  0  0  0
    5.6170   -3.3888    0.7281 C   0  0  1  0  0  0  0  0  0  0  0  0
    4.3038   -2.1249   -1.8166 C   0  0  0  0  0  0  0  0  0  0  0  0
    3.5890   -2.4762   -2.8902 N   0  0  0  0  0  0  0  0  0  0  0  0
    2.5445   -3.2121   -2.4236 C   0  0  0  0  0  0  0  0  0  0  0  0
    2.5833   -3.2140   -1.0560 N   0  0  0  0  0  0  0  0  0  0  0  0
    3.3020   -2.0965   -0.8028 C   0  0  0  0  0  0  0  0  0  0  0  0
    5.2904   -0.0028    4.0624 H   0  0  0  0  0  0  0  0  0  0  0  0
    4.1086    0.1776    2.7851 H   0  0  0  0  0  0  0  0  0  0  0  0
    5.8150    0.5058    2.4740 H   0  0  0  0  0  0  0  0  0  0  0  0
    6.4043   -1.8367    2.8200 H   0  0  0  0  0  0  0  0  0  0  0  0
    4.7992   -2.2670    3.2551 H   0  0  0  0  0  0  0  0  0  0  0  0
    5.7009   -1.2060    0.5271 H   0  0  0  0  0  0  0  0  0  0  0  0
    3.3408   -0.7311    0.8114 H   0  0  0  0  0  0  0  0  0  0  0  0
    2.4857   -2.2967    2.5155 H   0  0  0  0  0  0  0  0  0  0  0  0
    2.1425   -4.7025    1.7368 H   0  0  0  0  0  0  0  0  0  0  0  0
    2.7557   -5.2110   -0.5802 H   0  0  0  0  0  0  0  0  0  0  0  0
    5.1500   -5.1646   -0.4275 H   0  0  0  0  0  0  0  0  0  0  0  0
    5.2637   -3.9955   -2.4695 H   0  0  0  0  0  0  0  0  0  0  0  0
    7.4561   -2.8767   -2.0582 H   0  0  0  0  0  0  0  0  0  0  0  0
    7.8568   -3.0228    0.5031 H   0  0  0  0  0  0  0  0  0  0  0  0
    5.7594   -4.0207    1.6016 H   0  0  0  0  0  0  0  0  0  0  0  0
    1.9320   -3.8599   -3.0122 H   0  0  0  0  0  0  0  0  0  0  0  0
    3.9785   -2.4537   -3.8065 H   0  0  0  0  0  0  0  0  0  0  0  0
  1  2  1  0
  1 18  1  0
  1 19  1  0
  1 20  1  0
  2  3  1  0
  2 21  1  0
  2 22  1  0
  3 12  1  0
  3  4  1  0
  3 23  1  6
  4 17  1  0
  4  5  1  0
  4 24  1  1
  5  6  2  0
  5 25  1  0
  6  7  1  0
  6 26  1  0
  7 16  1  0
  7  8  1  0
  7 27  1  6
  8 12  1  0
  8  9  1  0
  8 28  1  6
  9 10  1  0
  9 13  1  0
  9 29  1  6
 10 11  2  0
 10 30  1  0
 11 12  1  0
 11 31  1  0
 12 32  1  1
 13 17  2  0
 13 14  1  0
 14 15  2  0
 14 34  1  0
 15 16  1  0
 15 33  1  0
 16 17  1  0
M  CHG  1  14   1
M  END
>  <i_m_ct_stereo_status>  (71) 
1

>  <s_m_source_file>  (71) 
/var/tmp/pbs.5076255.sched01/tmpvv81v907/0tx7qkblw.sdf

>  <i_m_source_file_index>  (71) 
29

>  <i_lp_mmshare_version>  (71) 
48012

>  <i_f3d_flags>  (71) 
0

>  <s_epik_input>  (71) 
W0NIM11bQ0gyXVtDQEhdMVtDQEhdKFtDSF09W0NIXTIpW0NAQEhdKFtDQEBIXShbQ0hdPVtDSF0zKW40W2NIXW41KVtDQEhdMmM1YzRbQ0BIXTEz

>  <s_epik_cmdline>  (71) 
J2VwaWtfcHl0aG9uJywgJy1waHQnLCAnMi4wJywgJy1waCcsICc3LjAnLCAnLXRuJywgJzgnLCAnLW1hJywgJzIwMCcsICctaW1hZScsICc8aW5maWxlLm1hZT4nLCAnLW9tYWUnLCAnPG91dGZpbGUubWFlPic=

>  <r_lp_tautomer_probability>  (71) 
1

>  <r_epik_Ionization_Penalty>  (71) 
0.0192325

>  <r_epik_Ionization_Penalty_Charging>  (71) 
0

>  <r_epik_Ionization_Penalty_Neutral>  (71) 
0.0192325

>  <r_epik_State_Penalty>  (71) 
0.015349

>  <r_epik_Charging_Adjusted_Penalty>  (71) 
0.015349

>  <i_epik_Tot_Q>  (71) 
1

>  <i_epik_Tot_abs_Q>  (71) 
1

>  <s_lp_Force_Field>  (71) 
OPLS3e

>  <r_lp_Energy>  (71) 
140.277

>  <b_lp_Chiralities_Consistent>  (71) 
1

>  <s_lp_Variant>  (71) 
11:0-1

>  <s_i_glide_gridfile>  (71) 
pfpi4k_grid

>  <i_i_glide_lignum>  (71) 
29

>  <i_i_glide_rotatable_bonds>  (71) 
1

>  <r_i_docking_score>  (71) 
-3.84225

>  <r_i_glide_ligand_efficiency>  (71) 
-0.226014

>  <r_i_glide_ligand_efficiency_sa>  (71) 
-0.581147

>  <r_i_glide_ligand_efficiency_ln>  (71) 
-1.00236

>  <r_i_glide_gscore>  (71) 
-3.84225

>  <r_i_glide_lipo>  (71) 
-0.598207

>  <r_i_glide_hbond>  (71) 
0

>  <r_i_glide_metal>  (71) 
-0

>  <r_i_glide_rewards>  (71) 
-1.97572

>  <r_i_glide_evdw>  (71) 
-14.2523

>  <r_i_glide_ecoul>  (71) 
-3.65404

>  <r_i_glide_erotb>  (71) 
0

>  <r_i_glide_esite>  (71) 
-0.00759243

>  <r_i_glide_emodel>  (71) 
-23.269

>  <r_i_glide_energy>  (71) 
-17.9064

>  <r_i_glide_einternal>  (71) 
0.500725

>  <r_i_glide_intrahb_reward>  (71) 
-0

>  <i_i_glide_confnum>  (71) 
1

>  <i_i_glide_posenum>  (71) 
23

>  <r_i_glide_eff_state_penalty>  (71) 
0

>  <ligand_id>  (71) 
11

>  <original_smiles>  (71) 
CCC1C2C=CC3C4C(C=CC14)c1ncn3c12

>  <smiles>  (71) 
[H]C1=C([H])C2([H])C3([H])C1([H])c1c4n(c([H])[n+]1[H])C3([H])C([H])=C([H])C4([H])C2([H])C([H])([H])C([H])([H])[H]

$$$$
11:1:0
     RDKit          3D

 33 37  0  0  1  0  0  0  0  0999 V2000
    4.2779   -1.4016   -3.1848 C   0  0  0  0  0  0  0  0  0  0  0  0
    4.8012   -2.8574   -3.0432 C   0  0  0  0  0  0  0  0  0  0  0  0
    5.3284   -3.3257   -1.6523 C   0  0  2  0  0  0  0  0  0  0  0  0
    4.2343   -3.6892   -0.6207 C   0  0  2  0  0  0  0  0  0  0  0  0
    3.4625   -2.3929   -0.3875 C   0  0  0  0  0  0  0  0  0  0  0  0
    3.9575   -1.5093    0.5009 C   0  0  0  0  0  0  0  0  0  0  0  0
    5.0839   -2.0273    1.3657 C   0  0  2  0  0  0  0  0  0  0  0  0
    6.4327   -2.2717    0.5128 C   0  0  1  0  0  0  0  0  0  0  0  0
    7.0954   -3.6626    0.7809 C   0  0  2  0  0  0  0  0  0  0  0  0
    8.0808   -3.8376   -0.3414 C   0  0  0  0  0  0  0  0  0  0  0  0
    7.7354   -3.0584   -1.3544 C   0  0  0  0  0  0  0  0  0  0  0  0
    6.4187   -2.3808   -1.0582 C   0  0  1  0  0  0  0  0  0  0  0  0
    5.9781   -4.7501    0.9463 C   0  0  0  0  0  0  0  0  0  0  0  0
    6.0025   -5.0653    2.2763 N   0  0  0  0  0  0  0  0  0  0  0  0
    5.1737   -4.1233    2.7725 C   0  0  0  0  0  0  0  0  0  0  0  0
    4.6426   -3.3446    1.8080 N   0  0  0  0  0  0  0  0  0  0  0  0
    4.6679   -4.2285    0.7727 C   0  0  0  0  0  0  0  0  0  0  0  0
    4.0688   -1.1587   -4.2263 H   0  0  0  0  0  0  0  0  0  0  0  0
    4.9900   -0.6607   -2.8269 H   0  0  0  0  0  0  0  0  0  0  0  0
    3.3450   -1.2277   -2.6539 H   0  0  0  0  0  0  0  0  0  0  0  0
    4.0337   -3.5492   -3.3826 H   0  0  0  0  0  0  0  0  0  0  0  0
    5.6151   -3.0034   -3.7496 H   0  0  0  0  0  0  0  0  0  0  0  0
    5.7832   -4.2990   -1.8583 H   0  0  0  0  0  0  0  0  0  0  0  0
    3.5435   -4.4143   -1.0575 H   0  0  0  0  0  0  0  0  0  0  0  0
    2.5826   -2.2137   -0.9819 H   0  0  0  0  0  0  0  0  0  0  0  0
    3.5078   -0.5514    0.6930 H   0  0  0  0  0  0  0  0  0  0  0  0
    5.2476   -1.3889    2.2355 H   0  0  0  0  0  0  0  0  0  0  0  0
    7.1376   -1.4863    0.7711 H   0  0  0  0  0  0  0  0  0  0  0  0
    7.7081   -3.5932    1.6805 H   0  0  0  0  0  0  0  0  0  0  0  0
    8.9612   -4.4647   -0.2640 H   0  0  0  0  0  0  0  0  0  0  0  0
    8.2659   -2.9849   -2.2956 H   0  0  0  0  0  0  0  0  0  0  0  0
    6.4136   -1.3878   -1.4764 H   0  0  0  0  0  0  0  0  0  0  0  0
    5.2325   -3.7950    3.7994 H   0  0  0  0  0  0  0  0  0  0  0  0
  1  2  1  0
  1 18  1  0
  1 19  1  0
  1 20  1  0
  2  3  1  0
  2 21  1  0
  2 22  1  0
  3 12  1  0
  3  4  1  0
  3 23  1  6
  4 17  1  0
  4  5  1  0
  4 24  1  6
  5  6  2  0
  5 25  1  0
  6  7  1  0
  6 26  1  0
  7 16  1  0
  7  8  1  0
  7 27  1  1
  8 12  1  0
  8  9  1  0
  8 28  1  6
  9 10  1  0
  9 13  1  0
  9 29  1  1
 10 11  2  0
 10 30  1  0
 11 12  1  0
 11 31  1  0
 12 32  1  6
 13 17  2  0
 13 14  1  0
 14 15  2  0
 15 16  1  0
 15 33  1  0
 16 17  1  0
M  END
>  <i_m_ct_stereo_status>  (72) 
1

>  <s_m_source_file>  (72) 
/var/tmp/pbs.5076255.sched01/tmpvv81v907/0tx7qkblw.sdf

>  <i_m_source_file_index>  (72) 
30

>  <i_lp_mmshare_version>  (72) 
48012

>  <i_f3d_flags>  (72) 
0

>  <s_epik_input>  (72) 
W0NIM11bQ0gyXVtDQEhdMVtDQEhdKFtDSF09W0NIXTIpW0NAQEhdKFtDQEBIXShbQ0hdPVtDSF0zKW40W2NIXW41KVtDQEhdMmM1YzRbQ0BIXTEz

>  <s_epik_cmdline>  (72) 
J2VwaWtfcHl0aG9uJywgJy1waHQnLCAnMi4wJywgJy1waCcsICc3LjAnLCAnLXRuJywgJzgnLCAnLW1hJywgJzIwMCcsICctaW1hZScsICc8aW5maWxlLm1hZT4nLCAnLW9tYWUnLCAnPG91dGZpbGUubWFlPic=

>  <r_lp_tautomer_probability>  (72) 
1

>  <r_epik_Ionization_Penalty>  (72) 
2.04047

>  <r_epik_Ionization_Penalty_Charging>  (72) 
2.04047

>  <r_epik_Ionization_Penalty_Neutral>  (72) 
1.49187e-13

>  <r_epik_State_Penalty>  (72) 
2.17217

>  <r_epik_Charging_Adjusted_Penalty>  (72) 
4.21264

>  <i_epik_Tot_Q>  (72) 
0

>  <i_epik_Tot_abs_Q>  (72) 
0

>  <s_lp_Force_Field>  (72) 
OPLS3e

>  <r_lp_Energy>  (72) 
130.354

>  <b_lp_Chiralities_Consistent>  (72) 
1

>  <s_lp_Variant>  (72) 
11:0-2

>  <s_i_glide_gridfile>  (72) 
pfpi4k_grid

>  <i_i_glide_lignum>  (72) 
30

>  <i_i_glide_rotatable_bonds>  (72) 
1

>  <r_i_docking_score>  (72) 
-3.80532

>  <r_i_glide_ligand_efficiency>  (72) 
-0.223842

>  <r_i_glide_ligand_efficiency_sa>  (72) 
-0.575561

>  <r_i_glide_ligand_efficiency_ln>  (72) 
-0.992722

>  <r_i_glide_gscore>  (72) 
-3.80532

>  <r_i_glide_lipo>  (72) 
-0.813599

>  <r_i_glide_hbond>  (72) 
0

>  <r_i_glide_metal>  (72) 
-0

>  <r_i_glide_rewards>  (72) 
-1.94991

>  <r_i_glide_evdw>  (72) 
-17.8353

>  <r_i_glide_ecoul>  (72) 
-1.00031

>  <r_i_glide_erotb>  (72) 
0

>  <r_i_glide_esite>  (72) 
0

>  <r_i_glide_emodel>  (72) 
-20.4073

>  <r_i_glide_energy>  (72) 
-18.8356

>  <r_i_glide_einternal>  (72) 
4.43224

>  <r_i_glide_intrahb_reward>  (72) 
-0

>  <i_i_glide_confnum>  (72) 
1

>  <i_i_glide_posenum>  (72) 
18

>  <r_i_glide_eff_state_penalty>  (72) 
0

>  <ligand_id>  (72) 
11

>  <original_smiles>  (72) 
CCC1C2C=CC3C4C(C=CC14)c1ncn3c12

>  <smiles>  (72) 
[H]C1=C([H])C2([H])C3([H])C1([H])c1nc([H])n4c1C([H])(C([H])=C([H])C43[H])C2([H])C([H])([H])C([H])([H])[H]

$$$$
11:1:1
     RDKit          3D

 33 37  0  0  1  0  0  0  0  0999 V2000
    3.9905   -1.0423   -4.0313 C   0  0  0  0  0  0  0  0  0  0  0  0
    3.8881   -0.6611   -2.5359 C   0  0  0  0  0  0  0  0  0  0  0  0
    4.6089   -1.6065   -1.5240 C   0  0  2  0  0  0  0  0  0  0  0  0
    4.5223   -3.0936   -1.8862 C   0  0  2  0  0  0  0  0  0  0  0  0
    3.0202   -3.3955   -1.9131 C   0  0  0  0  0  0  0  0  0  0  0  0
    2.4385   -3.7739   -0.7656 C   0  0  0  0  0  0  0  0  0  0  0  0
    3.3636   -4.0115    0.3987 C   0  0  2  0  0  0  0  0  0  0  0  0
    4.0691   -2.6446    0.8818 C   0  0  1  0  0  0  0  0  0  0  0  0
    5.6092   -2.7824    1.1021 C   0  0  2  0  0  0  0  0  0  0  0  0
    6.1048   -1.3678    1.1666 C   0  0  0  0  0  0  0  0  0  0  0  0
    5.2216   -0.5630    0.5855 C   0  0  0  0  0  0  0  0  0  0  0  0
    4.1184   -1.3660   -0.0508 C   0  0  1  0  0  0  0  0  0  0  0  0
    6.1969   -3.6921   -0.0250 C   0  0  0  0  0  0  0  0  0  0  0  0
    6.5492   -4.8514    0.6024 N   0  0  0  0  0  0  0  0  0  0  0  0
    5.3810   -5.5212    0.5457 C   0  0  0  0  0  0  0  0  0  0  0  0
    4.4300   -4.8513   -0.1344 N   0  0  0  0  0  0  0  0  0  0  0  0
    5.2220   -4.1265   -0.9632 C   0  0  0  0  0  0  0  0  0  0  0  0
    3.4204   -0.3377   -4.6481 H   0  0  0  0  0  0  0  0  0  0  0  0
    3.5580   -2.0272   -4.2368 H   0  0  0  0  0  0  0  0  0  0  0  0
    5.0165   -1.0550   -4.3812 H   0  0  0  0  0  0  0  0  0  0  0  0
    4.2913    0.3427   -2.4213 H   0  0  0  0  0  0  0  0  0  0  0  0
    2.8285   -0.5899   -2.2978 H   0  0  0  0  0  0  0  0  0  0  0  0
    5.6744   -1.3715   -1.6102 H   0  0  0  0  0  0  0  0  0  0  0  0
    4.9273   -3.2634   -2.8821 H   0  0  0  0  0  0  0  0  0  0  0  0
    2.4566   -3.2836   -2.8272 H   0  0  0  0  0  0  0  0  0  0  0  0
    1.3983   -4.0169   -0.7163 H   0  0  0  0  0  0  0  0  0  0  0  0
    2.8694   -4.5434    1.2129 H   0  0  0  0  0  0  0  0  0  0  0  0
    3.6009   -2.3399    1.8162 H   0  0  0  0  0  0  0  0  0  0  0  0
    5.7823   -3.2222    2.0852 H   0  0  0  0  0  0  0  0  0  0  0  0
    7.0100   -1.0715    1.6785 H   0  0  0  0  0  0  0  0  0  0  0  0
    5.3162    0.5051    0.4859 H   0  0  0  0  0  0  0  0  0  0  0  0
    3.1688   -0.8364    0.0029 H   0  0  0  0  0  0  0  0  0  0  0  0
    5.1328   -6.2880    1.2650 H   0  0  0  0  0  0  0  0  0  0  0  0
  1  2  1  0
  1 18  1  0
  1 19  1  0
  1 20  1  0
  2  3  1  0
  2 21  1  0
  2 22  1  0
  3 12  1  0
  3  4  1  0
  3 23  1  1
  4 17  1  0
  4  5  1  0
  4 24  1  6
  5  6  2  0
  5 25  1  0
  6  7  1  0
  6 26  1  0
  7 16  1  0
  7  8  1  0
  7 27  1  1
  8 12  1  0
  8  9  1  0
  8 28  1  1
  9 10  1  0
  9 13  1  0
  9 29  1  1
 10 11  2  0
 10 30  1  0
 11 12  1  0
 11 31  1  0
 12 32  1  6
 13 17  2  0
 13 14  1  0
 14 15  2  0
 15 16  1  0
 15 33  1  0
 16 17  1  0
M  END
>  <i_m_ct_stereo_status>  (73) 
1

>  <s_m_source_file>  (73) 
/var/tmp/pbs.5076255.sched01/tmpvv81v907/0tx7qkblw.sdf

>  <i_m_source_file_index>  (73) 
30

>  <i_lp_mmshare_version>  (73) 
48012

>  <i_f3d_flags>  (73) 
0

>  <s_epik_input>  (73) 
W0NIM11bQ0gyXVtDQEhdMVtDQEhdKFtDSF09W0NIXTIpW0NAQEhdKFtDQEBIXShbQ0hdPVtDSF0zKW40W2NIXW41KVtDQEhdMmM1YzRbQ0BIXTEz

>  <s_epik_cmdline>  (73) 
J2VwaWtfcHl0aG9uJywgJy1waHQnLCAnMi4wJywgJy1waCcsICc3LjAnLCAnLXRuJywgJzgnLCAnLW1hJywgJzIwMCcsICctaW1hZScsICc8aW5maWxlLm1hZT4nLCAnLW9tYWUnLCAnPG91dGZpbGUubWFlPic=

>  <r_lp_tautomer_probability>  (73) 
1

>  <r_epik_Ionization_Penalty>  (73) 
2.04047

>  <r_epik_Ionization_Penalty_Charging>  (73) 
2.04047

>  <r_epik_Ionization_Penalty_Neutral>  (73) 
1.49187e-13

>  <r_epik_State_Penalty>  (73) 
2.17217

>  <r_epik_Charging_Adjusted_Penalty>  (73) 
4.21264

>  <i_epik_Tot_Q>  (73) 
0

>  <i_epik_Tot_abs_Q>  (73) 
0

>  <s_lp_Force_Field>  (73) 
OPLS3e

>  <r_lp_Energy>  (73) 
130.354

>  <b_lp_Chiralities_Consistent>  (73) 
1

>  <s_lp_Variant>  (73) 
11:0-2

>  <s_i_glide_gridfile>  (73) 
pfpi4k_grid

>  <i_i_glide_lignum>  (73) 
30

>  <i_i_glide_rotatable_bonds>  (73) 
1

>  <r_i_docking_score>  (73) 
-3.7343

>  <r_i_glide_ligand_efficiency>  (73) 
-0.219665

>  <r_i_glide_ligand_efficiency_sa>  (73) 
-0.56482

>  <r_i_glide_ligand_efficiency_ln>  (73) 
-0.974195

>  <r_i_glide_gscore>  (73) 
-3.7343

>  <r_i_glide_lipo>  (73) 
-0.717944

>  <r_i_glide_hbond>  (73) 
0

>  <r_i_glide_metal>  (73) 
-0

>  <r_i_glide_rewards>  (73) 
-2.0211

>  <r_i_glide_evdw>  (73) 
-18.739

>  <r_i_glide_ecoul>  (73) 
-0.319153

>  <r_i_glide_erotb>  (73) 
0

>  <r_i_glide_esite>  (73) 
-0.0104309

>  <r_i_glide_emodel>  (73) 
-21.2871

>  <r_i_glide_energy>  (73) 
-19.0581

>  <r_i_glide_einternal>  (73) 
2.5686

>  <r_i_glide_intrahb_reward>  (73) 
-0

>  <i_i_glide_confnum>  (73) 
1

>  <i_i_glide_posenum>  (73) 
33

>  <r_i_glide_eff_state_penalty>  (73) 
0

>  <ligand_id>  (73) 
11

>  <original_smiles>  (73) 
CCC1C2C=CC3C4C(C=CC14)c1ncn3c12

>  <smiles>  (73) 
[H]C1=C([H])C2([H])C3([H])C1([H])c1nc([H])n4c1C([H])(C([H])=C([H])C43[H])C2([H])C([H])([H])C([H])([H])[H]

$$$$
11:1:2
     RDKit          3D

 33 37  0  0  1  0  0  0  0  0999 V2000
    2.9302   -0.4024   -3.2393 C   0  0  0  0  0  0  0  0  0  0  0  0
    4.3958   -0.5554   -2.7736 C   0  0  0  0  0  0  0  0  0  0  0  0
    4.7281   -1.5586   -1.6274 C   0  0  2  0  0  0  0  0  0  0  0  0
    4.6267   -3.0424   -2.0069 C   0  0  2  0  0  0  0  0  0  0  0  0
    3.1623   -3.2720   -2.3858 C   0  0  0  0  0  0  0  0  0  0  0  0
    2.2867   -3.4796   -1.3838 C   0  0  0  0  0  0  0  0  0  0  0  0
    2.9079   -3.7764   -0.0369 C   0  0  2  0  0  0  0  0  0  0  0  0
    3.6131   -2.4822    0.6030 C   0  0  1  0  0  0  0  0  0  0  0  0
    5.0408   -2.7483    1.1571 C   0  0  2  0  0  0  0  0  0  0  0  0
    5.6499   -1.3925    1.3254 C   0  0  0  0  0  0  0  0  0  0  0  0
    4.9917   -0.5236    0.5667 C   0  0  0  0  0  0  0  0  0  0  0  0
    3.9779   -1.2404   -0.2909 C   0  0  1  0  0  0  0  0  0  0  0  0
    5.7762   -3.7464    0.1976 C   0  0  0  0  0  0  0  0  0  0  0  0
    5.8787   -4.9174    0.8929 N   0  0  0  0  0  0  0  0  0  0  0  0
    4.6792   -5.4639    0.5864 C   0  0  0  0  0  0  0  0  0  0  0  0
    3.9841   -4.7220   -0.2936 N   0  0  0  0  0  0  0  0  0  0  0  0
    5.0058   -4.1135   -0.9461 C   0  0  0  0  0  0  0  0  0  0  0  0
    2.8149    0.4613   -3.8998 H   0  0  0  0  0  0  0  0  0  0  0  0
    2.2594   -0.2713   -2.3923 H   0  0  0  0  0  0  0  0  0  0  0  0
    2.5740   -1.2661   -3.7870 H   0  0  0  0  0  0  0  0  0  0  0  0
    5.0003   -0.8008   -3.6401 H   0  0  0  0  0  0  0  0  0  0  0  0
    4.7307    0.4377   -2.4694 H   0  0  0  0  0  0  0  0  0  0  0  0
    5.8013   -1.4244   -1.4572 H   0  0  0  0  0  0  0  0  0  0  0  0
    5.2406   -3.2429   -2.8973 H   0  0  0  0  0  0  0  0  0  0  0  0
    2.8783   -3.2625   -3.4266 H   0  0  0  0  0  0  0  0  0  0  0  0
    1.2386   -3.6350   -1.5550 H   0  0  0  0  0  0  0  0  0  0  0  0
    2.1826   -4.2402    0.6485 H   0  0  0  0  0  0  0  0  0  0  0  0
    2.9743   -2.1158    1.3990 H   0  0  0  0  0  0  0  0  0  0  0  0
    4.9504   -3.1889    2.1400 H   0  0  0  0  0  0  0  0  0  0  0  0
    6.4327   -1.1723    2.0409 H   0  0  0  0  0  0  0  0  0  0  0  0
    5.2013    0.5284    0.4822 H   0  0  0  0  0  0  0  0  0  0  0  0
    3.0814   -0.6542   -0.4169 H   0  0  0  0  0  0  0  0  0  0  0  0
    4.2113   -6.2003    1.2254 H   0  0  0  0  0  0  0  0  0  0  0  0
  1  2  1  0
  1 18  1  0
  1 19  1  0
  1 20  1  0
  2  3  1  0
  2 21  1  0
  2 22  1  0
  3 12  1  0
  3  4  1  0
  3 23  1  1
  4 17  1  0
  4  5  1  0
  4 24  1  6
  5  6  2  0
  5 25  1  0
  6  7  1  0
  6 26  1  0
  7 16  1  0
  7  8  1  0
  7 27  1  1
  8 12  1  0
  8  9  1  0
  8 28  1  1
  9 10  1  0
  9 13  1  0
  9 29  1  1
 10 11  2  0
 10 30  1  0
 11 12  1  0
 11 31  1  0
 12 32  1  6
 13 17  2  0
 13 14  1  0
 14 15  2  0
 15 16  1  0
 15 33  1  0
 16 17  1  0
M  END
>  <i_m_ct_stereo_status>  (74) 
1

>  <s_m_source_file>  (74) 
/var/tmp/pbs.5076255.sched01/tmpvv81v907/0tx7qkblw.sdf

>  <i_m_source_file_index>  (74) 
30

>  <i_lp_mmshare_version>  (74) 
48012

>  <i_f3d_flags>  (74) 
0

>  <s_epik_input>  (74) 
W0NIM11bQ0gyXVtDQEhdMVtDQEhdKFtDSF09W0NIXTIpW0NAQEhdKFtDQEBIXShbQ0hdPVtDSF0zKW40W2NIXW41KVtDQEhdMmM1YzRbQ0BIXTEz

>  <s_epik_cmdline>  (74) 
J2VwaWtfcHl0aG9uJywgJy1waHQnLCAnMi4wJywgJy1waCcsICc3LjAnLCAnLXRuJywgJzgnLCAnLW1hJywgJzIwMCcsICctaW1hZScsICc8aW5maWxlLm1hZT4nLCAnLW9tYWUnLCAnPG91dGZpbGUubWFlPic=

>  <r_lp_tautomer_probability>  (74) 
1

>  <r_epik_Ionization_Penalty>  (74) 
2.04047

>  <r_epik_Ionization_Penalty_Charging>  (74) 
2.04047

>  <r_epik_Ionization_Penalty_Neutral>  (74) 
1.49187e-13

>  <r_epik_State_Penalty>  (74) 
2.17217

>  <r_epik_Charging_Adjusted_Penalty>  (74) 
4.21264

>  <i_epik_Tot_Q>  (74) 
0

>  <i_epik_Tot_abs_Q>  (74) 
0

>  <s_lp_Force_Field>  (74) 
OPLS3e

>  <r_lp_Energy>  (74) 
130.354

>  <b_lp_Chiralities_Consistent>  (74) 
1

>  <s_lp_Variant>  (74) 
11:0-2

>  <s_i_glide_gridfile>  (74) 
pfpi4k_grid

>  <i_i_glide_lignum>  (74) 
30

>  <i_i_glide_rotatable_bonds>  (74) 
1

>  <r_i_docking_score>  (74) 
-3.56021

>  <r_i_glide_ligand_efficiency>  (74) 
-0.209424

>  <r_i_glide_ligand_efficiency_sa>  (74) 
-0.538488

>  <r_i_glide_ligand_efficiency_ln>  (74) 
-0.928779

>  <r_i_glide_gscore>  (74) 
-3.56021

>  <r_i_glide_lipo>  (74) 
-0.641201

>  <r_i_glide_hbond>  (74) 
0

>  <r_i_glide_metal>  (74) 
-0

>  <r_i_glide_rewards>  (74) 
-1.98307

>  <r_i_glide_evdw>  (74) 
-17.2732

>  <r_i_glide_ecoul>  (74) 
-0.289893

>  <r_i_glide_erotb>  (74) 
0

>  <r_i_glide_esite>  (74) 
-0.0287956

>  <r_i_glide_emodel>  (74) 
-18.6561

>  <r_i_glide_energy>  (74) 
-17.5631

>  <r_i_glide_einternal>  (74) 
4.56345

>  <r_i_glide_intrahb_reward>  (74) 
-0

>  <i_i_glide_confnum>  (74) 
2

>  <i_i_glide_posenum>  (74) 
15

>  <r_i_glide_eff_state_penalty>  (74) 
0

>  <ligand_id>  (74) 
11

>  <original_smiles>  (74) 
CCC1C2C=CC3C4C(C=CC14)c1ncn3c12

>  <smiles>  (74) 
[H]C1=C([H])C2([H])C3([H])C1([H])c1nc([H])n4c1C([H])(C([H])=C([H])C43[H])C2([H])C([H])([H])C([H])([H])[H]

$$$$
12:0:0
     RDKit          3D

 84 90  0  0  1  0  0  0  0  0999 V2000
    0.2813   -0.7235    7.3485 C   0  0  0  0  0  0  0  0  0  0  0  0
    0.7487    0.7269    7.5267 C   0  0  2  0  0  0  0  0  0  0  0  0
   -0.2472    1.6121    8.3188 C   0  0  0  0  0  0  0  0  0  0  0  0
   -0.3026    2.8895    7.5251 C   0  0  0  0  0  0  0  0  0  0  0  0
    0.3485    2.7934    6.3637 C   0  0  0  0  0  0  0  0  0  0  0  0
    0.9956    1.4488    6.1768 C   0  0  1  0  0  0  0  0  0  0  0  0
    2.4884    1.5947    5.8053 C   0  0  1  0  0  0  0  0  0  0  0  0
    3.1053    0.3356    5.5303 O   0  0  0  0  0  0  0  0  0  0  0  0
    2.7002   -0.2435    4.2922 C   0  0  2  0  0  0  0  0  0  0  0  0
    3.4264   -1.5899    4.0743 C   0  0  0  0  0  0  0  0  0  0  0  0
    4.0781   -1.7547    2.6749 C   0  0  2  0  0  0  0  0  0  0  0  0
    3.1622   -1.2513    1.5392 C   0  0  2  0  0  0  0  0  0  0  0  0
    3.9396   -1.3170    0.2231 C   0  0  0  0  0  0  0  0  0  0  0  0
    4.1883   -2.7738   -0.1688 C   0  0  0  0  0  0  0  0  0  0  0  0
    4.8751   -3.6706    0.9202 C   0  0  1  0  0  0  0  0  0  0  0  0
    6.3994   -3.6738    0.6020 C   0  0  0  0  0  0  0  0  0  0  0  0
    4.7001   -3.1661    2.4121 C   0  0  2  0  0  0  0  0  0  0  0  0
    4.1499   -4.3565    3.2306 C   0  0  0  0  0  0  0  0  0  0  0  0
    4.6112   -5.5480    2.4064 C   0  0  1  0  0  0  0  0  0  0  0  0
    4.0305   -6.8068    2.6970 O   0  0  0  0  0  0  0  0  0  0  0  0
    4.4729   -7.8376    1.8462 C   0  0  0  0  0  0  0  0  0  0  0  0
    5.9074   -8.2703    2.2283 C   0  0  0  0  0  0  0  0  0  0  0  0
    3.4938   -9.0050    2.0419 C   0  0  0  0  0  0  0  0  0  0  0  0
    4.4065   -7.4997    0.4822 O   0  0  0  0  0  0  0  0  0  0  0  0
    4.9309   -6.2276    0.0935 C   0  0  0  0  0  0  0  0  0  0  0  0
    4.2921   -5.1411    0.9737 C   0  0  2  0  0  0  0  0  0  0  0  0
    2.7529   -5.1949    0.7251 C   0  0  0  0  0  0  0  0  0  0  0  0
    2.5666    0.1675    1.7813 C   0  0  1  0  0  0  0  0  0  0  0  0
    1.1598    0.0442    1.6804 O   0  0  0  0  0  0  0  0  0  0  0  0
    2.9640    0.7532    3.1548 C   0  0  1  0  0  0  0  0  0  0  0  0
    2.3082    1.9936    3.4007 O   0  0  0  0  0  0  0  0  0  0  0  0
    2.7194    2.5757    4.6334 C   0  0  1  0  0  0  0  0  0  0  0  0
    2.0173    3.9309    4.8791 C   0  0  0  0  0  0  0  0  0  0  0  0
    0.5175    3.8503    5.2727 C   0  0  0  0  0  0  0  0  0  0  0  0
   -0.3494    3.4534    4.0589 C   0  0  0  0  0  0  0  0  0  0  0  0
    0.0703    5.2498    5.7444 C   0  0  0  0  0  0  0  0  0  0  0  0
   -0.6563   -0.7730    6.7926 H   0  0  0  0  0  0  0  0  0  0  0  0
    0.1384   -1.2103    8.3147 H   0  0  0  0  0  0  0  0  0  0  0  0
    1.0225   -1.3009    6.7935 H   0  0  0  0  0  0  0  0  0  0  0  0
    1.6825    0.7092    8.0895 H   0  0  0  0  0  0  0  0  0  0  0  0
   -1.2474    1.1765    8.3704 H   0  0  0  0  0  0  0  0  0  0  0  0
    0.0988    1.8008    9.3373 H   0  0  0  0  0  0  0  0  0  0  0  0
   -0.8488    3.7490    7.8736 H   0  0  0  0  0  0  0  0  0  0  0  0
    0.4298    0.9732    5.3781 H   0  0  0  0  0  0  0  0  0  0  0  0
    3.0038    2.0137    6.6717 H   0  0  0  0  0  0  0  0  0  0  0  0
    1.6338   -0.4559    4.3274 H   0  0  0  0  0  0  0  0  0  0  0  0
    4.1954   -1.7291    4.8350 H   0  0  0  0  0  0  0  0  0  0  0  0
    2.6874   -2.3721    4.2436 H   0  0  0  0  0  0  0  0  0  0  0  0
    4.9380   -1.0809    2.6696 H   0  0  0  0  0  0  0  0  0  0  0  0
    2.3334   -1.9579    1.4665 H   0  0  0  0  0  0  0  0  0  0  0  0
    3.3628   -0.8450   -0.5737 H   0  0  0  0  0  0  0  0  0  0  0  0
    4.8774   -0.7654    0.2956 H   0  0  0  0  0  0  0  0  0  0  0  0
    3.2216   -3.1437   -0.4903 H   0  0  0  0  0  0  0  0  0  0  0  0
    4.7813   -2.7865   -1.0819 H   0  0  0  0  0  0  0  0  0  0  0  0
    6.9708   -4.3003    1.2861 H   0  0  0  0  0  0  0  0  0  0  0  0
    6.8256   -2.6732    0.6702 H   0  0  0  0  0  0  0  0  0  0  0  0
    6.6078   -4.0401   -0.4017 H   0  0  0  0  0  0  0  0  0  0  0  0
    5.7097   -3.0617    2.8154 H   0  0  0  0  0  0  0  0  0  0  0  0
    4.5510   -4.3930    4.2443 H   0  0  0  0  0  0  0  0  0  0  0  0
    3.0636   -4.3435    3.2989 H   0  0  0  0  0  0  0  0  0  0  0  0
    5.6886   -5.6253    2.5457 H   0  0  0  0  0  0  0  0  0  0  0  0
    6.6442   -7.5152    1.9698 H   0  0  0  0  0  0  0  0  0  0  0  0
    6.1719   -9.1907    1.7103 H   0  0  0  0  0  0  0  0  0  0  0  0
    5.9622   -8.4505    3.3007 H   0  0  0  0  0  0  0  0  0  0  0  0
    2.4843   -8.6993    1.7602 H   0  0  0  0  0  0  0  0  0  0  0  0
    3.4863   -9.3228    3.0860 H   0  0  0  0  0  0  0  0  0  0  0  0
    3.7857   -9.8529    1.4163 H   0  0  0  0  0  0  0  0  0  0  0  0
    6.0160   -6.2497    0.1797 H   0  0  0  0  0  0  0  0  0  0  0  0
    4.7008   -6.0641   -0.9589 H   0  0  0  0  0  0  0  0  0  0  0  0
    2.3057   -6.1291    1.0646 H   0  0  0  0  0  0  0  0  0  0  0  0
    2.5250   -5.1408   -0.3405 H   0  0  0  0  0  0  0  0  0  0  0  0
    2.2220   -4.3811    1.2208 H   0  0  0  0  0  0  0  0  0  0  0  0
    2.8938    0.8684    1.0128 H   0  0  0  0  0  0  0  0  0  0  0  0
    0.9502   -0.1686    0.7591 H   0  0  0  0  0  0  0  0  0  0  0  0
    4.0363    0.9551    3.1295 H   0  0  0  0  0  0  0  0  0  0  0  0
    3.7893    2.7733    4.5530 H   0  0  0  0  0  0  0  0  0  0  0  0
    2.5536    4.4324    5.6866 H   0  0  0  0  0  0  0  0  0  0  0  0
    2.1392    4.5726    4.0067 H   0  0  0  0  0  0  0  0  0  0  0  0
   -0.1983    4.1315    3.2174 H   0  0  0  0  0  0  0  0  0  0  0  0
   -1.4125    3.4569    4.3051 H   0  0  0  0  0  0  0  0  0  0  0  0
   -0.1155    2.4504    3.7007 H   0  0  0  0  0  0  0  0  0  0  0  0
    0.2286    5.9974    4.9651 H   0  0  0  0  0  0  0  0  0  0  0  0
    0.6298    5.5702    6.6236 H   0  0  0  0  0  0  0  0  0  0  0  0
   -0.9858    5.2682    6.0057 H   0  0  0  0  0  0  0  0  0  0  0  0
  1  2  1  0
  1 37  1  0
  1 38  1  0
  1 39  1  0
  2  6  1  0
  2  3  1  0
  2 40  1  1
  3  4  1  0
  3 41  1  0
  3 42  1  0
  4  5  2  0
  4 43  1  0
  5 34  1  0
  5  6  1  0
  6  7  1  0
  6 44  1  6
  7 32  1  0
  7  8  1  0
  7 45  1  1
  8  9  1  0
  9 30  1  0
  9 10  1  0
  9 46  1  1
 10 11  1  0
 10 47  1  0
 10 48  1  0
 11 17  1  0
 11 12  1  0
 11 49  1  1
 12 13  1  0
 12 28  1  0
 12 50  1  6
 13 14  1  0
 13 51  1  0
 13 52  1  0
 14 15  1  0
 14 53  1  0
 14 54  1  0
 15 26  1  0
 15 16  1  6
 15 17  1  0
 16 55  1  0
 16 56  1  0
 16 57  1  0
 17 18  1  0
 17 58  1  1
 18 19  1  0
 18 59  1  0
 18 60  1  0
 19 26  1  0
 19 20  1  0
 19 61  1  6
 20 21  1  0
 21 22  1  0
 21 23  1  0
 21 24  1  0
 22 62  1  0
 22 63  1  0
 22 64  1  0
 23 65  1  0
 23 66  1  0
 23 67  1  0
 24 25  1  0
 25 26  1  0
 25 68  1  0
 25 69  1  0
 26 27  1  1
 27 70  1  0
 27 71  1  0
 27 72  1  0
 28 29  1  0
 28 30  1  0
 28 73  1  6
 29 74  1  0
 30 31  1  0
 30 75  1  6
 31 32  1  0
 32 33  1  0
 32 76  1  6
 33 34  1  0
 33 77  1  0
 33 78  1  0
 34 35  1  0
 34 36  1  0
 35 79  1  0
 35 80  1  0
 35 81  1  0
 36 82  1  0
 36 83  1  0
 36 84  1  0
M  END
>  <i_m_ct_stereo_status>  (75) 
1

>  <s_m_source_file>  (75) 
/var/tmp/pbs.5076255.sched01/tmpvv81v907/0tx7qkblw.sdf

>  <i_m_source_file_index>  (75) 
31

>  <i_lp_mmshare_version>  (75) 
48012

>  <i_f3d_flags>  (75) 
0

>  <s_epik_input>  (75) 
W0NIM11bQ0BASF0xW0NIMl1bQ0hdPUMoQyhbQ0gzXSkoW0NIM10pW0NIMl1bQ0BASF0yTzMpW0NASF0xW0NASF0yT1tDQEhdKFtDSDJdNClbQ0BIXTNbQ0BIXShbT0hdKVtDQEBIXShbQ0gyXVtDSDJdNSlbQ0BASF00W0NASF0oW0NAXTU2W0NIM10pW0NIMl1bQ0BASF03W0NAXTYoW0NIM10pW0NIMl1PQyhPNykoW0NIM10pW0NIM10=

>  <s_epik_cmdline>  (75) 
J2VwaWtfcHl0aG9uJywgJy1waHQnLCAnMi4wJywgJy1waCcsICc3LjAnLCAnLXRuJywgJzgnLCAnLW1hJywgJzIwMCcsICctaW1hZScsICc8aW5maWxlLm1hZT4nLCAnLW9tYWUnLCAnPG91dGZpbGUubWFlPic=

>  <r_lp_tautomer_probability>  (75) 
1

>  <r_epik_Ionization_Penalty>  (75) 
6.05886e-08

>  <r_epik_Ionization_Penalty_Charging>  (75) 
0

>  <r_epik_Ionization_Penalty_Neutral>  (75) 
6.05886e-08

>  <r_epik_State_Penalty>  (75) 
-0

>  <r_epik_Charging_Adjusted_Penalty>  (75) 
0

>  <i_epik_Tot_Q>  (75) 
0

>  <i_epik_Tot_abs_Q>  (75) 
0

>  <s_lp_Force_Field>  (75) 
OPLS3e

>  <r_lp_Energy>  (75) 
78.5367

>  <b_lp_Chiralities_Consistent>  (75) 
1

>  <s_lp_Variant>  (75) 
12:0-1

>  <s_i_glide_gridfile>  (75) 
pfpi4k_grid

>  <i_i_glide_lignum>  (75) 
31

>  <i_i_glide_rotatable_bonds>  (75) 
1

>  <r_i_docking_score>  (75) 
-2.36059

>  <r_i_glide_ligand_efficiency>  (75) 
-0.0655721

>  <r_i_glide_ligand_efficiency_sa>  (75) 
-0.216514

>  <r_i_glide_ligand_efficiency_ln>  (75) 
-0.515018

>  <r_i_glide_gscore>  (75) 
-2.36059

>  <r_i_glide_lipo>  (75) 
-0.333621

>  <r_i_glide_hbond>  (75) 
0

>  <r_i_glide_metal>  (75) 
-0

>  <r_i_glide_rewards>  (75) 
-0.0259067

>  <r_i_glide_evdw>  (75) 
-30.2272

>  <r_i_glide_ecoul>  (75) 
-3.2647

>  <r_i_glide_erotb>  (75) 
0

>  <r_i_glide_esite>  (75) 
0

>  <r_i_glide_emodel>  (75) 
-38.4449

>  <r_i_glide_energy>  (75) 
-33.4919

>  <r_i_glide_einternal>  (75) 
0.333848

>  <r_i_glide_intrahb_reward>  (75) 
-0

>  <i_i_glide_confnum>  (75) 
1

>  <i_i_glide_posenum>  (75) 
1

>  <r_i_glide_eff_state_penalty>  (75) 
0

>  <ligand_id>  (75) 
12

>  <original_smiles>  (75) 
CC1CC=C2C1C1OC3CC4C(CCC5(C)C4CC4OC(C)(C)OCC45C)C(O)C3OC1CC2(C)C

>  <smiles>  (75) 
[H]OC1([H])C2([H])OC3([H])C([H])([H])C(C([H])([H])[H])(C([H])([H])[H])C4=C([H])C([H])([H])C([H])(C([H])([H])[H])C4([H])C3([H])OC2([H])C([H])([H])C2([H])C1([H])C([H])([H])C([H])([H])C1(C([H])([H])[H])C2([H])C([H])([H])C2([H])OC(C([H])([H])[H])(C([H])([H])[H])OC([H])([H])C21C([H])([H])[H]

$$$$
12:0:1
     RDKit          3D

 84 90  0  0  1  0  0  0  0  0999 V2000
   -1.7620    1.6811    3.8336 C   0  0  0  0  0  0  0  0  0  0  0  0
   -0.9853    2.7383    4.6177 C   0  0  2  0  0  0  0  0  0  0  0  0
   -1.4852    4.1713    4.3439 C   0  0  0  0  0  0  0  0  0  0  0  0
   -0.2232    4.9656    4.1578 C   0  0  0  0  0  0  0  0  0  0  0  0
    0.8594    4.1925    4.1126 C   0  0  0  0  0  0  0  0  0  0  0  0
    0.5245    2.7336    4.2927 C   0  0  1  0  0  0  0  0  0  0  0  0
    1.3982    2.0985    5.3951 C   0  0  1  0  0  0  0  0  0  0  0  0
    1.1665    0.6932    5.5230 O   0  0  0  0  0  0  0  0  0  0  0  0
    1.6963   -0.0755    4.4467 C   0  0  2  0  0  0  0  0  0  0  0  0
    1.4119   -1.5763    4.6806 C   0  0  0  0  0  0  0  0  0  0  0  0
    2.6456   -2.5019    4.4962 C   0  0  2  0  0  0  0  0  0  0  0  0
    3.4766   -2.1212    3.2515 C   0  0  2  0  0  0  0  0  0  0  0  0
    4.7393   -2.9880    3.2382 C   0  0  0  0  0  0  0  0  0  0  0  0
    4.3820   -4.4493    2.9654 C   0  0  0  0  0  0  0  0  0  0  0  0
    3.2970   -5.0763    3.9092 C   0  0  1  0  0  0  0  0  0  0  0  0
    4.0648   -5.8291    5.0328 C   0  0  0  0  0  0  0  0  0  0  0  0
    2.3335   -4.0313    4.6148 C   0  0  2  0  0  0  0  0  0  0  0  0
    0.8892   -4.4854    4.3210 C   0  0  0  0  0  0  0  0  0  0  0  0
    1.0667   -5.9717    4.0585 C   0  0  1  0  0  0  0  0  0  0  0  0
   -0.0252   -6.6571    3.4643 O   0  0  0  0  0  0  0  0  0  0  0  0
    0.2521   -8.0152    3.2098 C   0  0  0  0  0  0  0  0  0  0  0  0
    0.2256   -8.8300    4.5222 C   0  0  0  0  0  0  0  0  0  0  0  0
   -0.8497   -8.5057    2.2648 C   0  0  0  0  0  0  0  0  0  0  0  0
    1.4690   -8.2160    2.5283 O   0  0  0  0  0  0  0  0  0  0  0  0
    2.6265   -7.5414    3.0375 C   0  0  0  0  0  0  0  0  0  0  0  0
    2.2925   -6.0415    3.1548 C   0  0  2  0  0  0  0  0  0  0  0  0
    1.9444   -5.5407    1.7212 C   0  0  0  0  0  0  0  0  0  0  0  0
    3.8247   -0.6034    3.1595 C   0  0  1  0  0  0  0  0  0  0  0  0
    3.3849   -0.1392    1.8924 O   0  0  0  0  0  0  0  0  0  0  0  0
    3.1962    0.2228    4.3026 C   0  0  1  0  0  0  0  0  0  0  0  0
    3.4129    1.6174    4.1130 O   0  0  0  0  0  0  0  0  0  0  0  0
    2.9027    2.3842    5.1987 C   0  0  1  0  0  0  0  0  0  0  0  0
    3.1743    3.8944    4.9991 C   0  0  0  0  0  0  0  0  0  0  0  0
    2.3139    4.5987    3.9165 C   0  0  0  0  0  0  0  0  0  0  0  0
    2.7473    4.1780    2.5053 C   0  0  0  0  0  0  0  0  0  0  0  0
    2.5110    6.1263    4.0447 C   0  0  0  0  0  0  0  0  0  0  0  0
   -1.6598    1.8257    2.7552 H   0  0  0  0  0  0  0  0  0  0  0  0
   -2.8247    1.7351    4.0737 H   0  0  0  0  0  0  0  0  0  0  0  0
   -1.4019    0.6776    4.0709 H   0  0  0  0  0  0  0  0  0  0  0  0
   -1.1226    2.5417    5.6821 H   0  0  0  0  0  0  0  0  0  0  0  0
   -2.0895    4.2294    3.4354 H   0  0  0  0  0  0  0  0  0  0  0  0
   -2.0687    4.5433    5.1823 H   0  0  0  0  0  0  0  0  0  0  0  0
   -0.2153    6.0356    4.0201 H   0  0  0  0  0  0  0  0  0  0  0  0
    0.7031    2.2829    3.3184 H   0  0  0  0  0  0  0  0  0  0  0  0
    1.1112    2.5529    6.3451 H   0  0  0  0  0  0  0  0  0  0  0  0
    1.1891    0.2082    3.5267 H   0  0  0  0  0  0  0  0  0  0  0  0
    1.0099   -1.7321    5.6818 H   0  0  0  0  0  0  0  0  0  0  0  0
    0.6168   -1.8545    3.9900 H   0  0  0  0  0  0  0  0  0  0  0  0
    3.2935   -2.2994    5.3518 H   0  0  0  0  0  0  0  0  0  0  0  0
    2.8848   -2.3892    2.3754 H   0  0  0  0  0  0  0  0  0  0  0  0
    5.4199   -2.6484    2.4561 H   0  0  0  0  0  0  0  0  0  0  0  0
    5.2884   -2.9011    4.1751 H   0  0  0  0  0  0  0  0  0  0  0  0
    4.1133   -4.4726    1.9148 H   0  0  0  0  0  0  0  0  0  0  0  0
    5.2948   -5.0421    3.0085 H   0  0  0  0  0  0  0  0  0  0  0  0
    3.3993   -6.3331    5.7323 H   0  0  0  0  0  0  0  0  0  0  0  0
    4.6784   -5.1489    5.6242 H   0  0  0  0  0  0  0  0  0  0  0  0
    4.7306   -6.5929    4.6336 H   0  0  0  0  0  0  0  0  0  0  0  0
    2.4191   -4.2138    5.6889 H   0  0  0  0  0  0  0  0  0  0  0  0
    0.2122   -4.3038    5.1579 H   0  0  0  0  0  0  0  0  0  0  0  0
    0.4839   -3.9902    3.4412 H   0  0  0  0  0  0  0  0  0  0  0  0
    1.2766   -6.4385    5.0198 H   0  0  0  0  0  0  0  0  0  0  0  0
    1.0741   -8.6099    5.1643 H   0  0  0  0  0  0  0  0  0  0  0  0
    0.2426   -9.8956    4.2999 H   0  0  0  0  0  0  0  0  0  0  0  0
   -0.6906   -8.6167    5.0690 H   0  0  0  0  0  0  0  0  0  0  0  0
   -0.8109   -7.9512    1.3240 H   0  0  0  0  0  0  0  0  0  0  0  0
   -1.8317   -8.3772    2.7205 H   0  0  0  0  0  0  0  0  0  0  0  0
   -0.7009   -9.5665    2.0507 H   0  0  0  0  0  0  0  0  0  0  0  0
    2.9138   -7.9885    3.9862 H   0  0  0  0  0  0  0  0  0  0  0  0
    3.4623   -7.7012    2.3553 H   0  0  0  0  0  0  0  0  0  0  0  0
    1.0334   -5.9949    1.3315 H   0  0  0  0  0  0  0  0  0  0  0  0
    2.7256   -5.8069    1.0050 H   0  0  0  0  0  0  0  0  0  0  0  0
    1.8116   -4.4581    1.6854 H   0  0  0  0  0  0  0  0  0  0  0  0
    4.9034   -0.4507    3.1968 H   0  0  0  0  0  0  0  0  0  0  0  0
    2.4439   -0.2287    1.8291 H   0  0  0  0  0  0  0  0  0  0  0  0
    3.6956   -0.0594    5.2325 H   0  0  0  0  0  0  0  0  0  0  0  0
    3.4321    2.0738    6.1009 H   0  0  0  0  0  0  0  0  0  0  0  0
    2.9859    4.3857    5.9553 H   0  0  0  0  0  0  0  0  0  0  0  0
    4.2297    4.0543    4.7909 H   0  0  0  0  0  0  0  0  0  0  0  0
    3.8057    4.3812    2.3473 H   0  0  0  0  0  0  0  0  0  0  0  0
    2.2168    4.7265    1.7308 H   0  0  0  0  0  0  0  0  0  0  0  0
    2.5876    3.1191    2.3201 H   0  0  0  0  0  0  0  0  0  0  0  0
    3.5633    6.3886    3.9330 H   0  0  0  0  0  0  0  0  0  0  0  0
    2.1841    6.4903    5.0192 H   0  0  0  0  0  0  0  0  0  0  0  0
    1.9595    6.6755    3.2785 H   0  0  0  0  0  0  0  0  0  0  0  0
  1  2  1  0
  1 37  1  0
  1 38  1  0
  1 39  1  0
  2  6  1  0
  2  3  1  0
  2 40  1  1
  3  4  1  0
  3 41  1  0
  3 42  1  0
  4  5  2  0
  4 43  1  0
  5 34  1  0
  5  6  1  0
  6  7  1  0
  6 44  1  6
  7 32  1  0
  7  8  1  0
  7 45  1  1
  8  9  1  0
  9 30  1  0
  9 10  1  0
  9 46  1  6
 10 11  1  0
 10 47  1  0
 10 48  1  0
 11 17  1  0
 11 12  1  0
 11 49  1  1
 12 13  1  0
 12 28  1  0
 12 50  1  6
 13 14  1  0
 13 51  1  0
 13 52  1  0
 14 15  1  0
 14 53  1  0
 14 54  1  0
 15 26  1  0
 15 16  1  1
 15 17  1  0
 16 55  1  0
 16 56  1  0
 16 57  1  0
 17 18  1  0
 17 58  1  1
 18 19  1  0
 18 59  1  0
 18 60  1  0
 19 26  1  0
 19 20  1  0
 19 61  1  1
 20 21  1  0
 21 22  1  0
 21 23  1  0
 21 24  1  0
 22 62  1  0
 22 63  1  0
 22 64  1  0
 23 65  1  0
 23 66  1  0
 23 67  1  0
 24 25  1  0
 25 26  1  0
 25 68  1  0
 25 69  1  0
 26 27  1  6
 27 70  1  0
 27 71  1  0
 27 72  1  0
 28 29  1  0
 28 30  1  0
 28 73  1  6
 29 74  1  0
 30 31  1  0
 30 75  1  1
 31 32  1  0
 32 33  1  0
 32 76  1  1
 33 34  1  0
 33 77  1  0
 33 78  1  0
 34 35  1  0
 34 36  1  0
 35 79  1  0
 35 80  1  0
 35 81  1  0
 36 82  1  0
 36 83  1  0
 36 84  1  0
M  END
>  <i_m_ct_stereo_status>  (76) 
1

>  <s_m_source_file>  (76) 
/var/tmp/pbs.5076255.sched01/tmpvv81v907/0tx7qkblw.sdf

>  <i_m_source_file_index>  (76) 
31

>  <i_lp_mmshare_version>  (76) 
48012

>  <i_f3d_flags>  (76) 
0

>  <s_epik_input>  (76) 
W0NIM11bQ0BASF0xW0NIMl1bQ0hdPUMoQyhbQ0gzXSkoW0NIM10pW0NIMl1bQ0BASF0yTzMpW0NASF0xW0NASF0yT1tDQEhdKFtDSDJdNClbQ0BIXTNbQ0BIXShbT0hdKVtDQEBIXShbQ0gyXVtDSDJdNSlbQ0BASF00W0NASF0oW0NAXTU2W0NIM10pW0NIMl1bQ0BASF03W0NAXTYoW0NIM10pW0NIMl1PQyhPNykoW0NIM10pW0NIM10=

>  <s_epik_cmdline>  (76) 
J2VwaWtfcHl0aG9uJywgJy1waHQnLCAnMi4wJywgJy1waCcsICc3LjAnLCAnLXRuJywgJzgnLCAnLW1hJywgJzIwMCcsICctaW1hZScsICc8aW5maWxlLm1hZT4nLCAnLW9tYWUnLCAnPG91dGZpbGUubWFlPic=

>  <r_lp_tautomer_probability>  (76) 
1

>  <r_epik_Ionization_Penalty>  (76) 
6.05886e-08

>  <r_epik_Ionization_Penalty_Charging>  (76) 
0

>  <r_epik_Ionization_Penalty_Neutral>  (76) 
6.05886e-08

>  <r_epik_State_Penalty>  (76) 
-0

>  <r_epik_Charging_Adjusted_Penalty>  (76) 
0

>  <i_epik_Tot_Q>  (76) 
0

>  <i_epik_Tot_abs_Q>  (76) 
0

>  <s_lp_Force_Field>  (76) 
OPLS3e

>  <r_lp_Energy>  (76) 
78.5367

>  <b_lp_Chiralities_Consistent>  (76) 
1

>  <s_lp_Variant>  (76) 
12:0-1

>  <s_i_glide_gridfile>  (76) 
pfpi4k_grid

>  <i_i_glide_lignum>  (76) 
31

>  <i_i_glide_rotatable_bonds>  (76) 
1

>  <r_i_docking_score>  (76) 
-1.84062

>  <r_i_glide_ligand_efficiency>  (76) 
-0.0511284

>  <r_i_glide_ligand_efficiency_sa>  (76) 
-0.168822

>  <r_i_glide_ligand_efficiency_ln>  (76) 
-0.401574

>  <r_i_glide_gscore>  (76) 
-1.84062

>  <r_i_glide_lipo>  (76) 
-0.0566966

>  <r_i_glide_hbond>  (76) 
-0.040645

>  <r_i_glide_metal>  (76) 
-0

>  <r_i_glide_rewards>  (76) 
0

>  <r_i_glide_evdw>  (76) 
-31.3399

>  <r_i_glide_ecoul>  (76) 
-0.946174

>  <r_i_glide_erotb>  (76) 
0

>  <r_i_glide_esite>  (76) 
-0.03436

>  <r_i_glide_emodel>  (76) 
-36.2159

>  <r_i_glide_energy>  (76) 
-32.2861

>  <r_i_glide_einternal>  (76) 
0.0137801

>  <r_i_glide_intrahb_reward>  (76) 
-0

>  <i_i_glide_confnum>  (76) 
1

>  <i_i_glide_posenum>  (76) 
2

>  <r_i_glide_eff_state_penalty>  (76) 
0

>  <ligand_id>  (76) 
12

>  <original_smiles>  (76) 
CC1CC=C2C1C1OC3CC4C(CCC5(C)C4CC4OC(C)(C)OCC45C)C(O)C3OC1CC2(C)C

>  <smiles>  (76) 
[H]OC1([H])C2([H])OC3([H])C([H])([H])C(C([H])([H])[H])(C([H])([H])[H])C4=C([H])C([H])([H])C([H])(C([H])([H])[H])C4([H])C3([H])OC2([H])C([H])([H])C2([H])C1([H])C([H])([H])C([H])([H])C1(C([H])([H])[H])C2([H])C([H])([H])C2([H])OC(C([H])([H])[H])(C([H])([H])[H])OC([H])([H])C21C([H])([H])[H]

$$$$
12:0:2
     RDKit          3D

 84 90  0  0  1  0  0  0  0  0999 V2000
   -1.7713    1.6750    3.8275 C   0  0  0  0  0  0  0  0  0  0  0  0
   -1.0012    2.7393    4.6044 C   0  0  2  0  0  0  0  0  0  0  0  0
   -1.5036    4.1671    4.3172 C   0  0  0  0  0  0  0  0  0  0  0  0
   -0.2427    4.9640    4.1354 C   0  0  0  0  0  0  0  0  0  0  0  0
    0.8434    4.1937    4.1021 C   0  0  0  0  0  0  0  0  0  0  0  0
    0.5107    2.7350    4.2875 C   0  0  1  0  0  0  0  0  0  0  0  0
    1.3792    2.1064    5.3963 C   0  0  1  0  0  0  0  0  0  0  0  0
    1.1488    0.7017    5.5316 O   0  0  0  0  0  0  0  0  0  0  0  0
    1.6889   -0.0714    4.4641 C   0  0  2  0  0  0  0  0  0  0  0  0
    1.4046   -1.5715    4.7029 C   0  0  0  0  0  0  0  0  0  0  0  0
    2.6417   -2.4953    4.5302 C   0  0  2  0  0  0  0  0  0  0  0  0
    3.4830   -2.1147    3.2927 C   0  0  2  0  0  0  0  0  0  0  0  0
    4.7459   -2.9821    3.2914 C   0  0  0  0  0  0  0  0  0  0  0  0
    4.3904   -4.4459    3.0237 C   0  0  0  0  0  0  0  0  0  0  0  0
    3.3018   -5.0696    3.9622 C   0  0  1  0  0  0  0  0  0  0  0  0
    4.0629   -5.8162    5.0953 C   0  0  0  0  0  0  0  0  0  0  0  0
    2.3316   -4.0242    4.6542 C   0  0  2  0  0  0  0  0  0  0  0  0
    0.8903   -4.4822    4.3538 C   0  0  0  0  0  0  0  0  0  0  0  0
    1.0713   -5.9692    4.0993 C   0  0  1  0  0  0  0  0  0  0  0  0
   -0.0137   -6.6616    3.4988 O   0  0  0  0  0  0  0  0  0  0  0  0
    0.2709   -8.0199    3.2544 C   0  0  0  0  0  0  0  0  0  0  0  0
    0.2351   -8.8289    4.5717 C   0  0  0  0  0  0  0  0  0  0  0  0
   -0.8239   -8.5188    2.3029 C   0  0  0  0  0  0  0  0  0  0  0  0
    1.4928   -8.2210    2.5836 O   0  0  0  0  0  0  0  0  0  0  0  0
    2.6451   -7.5396    3.0969 C   0  0  0  0  0  0  0  0  0  0  0  0
    2.3035   -6.0400    3.2040 C   0  0  2  0  0  0  0  0  0  0  0  0
    1.9607   -5.5474    1.7663 C   0  0  0  0  0  0  0  0  0  0  0  0
    3.8376   -0.5965    3.2142 C   0  0  1  0  0  0  0  0  0  0  0  0
    3.3834   -0.1044    1.9693 O   0  0  0  0  0  0  0  0  0  0  0  0
    3.1909    0.2295    4.3410 C   0  0  1  0  0  0  0  0  0  0  0  0
    3.4062    1.6216    4.1310 O   0  0  0  0  0  0  0  0  0  0  0  0
    2.8837    2.3957    5.2068 C   0  0  1  0  0  0  0  0  0  0  0  0
    3.1549    3.9050    5.0055 C   0  0  0  0  0  0  0  0  0  0  0  0
    2.2984    4.6018    3.9145 C   0  0  0  0  0  0  0  0  0  0  0  0
    2.7497    4.1777    2.5077 C   0  0  0  0  0  0  0  0  0  0  0  0
    2.4917    6.1304    4.0400 C   0  0  0  0  0  0  0  0  0  0  0  0
   -1.6774    1.8162    2.7491 H   0  0  0  0  0  0  0  0  0  0  0  0
   -2.8306    1.7263    4.0777 H   0  0  0  0  0  0  0  0  0  0  0  0
   -1.4070    0.6744    4.0648 H   0  0  0  0  0  0  0  0  0  0  0  0
   -1.1441    2.5484    5.6679 H   0  0  0  0  0  0  0  0  0  0  0  0
   -2.1006    4.2204    3.4052 H   0  0  0  0  0  0  0  0  0  0  0  0
   -2.0947    4.5449    5.1489 H   0  0  0  0  0  0  0  0  0  0  0  0
   -0.2366    6.0349    3.9940 H   0  0  0  0  0  0  0  0  0  0  0  0
    0.6953    2.2784    3.3162 H   0  0  0  0  0  0  0  0  0  0  0  0
    1.0857    2.5643    6.3426 H   0  0  0  0  0  0  0  0  0  0  0  0
    1.1895    0.2049    3.5364 H   0  0  0  0  0  0  0  0  0  0  0  0
    0.9944   -1.7220    5.7013 H   0  0  0  0  0  0  0  0  0  0  0  0
    0.6163   -1.8536    4.0065 H   0  0  0  0  0  0  0  0  0  0  0  0
    3.2823   -2.2865    5.3897 H   0  0  0  0  0  0  0  0  0  0  0  0
    2.8974   -2.3751    2.4085 H   0  0  0  0  0  0  0  0  0  0  0  0
    5.4312   -2.6450    2.5124 H   0  0  0  0  0  0  0  0  0  0  0  0
    5.2867   -2.8875    4.2331 H   0  0  0  0  0  0  0  0  0  0  0  0
    4.1296   -4.4732    1.9726 H   0  0  0  0  0  0  0  0  0  0  0  0
    5.3065   -5.0359    3.0749 H   0  0  0  0  0  0  0  0  0  0  0  0
    3.3933   -6.3185    5.7924 H   0  0  0  0  0  0  0  0  0  0  0  0
    4.6711   -5.1317    5.6880 H   0  0  0  0  0  0  0  0  0  0  0  0
    4.7342   -6.5803    4.7046 H   0  0  0  0  0  0  0  0  0  0  0  0
    2.4085   -4.2003    5.7301 H   0  0  0  0  0  0  0  0  0  0  0  0
    0.2066   -4.2996    5.1846 H   0  0  0  0  0  0  0  0  0  0  0  0
    0.4878   -3.9927    3.4704 H   0  0  0  0  0  0  0  0  0  0  0  0
    1.2771   -6.4311    5.0637 H   0  0  0  0  0  0  0  0  0  0  0  0
    1.0792   -8.6029    5.2177 H   0  0  0  0  0  0  0  0  0  0  0  0
    0.2567   -9.8960    4.3537 H   0  0  0  0  0  0  0  0  0  0  0  0
   -0.6858   -8.6140    5.1102 H   0  0  0  0  0  0  0  0  0  0  0  0
   -0.7781   -7.9684    1.3626 H   0  0  0  0  0  0  0  0  0  0  0  0
   -1.8081   -8.3900    2.7505 H   0  0  0  0  0  0  0  0  0  0  0  0
   -0.6688   -9.5783    2.0910 H   0  0  0  0  0  0  0  0  0  0  0  0
    2.9260   -7.9816    4.0503 H   0  0  0  0  0  0  0  0  0  0  0  0
    3.4848   -7.7016    2.4208 H   0  0  0  0  0  0  0  0  0  0  0  0
    1.0588   -6.0165    1.3699 H   0  0  0  0  0  0  0  0  0  0  0  0
    2.7493   -5.8038    1.0568 H   0  0  0  0  0  0  0  0  0  0  0  0
    1.8148   -4.4675    1.7233 H   0  0  0  0  0  0  0  0  0  0  0  0
    4.9164   -0.4435    3.2465 H   0  0  0  0  0  0  0  0  0  0  0  0
    3.5577    0.8257    1.9418 H   0  0  0  0  0  0  0  0  0  0  0  0
    3.6845   -0.0435    5.2759 H   0  0  0  0  0  0  0  0  0  0  0  0
    3.4081    2.0898    6.1127 H   0  0  0  0  0  0  0  0  0  0  0  0
    2.9544    4.3973    5.9582 H   0  0  0  0  0  0  0  0  0  0  0  0
    4.2120    4.0674    4.8065 H   0  0  0  0  0  0  0  0  0  0  0  0
    3.8103    4.3788    2.3577 H   0  0  0  0  0  0  0  0  0  0  0  0
    2.2147    4.7200    1.7291 H   0  0  0  0  0  0  0  0  0  0  0  0
    2.5833    3.1188    2.3260 H   0  0  0  0  0  0  0  0  0  0  0  0
    3.5436    6.3960    3.9347 H   0  0  0  0  0  0  0  0  0  0  0  0
    2.1558    6.4972    5.0098 H   0  0  0  0  0  0  0  0  0  0  0  0
    1.9429    6.6768    3.2721 H   0  0  0  0  0  0  0  0  0  0  0  0
  1  2  1  0
  1 37  1  0
  1 38  1  0
  1 39  1  0
  2  6  1  0
  2  3  1  0
  2 40  1  1
  3  4  1  0
  3 41  1  0
  3 42  1  0
  4  5  2  0
  4 43  1  0
  5 34  1  0
  5  6  1  0
  6  7  1  0
  6 44  1  6
  7 32  1  0
  7  8  1  0
  7 45  1  1
  8  9  1  0
  9 30  1  0
  9 10  1  0
  9 46  1  6
 10 11  1  0
 10 47  1  0
 10 48  1  0
 11 17  1  0
 11 12  1  0
 11 49  1  1
 12 13  1  0
 12 28  1  0
 12 50  1  6
 13 14  1  0
 13 51  1  0
 13 52  1  0
 14 15  1  0
 14 53  1  0
 14 54  1  0
 15 26  1  0
 15 16  1  1
 15 17  1  0
 16 55  1  0
 16 56  1  0
 16 57  1  0
 17 18  1  0
 17 58  1  1
 18 19  1  0
 18 59  1  0
 18 60  1  0
 19 26  1  0
 19 20  1  0
 19 61  1  1
 20 21  1  0
 21 22  1  0
 21 23  1  0
 21 24  1  0
 22 62  1  0
 22 63  1  0
 22 64  1  0
 23 65  1  0
 23 66  1  0
 23 67  1  0
 24 25  1  0
 25 26  1  0
 25 68  1  0
 25 69  1  0
 26 27  1  6
 27 70  1  0
 27 71  1  0
 27 72  1  0
 28 29  1  0
 28 30  1  0
 28 73  1  6
 29 74  1  0
 30 31  1  0
 30 75  1  1
 31 32  1  0
 32 33  1  0
 32 76  1  1
 33 34  1  0
 33 77  1  0
 33 78  1  0
 34 35  1  0
 34 36  1  0
 35 79  1  0
 35 80  1  0
 35 81  1  0
 36 82  1  0
 36 83  1  0
 36 84  1  0
M  END
>  <i_m_ct_stereo_status>  (77) 
1

>  <s_m_source_file>  (77) 
/var/tmp/pbs.5076255.sched01/tmpvv81v907/0tx7qkblw.sdf

>  <i_m_source_file_index>  (77) 
31

>  <i_lp_mmshare_version>  (77) 
48012

>  <i_f3d_flags>  (77) 
0

>  <s_epik_input>  (77) 
W0NIM11bQ0BASF0xW0NIMl1bQ0hdPUMoQyhbQ0gzXSkoW0NIM10pW0NIMl1bQ0BASF0yTzMpW0NASF0xW0NASF0yT1tDQEhdKFtDSDJdNClbQ0BIXTNbQ0BIXShbT0hdKVtDQEBIXShbQ0gyXVtDSDJdNSlbQ0BASF00W0NASF0oW0NAXTU2W0NIM10pW0NIMl1bQ0BASF03W0NAXTYoW0NIM10pW0NIMl1PQyhPNykoW0NIM10pW0NIM10=

>  <s_epik_cmdline>  (77) 
J2VwaWtfcHl0aG9uJywgJy1waHQnLCAnMi4wJywgJy1waCcsICc3LjAnLCAnLXRuJywgJzgnLCAnLW1hJywgJzIwMCcsICctaW1hZScsICc8aW5maWxlLm1hZT4nLCAnLW9tYWUnLCAnPG91dGZpbGUubWFlPic=

>  <r_lp_tautomer_probability>  (77) 
1

>  <r_epik_Ionization_Penalty>  (77) 
6.05886e-08

>  <r_epik_Ionization_Penalty_Charging>  (77) 
0

>  <r_epik_Ionization_Penalty_Neutral>  (77) 
6.05886e-08

>  <r_epik_State_Penalty>  (77) 
-0

>  <r_epik_Charging_Adjusted_Penalty>  (77) 
0

>  <i_epik_Tot_Q>  (77) 
0

>  <i_epik_Tot_abs_Q>  (77) 
0

>  <s_lp_Force_Field>  (77) 
OPLS3e

>  <r_lp_Energy>  (77) 
78.5367

>  <b_lp_Chiralities_Consistent>  (77) 
1

>  <s_lp_Variant>  (77) 
12:0-1

>  <s_i_glide_gridfile>  (77) 
pfpi4k_grid

>  <i_i_glide_lignum>  (77) 
31

>  <i_i_glide_rotatable_bonds>  (77) 
1

>  <r_i_docking_score>  (77) 
-1.76452

>  <r_i_glide_ligand_efficiency>  (77) 
-0.0490146

>  <r_i_glide_ligand_efficiency_sa>  (77) 
-0.161842

>  <r_i_glide_ligand_efficiency_ln>  (77) 
-0.384971

>  <r_i_glide_gscore>  (77) 
-1.76452

>  <r_i_glide_lipo>  (77) 
-0.0571354

>  <r_i_glide_hbond>  (77) 
-0.0316955

>  <r_i_glide_metal>  (77) 
-0

>  <r_i_glide_rewards>  (77) 
0

>  <r_i_glide_evdw>  (77) 
-31.2367

>  <r_i_glide_ecoul>  (77) 
-0.536917

>  <r_i_glide_erotb>  (77) 
0

>  <r_i_glide_esite>  (77) 
-0.0333225

>  <r_i_glide_emodel>  (77) 
-35.365

>  <r_i_glide_energy>  (77) 
-31.7736

>  <r_i_glide_einternal>  (77) 
0.352932

>  <r_i_glide_intrahb_reward>  (77) 
-0

>  <i_i_glide_confnum>  (77) 
1

>  <i_i_glide_posenum>  (77) 
36

>  <r_i_glide_eff_state_penalty>  (77) 
0

>  <ligand_id>  (77) 
12

>  <original_smiles>  (77) 
CC1CC=C2C1C1OC3CC4C(CCC5(C)C4CC4OC(C)(C)OCC45C)C(O)C3OC1CC2(C)C

>  <smiles>  (77) 
[H]OC1([H])C2([H])OC3([H])C([H])([H])C(C([H])([H])[H])(C([H])([H])[H])C4=C([H])C([H])([H])C([H])(C([H])([H])[H])C4([H])C3([H])OC2([H])C([H])([H])C2([H])C1([H])C([H])([H])C([H])([H])C1(C([H])([H])[H])C2([H])C([H])([H])C2([H])OC(C([H])([H])[H])(C([H])([H])[H])OC([H])([H])C21C([H])([H])[H]

$$$$
13:0:0
     RDKit          3D

 83 89  0  0  1  0  0  0  0  0999 V2000
    6.7656  -11.5014    2.0104 C   0  0  0  0  0  0  0  0  0  0  0  0
    5.6726  -10.5764    1.8555 O   0  0  0  0  0  0  0  0  0  0  0  0
    5.0515   -9.8247    2.9507 C   0  0  2  0  0  0  0  0  0  0  0  0
    5.2039  -10.6597    4.2468 C   0  0  2  0  0  0  0  0  0  0  0  0
    4.3581  -11.9418    3.9832 C   0  0  0  0  0  0  0  0  0  0  0  0
    3.3801  -11.5198    2.9547 N   0  0  0  0  0  0  0  0  0  0  0  0
    3.4646  -10.0429    2.8615 C   0  0  1  0  0  0  0  0  0  0  0  0
    2.5198   -9.4435    3.9872 C   0  0  1  0  0  0  0  0  0  0  0  0
    2.4197   -8.0612    3.7666 O   0  0  0  0  0  0  0  0  0  0  0  0
    1.0318   -9.9255    3.9613 C   0  0  2  0  0  0  0  0  0  0  0  0
    0.3312   -9.7853    2.6454 C   0  0  0  0  0  0  0  0  0  0  0  0
   -0.8224   -9.0730    2.8018 C   0  0  0  0  0  0  0  0  0  0  0  0
   -0.9323   -8.6608    4.2216 C   0  0  0  0  0  0  0  0  0  0  0  0
    0.2462   -9.1878    4.9141 O   0  0  0  0  0  0  0  0  0  0  0  0
    3.1088   -9.6963    5.3980 C   0  0  0  0  0  0  0  0  0  0  0  0
    4.6439   -9.8487    5.4419 C   0  0  2  0  0  0  0  0  0  0  0  0
    5.3951   -8.5323    5.6707 C   0  0  0  0  0  0  0  0  0  0  0  0
    5.7440   -7.6894    4.4265 C   0  0  2  0  0  0  0  0  0  0  0  0
    5.0705   -6.3151    4.2699 C   0  0  1  0  0  0  0  0  0  0  0  0
    5.5831   -5.3940    5.2103 O   0  0  0  0  0  0  0  0  0  0  0  0
    5.4907   -5.9162    2.8608 C   0  0  2  0  0  0  0  0  0  0  0  0
    4.7163   -4.7003    2.3079 C   0  0  1  0  0  0  0  0  0  0  0  0
    5.5120   -4.1597    1.2821 O   0  0  0  0  0  0  0  0  0  0  0  0
    5.3266   -2.7911    0.9594 C   0  0  2  0  0  0  0  0  0  0  0  0
    4.1659   -2.5478    0.1952 O   0  0  0  0  0  0  0  0  0  0  0  0
    4.1456   -3.1568   -1.1041 C   0  0  1  0  0  0  0  0  0  0  0  0
    2.7683   -2.8752   -1.7403 C   0  0  0  0  0  0  0  0  0  0  0  0
    2.6805   -3.4225   -3.0394 O   0  0  0  0  0  0  0  0  0  0  0  0
    5.3282   -2.6123   -1.9460 C   0  0  1  0  0  0  0  0  0  0  0  0
    5.1048   -1.2495   -2.3272 O   0  0  0  0  0  0  0  0  0  0  0  0
    6.6570   -2.8154   -1.1821 C   0  0  1  0  0  0  0  0  0  0  0  0
    7.8122   -2.3532   -1.8956 O   0  0  0  0  0  0  0  0  0  0  0  0
    6.5893   -2.2450    0.2553 C   0  0  1  0  0  0  0  0  0  0  0  0
    6.5413   -0.8174    0.2684 O   0  0  0  0  0  0  0  0  0  0  0  0
    3.4114   -5.0182    1.8959 O   0  0  0  0  0  0  0  0  0  0  0  0
    3.1344   -6.2559    1.3495 C   0  0  0  0  0  0  0  0  0  0  0  0
    3.9999   -7.2869    1.3581 C   0  0  0  0  0  0  0  0  0  0  0  0
    5.3456   -7.2092    2.0211 C   0  0  2  0  0  0  0  0  0  0  0  0
    5.7816   -8.3682    3.0146 C   0  0  2  0  0  0  0  0  0  0  0  0
    7.3079   -8.5740    2.7042 C   0  0  0  0  0  0  0  0  0  0  0  0
    8.1882   -7.4582    2.6181 O   0  0  0  0  0  0  0  0  0  0  0  0
    6.9583  -11.9161    0.9988 H   0  0  0  0  0  0  0  0  0  0  0  0
    6.5111  -12.3216    2.6283 H   0  0  0  0  0  0  0  0  0  0  0  0
    7.6652  -10.9785    2.3456 H   0  0  0  0  0  0  0  0  0  0  0  0
    6.2371  -10.8990    4.4865 H   0  0  0  0  0  0  0  0  0  0  0  0
    4.9212  -12.7410    3.5469 H   0  0  0  0  0  0  0  0  0  0  0  0
    3.8428  -12.3038    4.8874 H   0  0  0  0  0  0  0  0  0  0  0  0
    3.6785  -11.8422    2.0321 H   0  0  0  0  0  0  0  0  0  0  0  0
    3.0810   -9.7963    1.8769 H   0  0  0  0  0  0  0  0  0  0  0  0
    2.1248   -7.9482    2.8783 H   0  0  0  0  0  0  0  0  0  0  0  0
    0.9312  -10.9576    4.2528 H   0  0  0  0  0  0  0  0  0  0  0  0
    0.6627  -10.2630    1.7378 H   0  0  0  0  0  0  0  0  0  0  0  0
   -1.5302   -8.8774    2.0466 H   0  0  0  0  0  0  0  0  0  0  0  0
   -0.9656   -7.5763    4.3053 H   0  0  0  0  0  0  0  0  0  0  0  0
   -1.8872   -9.0213    4.6463 H   0  0  0  0  0  0  0  0  0  0  0  0
    2.7680   -8.9240    6.0894 H   0  0  0  0  0  0  0  0  0  0  0  0
    2.6794  -10.6211    5.8065 H   0  0  0  0  0  0  0  0  0  0  0  0
    4.8273  -10.4227    6.3422 H   0  0  0  0  0  0  0  0  0  0  0  0
    4.8401   -7.9147    6.3665 H   0  0  0  0  0  0  0  0  0  0  0  0
    6.3373   -8.7634    6.1930 H   0  0  0  0  0  0  0  0  0  0  0  0
    6.7655   -7.3881    4.6435 H   0  0  0  0  0  0  0  0  0  0  0  0
    3.9863   -6.3582    4.3617 H   0  0  0  0  0  0  0  0  0  0  0  0
    5.3422   -5.6901    6.0746 H   0  0  0  0  0  0  0  0  0  0  0  0
    6.5434   -5.6225    2.8846 H   0  0  0  0  0  0  0  0  0  0  0  0
    4.6239   -3.9655    3.1065 H   0  0  0  0  0  0  0  0  0  0  0  0
    5.1741   -2.2471    1.8984 H   0  0  0  0  0  0  0  0  0  0  0  0
    4.2410   -4.2294   -0.9541 H   0  0  0  0  0  0  0  0  0  0  0  0
    1.9462   -3.2531   -1.1301 H   0  0  0  0  0  0  0  0  0  0  0  0
    2.5954   -1.8043   -1.8401 H   0  0  0  0  0  0  0  0  0  0  0  0
    2.7302   -4.4176   -2.9483 H   0  0  0  0  0  0  0  0  0  0  0  0
    5.3788   -3.2090   -2.8563 H   0  0  0  0  0  0  0  0  0  0  0  0
    4.2006   -1.1558   -2.6573 H   0  0  0  0  0  0  0  0  0  0  0  0
    6.7755   -3.8915   -1.0605 H   0  0  0  0  0  0  0  0  0  0  0  0
    7.9129   -2.8074   -2.7579 H   0  0  0  0  0  0  0  0  0  0  0  0
    7.4680   -2.5782    0.8123 H   0  0  0  0  0  0  0  0  0  0  0  0
    6.7719   -0.4793    1.1458 H   0  0  0  0  0  0  0  0  0  0  0  0
    2.1711   -6.2676    0.8751 H   0  0  0  0  0  0  0  0  0  0  0  0
    3.7674   -8.1979    0.8237 H   0  0  0  0  0  0  0  0  0  0  0  0
    6.0259   -7.1503    1.1662 H   0  0  0  0  0  0  0  0  0  0  0  0
    7.7267   -9.2998    3.3964 H   0  0  0  0  0  0  0  0  0  0  0  0
    7.3927   -8.9791    1.7046 H   0  0  0  0  0  0  0  0  0  0  0  0
    9.0417   -7.7647    2.3160 H   0  0  0  0  0  0  0  0  0  0  0  0
    2.4320  -11.8675    3.1417 H   0  0  0  0  0  0  0  0  0  0  0  0
  1  2  1  0
  1 42  1  0
  1 43  1  0
  1 44  1  0
  3  2  1  6
  3  7  1  0
  3 39  1  0
  3  4  1  0
  4 16  1  0
  4  5  1  0
  4 45  1  1
  5  6  1  0
  5 46  1  0
  5 47  1  0
  6  7  1  0
  6 48  1  0
  6 83  1  0
  7  8  1  0
  7 49  1  6
  8  9  1  6
  8 10  1  0
  8 15  1  0
  9 50  1  0
 10 14  1  0
 10 11  1  0
 10 51  1  1
 11 12  2  0
 11 52  1  0
 12 13  1  0
 12 53  1  0
 13 14  1  0
 13 54  1  0
 13 55  1  0
 15 16  1  0
 15 56  1  0
 15 57  1  0
 16 17  1  0
 16 58  1  1
 17 18  1  0
 17 59  1  0
 17 60  1  0
 18 39  1  0
 18 19  1  0
 18 61  1  1
 19 20  1  0
 19 21  1  0
 19 62  1  6
 20 63  1  0
 21 38  1  0
 21 22  1  0
 21 64  1  1
 22 23  1  0
 22 35  1  0
 22 65  1  1
 23 24  1  0
 24 33  1  0
 24 25  1  0
 24 66  1  1
 25 26  1  0
 26 27  1  0
 26 29  1  0
 26 67  1  1
 27 28  1  0
 27 68  1  0
 27 69  1  0
 28 70  1  0
 29 30  1  0
 29 31  1  0
 29 71  1  6
 30 72  1  0
 31 32  1  0
 31 33  1  0
 31 73  1  1
 32 74  1  0
 33 34  1  0
 33 75  1  1
 34 76  1  0
 35 36  1  0
 36 37  2  0
 36 77  1  0
 37 38  1  0
 37 78  1  0
 38 39  1  0
 38 79  1  6
 39 40  1  6
 40 41  1  0
 40 80  1  0
 40 81  1  0
 41 82  1  0
M  CHG  1   6   1
M  END
>  <i_m_ct_stereo_status>  (78) 
1

>  <s_m_source_file>  (78) 
/var/tmp/pbs.5076255.sched01/tmpvv81v907/0tx7qkblw.sdf

>  <i_m_source_file_index>  (78) 
32

>  <i_lp_mmshare_version>  (78) 
48012

>  <i_f3d_flags>  (78) 
0

>  <s_epik_input>  (78) 
TzFbQ0gyXVtDSF09W0NIXVtDQEhdMVtDQF0oW09IXSkoW0NAQEhdMltOSF1bQ0gyXTMpW0NIMl1bQ0BASF0oW0NAQEhdM1tDQEBdMjRPW0NIM10pW0NIMl1bQ0BIXTVbQ0BdNChbQ0gyXVtPSF0pW0NAQEhdNltDQEhdKFtDQEBIXTVbT0hdKVtDQEhdKE9bQ0hdPVtDSF02KU9bQ0BASF03T1tDQEBIXShbQ0gyXVtPSF0pW0NAQEhdKFtPSF0pW0NAQEhdKFtPSF0pW0NASF03W09IXQ==

>  <s_epik_cmdline>  (78) 
J2VwaWtfcHl0aG9uJywgJy1waHQnLCAnMi4wJywgJy1waCcsICc3LjAnLCAnLXRuJywgJzgnLCAnLW1hJywgJzIwMCcsICctaW1hZScsICc8aW5maWxlLm1hZT4nLCAnLW9tYWUnLCAnPG91dGZpbGUubWFlPic=

>  <r_epik_Ionization_Penalty>  (78) 
0.012034

>  <r_epik_Ionization_Penalty_Charging>  (78) 
0.0120295

>  <r_epik_Ionization_Penalty_Neutral>  (78) 
4.4447e-06

>  <r_epik_State_Penalty>  (78) 
0.00929015

>  <r_epik_Charging_Adjusted_Penalty>  (78) 
0.0213197

>  <i_epik_Tot_Q>  (78) 
1

>  <i_epik_Tot_abs_Q>  (78) 
1

>  <s_epik_Chemistry_Notes>  (78) 
This compound contains an acetal/aminal-like group ( X-CH(R)-Y where X, Y are N, S, or O) that may be acid/base labile, releasing an aldehyde.

>  <s_lp_Force_Field>  (78) 
OPLS3e

>  <r_lp_Energy>  (78) 
79.8844

>  <b_lp_Chiralities_Consistent>  (78) 
1

>  <s_lp_Variant>  (78) 
13:0-1

>  <s_i_glide_gridfile>  (78) 
pfpi4k_grid

>  <i_i_glide_lignum>  (78) 
32

>  <i_i_glide_rotatable_bonds>  (78) 
13

>  <r_i_docking_score>  (78) 
-4.91847

>  <r_i_glide_ligand_efficiency>  (78) 
-0.119963

>  <r_i_glide_ligand_efficiency_sa>  (78) 
-0.413657

>  <r_i_glide_ligand_efficiency_ln>  (78) 
-1.04347

>  <r_i_glide_gscore>  (78) 
-4.91847

>  <r_i_glide_lipo>  (78) 
-0.326244

>  <r_i_glide_hbond>  (78) 
-0.324414

>  <r_i_glide_metal>  (78) 
-0

>  <r_i_glide_rewards>  (78) 
-0.0797774

>  <r_i_glide_evdw>  (78) 
-28.201

>  <r_i_glide_ecoul>  (78) 
-19.3748

>  <r_i_glide_erotb>  (78) 
0.202444

>  <r_i_glide_esite>  (78) 
-0.0742055

>  <r_i_glide_emodel>  (78) 
-56.266

>  <r_i_glide_energy>  (78) 
-47.5758

>  <r_i_glide_einternal>  (78) 
17.305

>  <r_i_glide_intrahb_reward>  (78) 
-0

>  <i_i_glide_confnum>  (78) 
5

>  <i_i_glide_posenum>  (78) 
18

>  <r_i_glide_eff_state_penalty>  (78) 
0

>  <ligand_id>  (78) 
13

>  <original_smiles>  (78) 
COC12C3CNC1C(O)(C1C=CCO1)CC3CC1C(O)C3C(OC4OC(CO)C(O)C(O)C4O)OC=CC3C12CO

>  <smiles>  (78) 
[H]OC([H])([H])C1([H])OC([H])(OC2([H])OC([H])=C([H])C3([H])C2([H])C([H])(O[H])C2([H])C([H])([H])C4([H])C([H])([H])C(O[H])(C5([H])OC([H])([H])C([H])=C5[H])C5([H])C(OC([H])([H])[H])(C4([H])C([H])([H])[N+]5([H])[H])C32C([H])([H])O[H])C([H])(O[H])C([H])(O[H])C1([H])O[H]

$$$$
13:0:1
     RDKit          3D

 83 89  0  0  1  0  0  0  0  0999 V2000
    5.7850   -9.8170    1.0568 C   0  0  0  0  0  0  0  0  0  0  0  0
    5.5011  -10.1705    2.4016 O   0  0  0  0  0  0  0  0  0  0  0  0
    4.5698   -9.3752    3.1547 C   0  0  2  0  0  0  0  0  0  0  0  0
    4.2797  -10.2457    4.3878 C   0  0  2  0  0  0  0  0  0  0  0  0
    3.5919  -11.4930    3.7911 C   0  0  0  0  0  0  0  0  0  0  0  0
    2.9989  -11.0269    2.5339 N   0  0  0  0  0  0  0  0  0  0  0  0
    3.1302   -9.5577    2.5010 C   0  0  1  0  0  0  0  0  0  0  0  0
    1.8901   -8.9451    3.2623 C   0  0  1  0  0  0  0  0  0  0  0  0
    2.0004   -7.5555    3.1303 O   0  0  0  0  0  0  0  0  0  0  0  0
    0.4746   -9.3059    2.6585 C   0  0  2  0  0  0  0  0  0  0  0  0
   -0.3009   -8.1854    1.9938 C   0  0  0  0  0  0  0  0  0  0  0  0
   -1.4898   -8.0449    2.5433 C   0  0  0  0  0  0  0  0  0  0  0  0
   -1.6482   -9.0370    3.6344 C   0  0  0  0  0  0  0  0  0  0  0  0
   -0.4240   -9.7810    3.6653 O   0  0  0  0  0  0  0  0  0  0  0  0
    1.9430   -9.2535    4.7797 C   0  0  0  0  0  0  0  0  0  0  0  0
    3.3493   -9.4662    5.3495 C   0  0  2  0  0  0  0  0  0  0  0  0
    3.9919   -8.2034    5.9156 C   0  0  0  0  0  0  0  0  0  0  0  0
    4.8062   -7.3638    4.9183 C   0  0  2  0  0  0  0  0  0  0  0  0
    4.3156   -5.9429    4.5986 C   0  0  1  0  0  0  0  0  0  0  0  0
    4.4285   -5.0493    5.6938 O   0  0  0  0  0  0  0  0  0  0  0  0
    5.2591   -5.5407    3.4668 C   0  0  2  0  0  0  0  0  0  0  0  0
    4.7580   -4.2944    2.7152 C   0  0  1  0  0  0  0  0  0  0  0  0
    5.8370   -3.8339    1.9407 O   0  0  0  0  0  0  0  0  0  0  0  0
    5.7551   -2.4922    1.4851 C   0  0  2  0  0  0  0  0  0  0  0  0
    4.6379   -2.2589    0.6719 O   0  0  0  0  0  0  0  0  0  0  0  0
    4.5893   -3.0485   -0.5344 C   0  0  1  0  0  0  0  0  0  0  0  0
    3.1927   -2.8632   -1.1602 C   0  0  0  0  0  0  0  0  0  0  0  0
    3.0985   -3.4450   -2.4540 O   0  0  0  0  0  0  0  0  0  0  0  0
    5.7717   -2.6654   -1.4209 C   0  0  1  0  0  0  0  0  0  0  0  0
    5.5530   -1.3513   -1.9182 O   0  0  0  0  0  0  0  0  0  0  0  0
    7.0914   -2.8116   -0.6362 C   0  0  1  0  0  0  0  0  0  0  0  0
    8.2113   -2.4395   -1.4512 O   0  0  0  0  0  0  0  0  0  0  0  0
    7.0229   -2.0665    0.7048 C   0  0  1  0  0  0  0  0  0  0  0  0
    6.9332   -0.6607    0.4683 O   0  0  0  0  0  0  0  0  0  0  0  0
    3.5993   -4.5925    1.9702 O   0  0  0  0  0  0  0  0  0  0  0  0
    3.5252   -5.7599    1.2503 C   0  0  0  0  0  0  0  0  0  0  0  0
    4.3404   -6.8026    1.4683 C   0  0  0  0  0  0  0  0  0  0  0  0
    5.3703   -6.8059    2.5751 C   0  0  2  0  0  0  0  0  0  0  0  0
    5.3337   -8.0173    3.5853 C   0  0  2  0  0  0  0  0  0  0  0  0
    6.8457   -8.4024    3.8550 C   0  0  0  0  0  0  0  0  0  0  0  0
    7.7024   -7.3317    4.2200 O   0  0  0  0  0  0  0  0  0  0  0  0
    6.4906  -10.5335    0.6366 H   0  0  0  0  0  0  0  0  0  0  0  0
    6.2376   -8.8329    0.9500 H   0  0  0  0  0  0  0  0  0  0  0  0
    4.8776   -9.8538    0.4661 H   0  0  0  0  0  0  0  0  0  0  0  0
    5.1832  -10.5438    4.9252 H   0  0  0  0  0  0  0  0  0  0  0  0
    4.3211  -12.2636    3.5627 H   0  0  0  0  0  0  0  0  0  0  0  0
    2.8519  -11.9357    4.4536 H   0  0  0  0  0  0  0  0  0  0  0  0
    3.5702  -11.4102    1.7843 H   0  0  0  0  0  0  0  0  0  0  0  0
    3.0734   -9.2516    1.4609 H   0  0  0  0  0  0  0  0  0  0  0  0
    2.1129   -7.3768    2.2088 H   0  0  0  0  0  0  0  0  0  0  0  0
    0.5450  -10.1357    1.9613 H   0  0  0  0  0  0  0  0  0  0  0  0
    0.0784   -7.6752    1.1089 H   0  0  0  0  0  0  0  0  0  0  0  0
   -2.2930   -7.3927    2.2350 H   0  0  0  0  0  0  0  0  0  0  0  0
   -1.8116   -8.5452    4.5851 H   0  0  0  0  0  0  0  0  0  0  0  0
   -2.4665   -9.6731    3.3518 H   0  0  0  0  0  0  0  0  0  0  0  0
    1.4038   -8.4802    5.3258 H   0  0  0  0  0  0  0  0  0  0  0  0
    1.4116  -10.1844    5.0073 H   0  0  0  0  0  0  0  0  0  0  0  0
    3.1717  -10.0903    6.2151 H   0  0  0  0  0  0  0  0  0  0  0  0
    3.2247   -7.5775    6.3593 H   0  0  0  0  0  0  0  0  0  0  0  0
    4.6415   -8.5021    6.7521 H   0  0  0  0  0  0  0  0  0  0  0  0
    5.6757   -7.1487    5.5220 H   0  0  0  0  0  0  0  0  0  0  0  0
    3.2815   -5.9316    4.2686 H   0  0  0  0  0  0  0  0  0  0  0  0
    5.3230   -5.0303    5.9961 H   0  0  0  0  0  0  0  0  0  0  0  0
    6.2461   -5.2939    3.8749 H   0  0  0  0  0  0  0  0  0  0  0  0
    4.4842   -3.5058    3.4202 H   0  0  0  0  0  0  0  0  0  0  0  0
    5.6306   -1.8566    2.3757 H   0  0  0  0  0  0  0  0  0  0  0  0
    4.7801   -4.0914   -0.3078 H   0  0  0  0  0  0  0  0  0  0  0  0
    2.4192   -3.2811   -0.5133 H   0  0  0  0  0  0  0  0  0  0  0  0
    2.9795   -1.7948   -1.2448 H   0  0  0  0  0  0  0  0  0  0  0  0
    3.1664   -4.4167   -2.3849 H   0  0  0  0  0  0  0  0  0  0  0  0
    5.8065   -3.3810   -2.2492 H   0  0  0  0  0  0  0  0  0  0  0  0
    5.4054   -0.7989   -1.1327 H   0  0  0  0  0  0  0  0  0  0  0  0
    7.2051   -3.8662   -0.3828 H   0  0  0  0  0  0  0  0  0  0  0  0
    9.0649   -2.6611   -1.0466 H   0  0  0  0  0  0  0  0  0  0  0  0
    7.9273   -2.3075    1.2550 H   0  0  0  0  0  0  0  0  0  0  0  0
    7.2886   -0.1552    1.2380 H   0  0  0  0  0  0  0  0  0  0  0  0
    2.8202   -5.7020    0.4308 H   0  0  0  0  0  0  0  0  0  0  0  0
    4.2969   -7.6492    0.8037 H   0  0  0  0  0  0  0  0  0  0  0  0
    6.3208   -6.7654    2.0396 H   0  0  0  0  0  0  0  0  0  0  0  0
    6.9274   -9.1735    4.6201 H   0  0  0  0  0  0  0  0  0  0  0  0
    7.3282   -8.8062    2.9686 H   0  0  0  0  0  0  0  0  0  0  0  0
    7.4482   -7.0065    5.0690 H   0  0  0  0  0  0  0  0  0  0  0  0
    2.0476  -11.3452    2.4359 H   0  0  0  0  0  0  0  0  0  0  0  0
  1  2  1  0
  1 42  1  0
  1 43  1  0
  1 44  1  0
  3  2  1  6
  3  7  1  0
  3 39  1  0
  3  4  1  0
  4 16  1  0
  4  5  1  0
  4 45  1  1
  5  6  1  0
  5 46  1  0
  5 47  1  0
  6  7  1  0
  6 48  1  0
  6 83  1  0
  7  8  1  0
  7 49  1  6
  8  9  1  1
  8 10  1  0
  8 15  1  0
  9 50  1  0
 10 14  1  0
 10 11  1  0
 10 51  1  6
 11 12  2  0
 11 52  1  0
 12 13  1  0
 12 53  1  0
 13 14  1  0
 13 54  1  0
 13 55  1  0
 15 16  1  0
 15 56  1  0
 15 57  1  0
 16 17  1  0
 16 58  1  1
 17 18  1  0
 17 59  1  0
 17 60  1  0
 18 39  1  0
 18 19  1  0
 18 61  1  1
 19 20  1  0
 19 21  1  0
 19 62  1  6
 20 63  1  0
 21 38  1  0
 21 22  1  0
 21 64  1  1
 22 23  1  0
 22 35  1  0
 22 65  1  1
 23 24  1  0
 24 33  1  0
 24 25  1  0
 24 66  1  1
 25 26  1  0
 26 27  1  0
 26 29  1  0
 26 67  1  1
 27 28  1  0
 27 68  1  0
 27 69  1  0
 28 70  1  0
 29 30  1  0
 29 31  1  0
 29 71  1  6
 30 72  1  0
 31 32  1  0
 31 33  1  0
 31 73  1  1
 32 74  1  0
 33 34  1  0
 33 75  1  1
 34 76  1  0
 35 36  1  0
 36 37  2  0
 36 77  1  0
 37 38  1  0
 37 78  1  0
 38 39  1  0
 38 79  1  6
 39 40  1  1
 40 41  1  0
 40 80  1  0
 40 81  1  0
 41 82  1  0
M  CHG  1   6   1
M  END
>  <i_m_ct_stereo_status>  (79) 
1

>  <s_m_source_file>  (79) 
/var/tmp/pbs.5076255.sched01/tmpvv81v907/0tx7qkblw.sdf

>  <i_m_source_file_index>  (79) 
32

>  <i_lp_mmshare_version>  (79) 
48012

>  <i_f3d_flags>  (79) 
0

>  <s_epik_input>  (79) 
TzFbQ0gyXVtDSF09W0NIXVtDQEhdMVtDQF0oW09IXSkoW0NAQEhdMltOSF1bQ0gyXTMpW0NIMl1bQ0BASF0oW0NAQEhdM1tDQEBdMjRPW0NIM10pW0NIMl1bQ0BIXTVbQ0BdNChbQ0gyXVtPSF0pW0NAQEhdNltDQEhdKFtDQEBIXTVbT0hdKVtDQEhdKE9bQ0hdPVtDSF02KU9bQ0BASF03T1tDQEBIXShbQ0gyXVtPSF0pW0NAQEhdKFtPSF0pW0NAQEhdKFtPSF0pW0NASF03W09IXQ==

>  <s_epik_cmdline>  (79) 
J2VwaWtfcHl0aG9uJywgJy1waHQnLCAnMi4wJywgJy1waCcsICc3LjAnLCAnLXRuJywgJzgnLCAnLW1hJywgJzIwMCcsICctaW1hZScsICc8aW5maWxlLm1hZT4nLCAnLW9tYWUnLCAnPG91dGZpbGUubWFlPic=

>  <r_epik_Ionization_Penalty>  (79) 
0.012034

>  <r_epik_Ionization_Penalty_Charging>  (79) 
0.0120295

>  <r_epik_Ionization_Penalty_Neutral>  (79) 
4.4447e-06

>  <r_epik_State_Penalty>  (79) 
0.00929015

>  <r_epik_Charging_Adjusted_Penalty>  (79) 
0.0213197

>  <i_epik_Tot_Q>  (79) 
1

>  <i_epik_Tot_abs_Q>  (79) 
1

>  <s_epik_Chemistry_Notes>  (79) 
This compound contains an acetal/aminal-like group ( X-CH(R)-Y where X, Y are N, S, or O) that may be acid/base labile, releasing an aldehyde.

>  <s_lp_Force_Field>  (79) 
OPLS3e

>  <r_lp_Energy>  (79) 
79.8844

>  <b_lp_Chiralities_Consistent>  (79) 
1

>  <s_lp_Variant>  (79) 
13:0-1

>  <s_i_glide_gridfile>  (79) 
pfpi4k_grid

>  <i_i_glide_lignum>  (79) 
32

>  <i_i_glide_rotatable_bonds>  (79) 
13

>  <r_i_docking_score>  (79) 
-4.61856

>  <r_i_glide_ligand_efficiency>  (79) 
-0.112648

>  <r_i_glide_ligand_efficiency_sa>  (79) 
-0.388434

>  <r_i_glide_ligand_efficiency_ln>  (79) 
-0.979843

>  <r_i_glide_gscore>  (79) 
-4.61856

>  <r_i_glide_lipo>  (79) 
-0.163583

>  <r_i_glide_hbond>  (79) 
-0.2

>  <r_i_glide_metal>  (79) 
-0

>  <r_i_glide_rewards>  (79) 
-0.635376

>  <r_i_glide_evdw>  (79) 
-23.1336

>  <r_i_glide_ecoul>  (79) 
-16.8776

>  <r_i_glide_erotb>  (79) 
0.141711

>  <r_i_glide_esite>  (79) 
-0.0729975

>  <r_i_glide_emodel>  (79) 
-56.9617

>  <r_i_glide_energy>  (79) 
-40.0112

>  <r_i_glide_einternal>  (79) 
10.9693

>  <r_i_glide_intrahb_reward>  (79) 
-0.5

>  <i_i_glide_confnum>  (79) 
5

>  <i_i_glide_posenum>  (79) 
10

>  <r_i_glide_eff_state_penalty>  (79) 
0

>  <ligand_id>  (79) 
13

>  <original_smiles>  (79) 
COC12C3CNC1C(O)(C1C=CCO1)CC3CC1C(O)C3C(OC4OC(CO)C(O)C(O)C4O)OC=CC3C12CO

>  <smiles>  (79) 
[H]OC([H])([H])C1([H])OC([H])(OC2([H])OC([H])=C([H])C3([H])C2([H])C([H])(O[H])C2([H])C([H])([H])C4([H])C([H])([H])C(O[H])(C5([H])OC([H])([H])C([H])=C5[H])C5([H])C(OC([H])([H])[H])(C4([H])C([H])([H])[N+]5([H])[H])C32C([H])([H])O[H])C([H])(O[H])C([H])(O[H])C1([H])O[H]

$$$$
13:0:2
     RDKit          3D

 83 89  0  0  1  0  0  0  0  0999 V2000
    5.6998  -10.2168    1.0803 C   0  0  0  0  0  0  0  0  0  0  0  0
    5.6164  -10.6055    2.4566 O   0  0  0  0  0  0  0  0  0  0  0  0
    4.9009   -9.8065    3.4162 C   0  0  2  0  0  0  0  0  0  0  0  0
    4.9331  -10.6308    4.7238 C   0  0  2  0  0  0  0  0  0  0  0  0
    4.1239  -11.8989    4.3859 C   0  0  0  0  0  0  0  0  0  0  0  0
    3.2178  -11.4840    3.3043 N   0  0  0  0  0  0  0  0  0  0  0  0
    3.3391  -10.0142    3.1757 C   0  0  1  0  0  0  0  0  0  0  0  0
    2.3264   -9.3665    4.2026 C   0  0  1  0  0  0  0  0  0  0  0  0
    2.3150   -7.9854    3.9659 O   0  0  0  0  0  0  0  0  0  0  0  0
    0.8255   -9.7627    4.0361 C   0  0  2  0  0  0  0  0  0  0  0  0
    0.2504   -9.5748    2.6581 C   0  0  0  0  0  0  0  0  0  0  0  0
   -0.8549   -8.8513    2.7162 C   0  0  0  0  0  0  0  0  0  0  0  0
   -1.1253   -8.4646    4.1274 C   0  0  0  0  0  0  0  0  0  0  0  0
   -0.0364   -9.0006    4.9119 O   0  0  0  0  0  0  0  0  0  0  0  0
    2.7561   -9.6168    5.6723 C   0  0  0  0  0  0  0  0  0  0  0  0
    4.2750   -9.8084    5.8655 C   0  0  2  0  0  0  0  0  0  0  0  0
    5.0374   -8.5193    6.1793 C   0  0  0  0  0  0  0  0  0  0  0  0
    5.5401   -7.7206    4.9629 C   0  0  2  0  0  0  0  0  0  0  0  0
    4.9686   -6.3127    4.7150 C   0  0  1  0  0  0  0  0  0  0  0  0
    5.4234   -5.3824    5.6786 O   0  0  0  0  0  0  0  0  0  0  0  0
    5.5706   -5.9699    3.3585 C   0  0  2  0  0  0  0  0  0  0  0  0
    4.9170   -4.7394    2.6957 C   0  0  1  0  0  0  0  0  0  0  0  0
    5.8345   -4.2764    1.7495 O   0  0  0  0  0  0  0  0  0  0  0  0
    5.7208   -2.9189    1.3656 C   0  0  2  0  0  0  0  0  0  0  0  0
    4.5694   -2.6297    0.6020 O   0  0  0  0  0  0  0  0  0  0  0  0
    4.4944   -3.2933   -0.6707 C   0  0  1  0  0  0  0  0  0  0  0  0
    3.1209   -2.9597   -1.2970 C   0  0  0  0  0  0  0  0  0  0  0  0
    3.0107   -3.4617   -2.6423 O   0  0  0  0  0  0  0  0  0  0  0  0
    5.6978   -2.8428   -1.5310 C   0  0  1  0  0  0  0  0  0  0  0  0
    5.5314   -1.4764   -1.9362 O   0  0  0  0  0  0  0  0  0  0  0  0
    7.0261   -3.0933   -0.7782 C   0  0  1  0  0  0  0  0  0  0  0  0
    8.1585   -2.6635   -1.5478 O   0  0  0  0  0  0  0  0  0  0  0  0
    7.0051   -2.4815    0.6311 C   0  0  1  0  0  0  0  0  0  0  0  0
    7.0354   -1.0560    0.5655 O   0  0  0  0  0  0  0  0  0  0  0  0
    3.6470   -5.0128    2.1611 O   0  0  0  0  0  0  0  0  0  0  0  0
    3.3747   -6.2437    1.6094 C   0  0  0  0  0  0  0  0  0  0  0  0
    4.1904   -7.2975    1.7328 C   0  0  0  0  0  0  0  0  0  0  0  0
    5.4781   -7.2701    2.5330 C   0  0  2  0  0  0  0  0  0  0  0  0
    5.7384   -8.4371    3.5780 C   0  0  2  0  0  0  0  0  0  0  0  0
    7.2921   -8.8132    3.5326 C   0  0  0  0  0  0  0  0  0  0  0  0
    8.1776   -7.7036    3.5881 O   0  0  0  0  0  0  0  0  0  0  0  0
    6.2516  -10.9988    0.5535 H   0  0  0  0  0  0  0  0  0  0  0  0
    6.2294   -9.2943    0.8669 H   0  0  0  0  0  0  0  0  0  0  0  0
    4.7240  -10.1018    0.6155 H   0  0  0  0  0  0  0  0  0  0  0  0
    5.9449  -10.9081    5.0242 H   0  0  0  0  0  0  0  0  0  0  0  0
    4.7760  -12.6789    4.0158 H   0  0  0  0  0  0  0  0  0  0  0  0
    3.5934  -12.3018    5.2434 H   0  0  0  0  0  0  0  0  0  0  0  0
    3.5783  -11.8665    2.4377 H   0  0  0  0  0  0  0  0  0  0  0  0
    3.0345   -9.7755    2.1641 H   0  0  0  0  0  0  0  0  0  0  0  0
    3.2096   -7.6936    4.0011 H   0  0  0  0  0  0  0  0  0  0  0  0
    0.6586  -10.7988    4.2910 H   0  0  0  0  0  0  0  0  0  0  0  0
    0.6841  -10.0508    1.7737 H   0  0  0  0  0  0  0  0  0  0  0  0
   -1.4850   -8.5905    1.8891 H   0  0  0  0  0  0  0  0  0  0  0  0
   -1.1132   -7.3884    4.2242 H   0  0  0  0  0  0  0  0  0  0  0  0
   -2.0844   -8.8624    4.4444 H   0  0  0  0  0  0  0  0  0  0  0  0
    2.3869   -8.8138    6.3108 H   0  0  0  0  0  0  0  0  0  0  0  0
    2.2469  -10.5152    6.0569 H   0  0  0  0  0  0  0  0  0  0  0  0
    4.3429  -10.3847    6.7789 H   0  0  0  0  0  0  0  0  0  0  0  0
    4.4232   -7.8717    6.7950 H   0  0  0  0  0  0  0  0  0  0  0  0
    5.8985   -8.7765    6.8199 H   0  0  0  0  0  0  0  0  0  0  0  0
    6.5290   -7.4625    5.3187 H   0  0  0  0  0  0  0  0  0  0  0  0
    3.8793   -6.2962    4.6956 H   0  0  0  0  0  0  0  0  0  0  0  0
    4.9737   -4.5624    5.5414 H   0  0  0  0  0  0  0  0  0  0  0  0
    6.6262   -5.7176    3.4943 H   0  0  0  0  0  0  0  0  0  0  0  0
    4.7633   -3.9616    3.4426 H   0  0  0  0  0  0  0  0  0  0  0  0
    5.6118   -2.3262    2.2798 H   0  0  0  0  0  0  0  0  0  0  0  0
    4.5501   -4.3653   -0.4881 H   0  0  0  0  0  0  0  0  0  0  0  0
    2.3006   -3.3750   -0.7088 H   0  0  0  0  0  0  0  0  0  0  0  0
    2.9768   -1.8823   -1.3097 H   0  0  0  0  0  0  0  0  0  0  0  0
    3.0541   -4.4004   -2.6546 H   0  0  0  0  0  0  0  0  0  0  0  0
    5.7235   -3.4714   -2.4219 H   0  0  0  0  0  0  0  0  0  0  0  0
    4.6453   -1.3736   -2.3159 H   0  0  0  0  0  0  0  0  0  0  0  0
    7.1009   -4.1712   -0.6381 H   0  0  0  0  0  0  0  0  0  0  0  0
    9.0008   -2.9535   -1.1668 H   0  0  0  0  0  0  0  0  0  0  0  0
    7.8729   -2.8382    1.1906 H   0  0  0  0  0  0  0  0  0  0  0  0
    7.1915   -0.6500    1.4289 H   0  0  0  0  0  0  0  0  0  0  0  0
    2.4575   -6.2398    1.0310 H   0  0  0  0  0  0  0  0  0  0  0  0
    3.9384   -8.1942    1.1990 H   0  0  0  0  0  0  0  0  0  0  0  0
    6.2640   -7.2381    1.7757 H   0  0  0  0  0  0  0  0  0  0  0  0
    7.5499   -9.5277    4.3209 H   0  0  0  0  0  0  0  0  0  0  0  0
    7.6371   -9.2905    2.6226 H   0  0  0  0  0  0  0  0  0  0  0  0
    8.1616   -7.3172    4.4504 H   0  0  0  0  0  0  0  0  0  0  0  0
    2.2728  -11.8109    3.4712 H   0  0  0  0  0  0  0  0  0  0  0  0
  1  2  1  0
  1 42  1  0
  1 43  1  0
  1 44  1  0
  3  2  1  6
  3  7  1  0
  3 39  1  0
  3  4  1  0
  4 16  1  0
  4  5  1  0
  4 45  1  1
  5  6  1  0
  5 46  1  0
  5 47  1  0
  6  7  1  0
  6 48  1  0
  6 83  1  0
  7  8  1  0
  7 49  1  6
  8  9  1  6
  8 10  1  0
  8 15  1  0
  9 50  1  0
 10 14  1  0
 10 11  1  0
 10 51  1  1
 11 12  2  0
 11 52  1  0
 12 13  1  0
 12 53  1  0
 13 14  1  0
 13 54  1  0
 13 55  1  0
 15 16  1  0
 15 56  1  0
 15 57  1  0
 16 17  1  0
 16 58  1  1
 17 18  1  0
 17 59  1  0
 17 60  1  0
 18 39  1  0
 18 19  1  0
 18 61  1  1
 19 20  1  0
 19 21  1  0
 19 62  1  6
 20 63  1  0
 21 38  1  0
 21 22  1  0
 21 64  1  1
 22 23  1  0
 22 35  1  0
 22 65  1  1
 23 24  1  0
 24 33  1  0
 24 25  1  0
 24 66  1  1
 25 26  1  0
 26 27  1  0
 26 29  1  0
 26 67  1  1
 27 28  1  0
 27 68  1  0
 27 69  1  0
 28 70  1  0
 29 30  1  0
 29 31  1  0
 29 71  1  6
 30 72  1  0
 31 32  1  0
 31 33  1  0
 31 73  1  1
 32 74  1  0
 33 34  1  0
 33 75  1  1
 34 76  1  0
 35 36  1  0
 36 37  2  0
 36 77  1  0
 37 38  1  0
 37 78  1  0
 38 39  1  0
 38 79  1  6
 39 40  1  1
 40 41  1  0
 40 80  1  0
 40 81  1  0
 41 82  1  0
M  CHG  1   6   1
M  END
>  <i_m_ct_stereo_status>  (80) 
1

>  <s_m_source_file>  (80) 
/var/tmp/pbs.5076255.sched01/tmpvv81v907/0tx7qkblw.sdf

>  <i_m_source_file_index>  (80) 
32

>  <i_lp_mmshare_version>  (80) 
48012

>  <i_f3d_flags>  (80) 
0

>  <s_epik_input>  (80) 
TzFbQ0gyXVtDSF09W0NIXVtDQEhdMVtDQF0oW09IXSkoW0NAQEhdMltOSF1bQ0gyXTMpW0NIMl1bQ0BASF0oW0NAQEhdM1tDQEBdMjRPW0NIM10pW0NIMl1bQ0BIXTVbQ0BdNChbQ0gyXVtPSF0pW0NAQEhdNltDQEhdKFtDQEBIXTVbT0hdKVtDQEhdKE9bQ0hdPVtDSF02KU9bQ0BASF03T1tDQEBIXShbQ0gyXVtPSF0pW0NAQEhdKFtPSF0pW0NAQEhdKFtPSF0pW0NASF03W09IXQ==

>  <s_epik_cmdline>  (80) 
J2VwaWtfcHl0aG9uJywgJy1waHQnLCAnMi4wJywgJy1waCcsICc3LjAnLCAnLXRuJywgJzgnLCAnLW1hJywgJzIwMCcsICctaW1hZScsICc8aW5maWxlLm1hZT4nLCAnLW9tYWUnLCAnPG91dGZpbGUubWFlPic=

>  <r_epik_Ionization_Penalty>  (80) 
0.012034

>  <r_epik_Ionization_Penalty_Charging>  (80) 
0.0120295

>  <r_epik_Ionization_Penalty_Neutral>  (80) 
4.4447e-06

>  <r_epik_State_Penalty>  (80) 
0.00929015

>  <r_epik_Charging_Adjusted_Penalty>  (80) 
0.0213197

>  <i_epik_Tot_Q>  (80) 
1

>  <i_epik_Tot_abs_Q>  (80) 
1

>  <s_epik_Chemistry_Notes>  (80) 
This compound contains an acetal/aminal-like group ( X-CH(R)-Y where X, Y are N, S, or O) that may be acid/base labile, releasing an aldehyde.

>  <s_lp_Force_Field>  (80) 
OPLS3e

>  <r_lp_Energy>  (80) 
79.8844

>  <b_lp_Chiralities_Consistent>  (80) 
1

>  <s_lp_Variant>  (80) 
13:0-1

>  <s_i_glide_gridfile>  (80) 
pfpi4k_grid

>  <i_i_glide_lignum>  (80) 
32

>  <i_i_glide_rotatable_bonds>  (80) 
13

>  <r_i_docking_score>  (80) 
-3.80708

>  <r_i_glide_ligand_efficiency>  (80) 
-0.0928556

>  <r_i_glide_ligand_efficiency_sa>  (80) 
-0.320186

>  <r_i_glide_ligand_efficiency_ln>  (80) 
-0.807685

>  <r_i_glide_gscore>  (80) 
-3.80708

>  <r_i_glide_lipo>  (80) 
-0.348244

>  <r_i_glide_hbond>  (80) 
-0.117526

>  <r_i_glide_metal>  (80) 
-0

>  <r_i_glide_rewards>  (80) 
-0.12391

>  <r_i_glide_evdw>  (80) 
-28.8994

>  <r_i_glide_ecoul>  (80) 
-12.5069

>  <r_i_glide_erotb>  (80) 
0.141711

>  <r_i_glide_esite>  (80) 
-0.0380995

>  <r_i_glide_emodel>  (80) 
-53.2089

>  <r_i_glide_energy>  (80) 
-41.4064

>  <r_i_glide_einternal>  (80) 
5.02383

>  <r_i_glide_intrahb_reward>  (80) 
-0

>  <i_i_glide_confnum>  (80) 
5

>  <i_i_glide_posenum>  (80) 
1

>  <r_i_glide_eff_state_penalty>  (80) 
0

>  <ligand_id>  (80) 
13

>  <original_smiles>  (80) 
COC12C3CNC1C(O)(C1C=CCO1)CC3CC1C(O)C3C(OC4OC(CO)C(O)C(O)C4O)OC=CC3C12CO

>  <smiles>  (80) 
[H]OC([H])([H])C1([H])OC([H])(OC2([H])OC([H])=C([H])C3([H])C2([H])C([H])(O[H])C2([H])C([H])([H])C4([H])C([H])([H])C(O[H])(C5([H])OC([H])([H])C([H])=C5[H])C5([H])C(OC([H])([H])[H])(C4([H])C([H])([H])[N+]5([H])[H])C32C([H])([H])O[H])C([H])(O[H])C([H])(O[H])C1([H])O[H]

$$$$
13:1:0
     RDKit          3D

 82 88  0  0  1  0  0  0  0  0999 V2000
    5.2916   -6.3007    5.7334 C   0  0  0  0  0  0  0  0  0  0  0  0
    4.2106   -6.8928    6.4395 O   0  0  0  0  0  0  0  0  0  0  0  0
    2.8186   -6.6195    6.1334 C   0  0  2  0  0  0  0  0  0  0  0  0
    2.1342   -7.7991    6.8474 C   0  0  2  0  0  0  0  0  0  0  0  0
    2.5737   -9.0294    6.0469 C   0  0  0  0  0  0  0  0  0  0  0  0
    2.8764   -8.5243    4.7071 N   0  0  0  0  0  0  0  0  0  0  0  0
    2.4552   -7.1211    4.6726 C   0  0  1  0  0  0  0  0  0  0  0  0
    0.9219   -7.1438    4.2640 C   0  0  1  0  0  0  0  0  0  0  0  0
    0.5845   -5.8472    3.8587 O   0  0  0  0  0  0  0  0  0  0  0  0
    0.5524   -7.9210    2.9590 C   0  0  2  0  0  0  0  0  0  0  0  0
   -0.9393   -7.8957    2.6115 C   0  0  0  0  0  0  0  0  0  0  0  0
   -1.3880   -9.1313    2.4827 C   0  0  0  0  0  0  0  0  0  0  0  0
   -0.2712  -10.0748    2.7370 C   0  0  0  0  0  0  0  0  0  0  0  0
    0.8902   -9.3105    3.0162 O   0  0  0  0  0  0  0  0  0  0  0  0
   -0.0014   -7.6111    5.4245 C   0  0  0  0  0  0  0  0  0  0  0  0
    0.6107   -7.5971    6.8419 C   0  0  2  0  0  0  0  0  0  0  0  0
    0.2210   -6.4191    7.7343 C   0  0  0  0  0  0  0  0  0  0  0  0
    0.9391   -5.1037    7.3599 C   0  0  2  0  0  0  0  0  0  0  0  0
    0.1037   -4.1509    6.4992 C   0  0  1  0  0  0  0  0  0  0  0  0
   -0.8729   -3.4804    7.2850 O   0  0  0  0  0  0  0  0  0  0  0  0
    1.1158   -3.1497    5.9075 C   0  0  2  0  0  0  0  0  0  0  0  0
    0.5520   -2.6614    4.5180 C   0  0  1  0  0  0  0  0  0  0  0  0
   -0.0218   -1.3908    4.6152 O   0  0  0  0  0  0  0  0  0  0  0  0
    0.7676   -0.2069    4.7413 C   0  0  2  0  0  0  0  0  0  0  0  0
   -0.0796    0.9348    4.7655 O   0  0  0  0  0  0  0  0  0  0  0  0
   -0.8542    1.1377    3.5659 C   0  0  1  0  0  0  0  0  0  0  0  0
   -1.8253    2.3127    3.8182 C   0  0  0  0  0  0  0  0  0  0  0  0
   -2.6383    2.5589    2.6743 O   0  0  0  0  0  0  0  0  0  0  0  0
    0.1125    1.3589    2.3654 C   0  0  1  0  0  0  0  0  0  0  0  0
    0.7891    2.6118    2.4871 O   0  0  0  0  0  0  0  0  0  0  0  0
    1.1504    0.2278    2.3103 C   0  0  1  0  0  0  0  0  0  0  0  0
    2.1005    0.3922    1.2764 O   0  0  0  0  0  0  0  0  0  0  0  0
    1.8601   -0.0012    3.6494 C   0  0  1  0  0  0  0  0  0  0  0  0
    2.7249    1.0815    3.9919 O   0  0  0  0  0  0  0  0  0  0  0  0
    1.3516   -2.8185    3.3729 O   0  0  0  0  0  0  0  0  0  0  0  0
    2.5730   -3.4188    3.4165 C   0  0  0  0  0  0  0  0  0  0  0  0
    3.1271   -3.9323    4.4919 C   0  0  0  0  0  0  0  0  0  0  0  0
    2.4821   -3.8891    5.8893 C   0  0  2  0  0  0  0  0  0  0  0  0
    2.4047   -5.1949    6.7874 C   0  0  2  0  0  0  0  0  0  0  0  0
    3.3358   -4.9275    8.0441 C   0  0  0  0  0  0  0  0  0  0  0  0
    3.1855   -5.8480    9.1141 O   0  0  0  0  0  0  0  0  0  0  0  0
    6.1992   -6.4687    6.3129 H   0  0  0  0  0  0  0  0  0  0  0  0
    5.2445   -5.2132    5.7105 H   0  0  0  0  0  0  0  0  0  0  0  0
    5.4384   -6.7467    4.7441 H   0  0  0  0  0  0  0  0  0  0  0  0
    2.4651   -7.9303    7.8757 H   0  0  0  0  0  0  0  0  0  0  0  0
    3.4767   -9.4536    6.4828 H   0  0  0  0  0  0  0  0  0  0  0  0
    1.8222   -9.8219    6.0369 H   0  0  0  0  0  0  0  0  0  0  0  0
    2.3043   -9.0407    4.0546 H   0  0  0  0  0  0  0  0  0  0  0  0
    3.0301   -6.5858    3.9124 H   0  0  0  0  0  0  0  0  0  0  0  0
    1.3693   -5.4580    3.4957 H   0  0  0  0  0  0  0  0  0  0  0  0
    1.0654   -7.5158    2.1053 H   0  0  0  0  0  0  0  0  0  0  0  0
   -1.5245   -6.9977    2.4901 H   0  0  0  0  0  0  0  0  0  0  0  0
   -2.3935   -9.4448    2.2574 H   0  0  0  0  0  0  0  0  0  0  0  0
   -0.4891  -10.6614    3.6338 H   0  0  0  0  0  0  0  0  0  0  0  0
   -0.1248  -10.7322    1.8672 H   0  0  0  0  0  0  0  0  0  0  0  0
   -0.9292   -7.0385    5.3991 H   0  0  0  0  0  0  0  0  0  0  0  0
   -0.2895   -8.6476    5.2391 H   0  0  0  0  0  0  0  0  0  0  0  0
    0.1672   -8.4590    7.3307 H   0  0  0  0  0  0  0  0  0  0  0  0
   -0.8571   -6.2529    7.6997 H   0  0  0  0  0  0  0  0  0  0  0  0
    0.4430   -6.6801    8.7771 H   0  0  0  0  0  0  0  0  0  0  0  0
    0.9945   -4.5687    8.3098 H   0  0  0  0  0  0  0  0  0  0  0  0
   -0.4313   -4.7145    5.7391 H   0  0  0  0  0  0  0  0  0  0  0  0
   -1.4576   -4.1371    7.6353 H   0  0  0  0  0  0  0  0  0  0  0  0
    1.1956   -2.2855    6.5760 H   0  0  0  0  0  0  0  0  0  0  0  0
   -0.2916   -3.2853    4.2293 H   0  0  0  0  0  0  0  0  0  0  0  0
    1.2191   -0.2175    5.7425 H   0  0  0  0  0  0  0  0  0  0  0  0
   -1.4519    0.2364    3.4040 H   0  0  0  0  0  0  0  0  0  0  0  0
   -2.4855    2.1262    4.6656 H   0  0  0  0  0  0  0  0  0  0  0  0
   -1.2766    3.2258    4.0561 H   0  0  0  0  0  0  0  0  0  0  0  0
   -3.1885    1.7720    2.5089 H   0  0  0  0  0  0  0  0  0  0  0  0
   -0.4852    1.3583    1.4489 H   0  0  0  0  0  0  0  0  0  0  0  0
    0.4492    3.2479    1.7911 H   0  0  0  0  0  0  0  0  0  0  0  0
    0.5880   -0.6723    2.0737 H   0  0  0  0  0  0  0  0  0  0  0  0
    1.6296    0.2391    0.4249 H   0  0  0  0  0  0  0  0  0  0  0  0
    2.5497   -0.8388    3.5627 H   0  0  0  0  0  0  0  0  0  0  0  0
    3.2285    1.2875    3.1918 H   0  0  0  0  0  0  0  0  0  0  0  0
    3.1114   -3.3363    2.4656 H   0  0  0  0  0  0  0  0  0  0  0  0
    4.1479   -4.2548    4.3462 H   0  0  0  0  0  0  0  0  0  0  0  0
    3.1502   -3.1991    6.4105 H   0  0  0  0  0  0  0  0  0  0  0  0
    4.3815   -4.8346    7.7573 H   0  0  0  0  0  0  0  0  0  0  0  0
    3.1206   -3.9682    8.5125 H   0  0  0  0  0  0  0  0  0  0  0  0
    3.8792   -5.7037    9.7458 H   0  0  0  0  0  0  0  0  0  0  0  0
  1  2  1  0
  1 42  1  0
  1 43  1  0
  1 44  1  0
  3  2  1  6
  3  7  1  0
  3 39  1  0
  3  4  1  0
  4 16  1  0
  4  5  1  0
  4 45  1  1
  5  6  1  0
  5 46  1  0
  5 47  1  0
  6  7  1  0
  6 48  1  0
  7  8  1  0
  7 49  1  6
  8  9  1  6
  8 10  1  0
  8 15  1  0
  9 50  1  0
 10 14  1  0
 10 11  1  0
 10 51  1  6
 11 12  2  0
 11 52  1  0
 12 13  1  0
 12 53  1  0
 13 14  1  0
 13 54  1  0
 13 55  1  0
 15 16  1  0
 15 56  1  0
 15 57  1  0
 16 17  1  0
 16 58  1  1
 17 18  1  0
 17 59  1  0
 17 60  1  0
 18 39  1  0
 18 19  1  0
 18 61  1  1
 19 20  1  0
 19 21  1  0
 19 62  1  6
 20 63  1  0
 21 38  1  0
 21 22  1  0
 21 64  1  1
 22 23  1  0
 22 35  1  0
 22 65  1  6
 23 24  1  0
 24 33  1  0
 24 25  1  0
 24 66  1  1
 25 26  1  0
 26 27  1  0
 26 29  1  0
 26 67  1  6
 27 28  1  0
 27 68  1  0
 27 69  1  0
 28 70  1  0
 29 30  1  0
 29 31  1  0
 29 71  1  6
 30 72  1  0
 31 32  1  0
 31 33  1  0
 31 73  1  6
 32 74  1  0
 33 34  1  0
 33 75  1  6
 34 76  1  0
 35 36  1  0
 36 37  2  0
 36 77  1  0
 37 38  1  0
 37 78  1  0
 38 39  1  0
 38 79  1  1
 39 40  1  1
 40 41  1  0
 40 80  1  0
 40 81  1  0
 41 82  1  0
M  END
>  <i_m_ct_stereo_status>  (81) 
1

>  <s_m_source_file>  (81) 
/var/tmp/pbs.5076255.sched01/tmpvv81v907/0tx7qkblw.sdf

>  <i_m_source_file_index>  (81) 
33

>  <i_lp_mmshare_version>  (81) 
48012

>  <i_f3d_flags>  (81) 
0

>  <s_epik_input>  (81) 
TzFbQ0gyXVtDSF09W0NIXVtDQEhdMVtDQF0oW09IXSkoW0NAQEhdMltOSF1bQ0gyXTMpW0NIMl1bQ0BASF0oW0NAQEhdM1tDQEBdMjRPW0NIM10pW0NIMl1bQ0BIXTVbQ0BdNChbQ0gyXVtPSF0pW0NAQEhdNltDQEhdKFtDQEBIXTVbT0hdKVtDQEhdKE9bQ0hdPVtDSF02KU9bQ0BASF03T1tDQEBIXShbQ0gyXVtPSF0pW0NAQEhdKFtPSF0pW0NAQEhdKFtPSF0pW0NASF03W09IXQ==

>  <s_epik_cmdline>  (81) 
J2VwaWtfcHl0aG9uJywgJy1waHQnLCAnMi4wJywgJy1waCcsICc3LjAnLCAnLXRuJywgJzgnLCAnLW1hJywgJzIwMCcsICctaW1hZScsICc8aW5maWxlLm1hZT4nLCAnLW9tYWUnLCAnPG91dGZpbGUubWFlPic=

>  <r_epik_Ionization_Penalty>  (81) 
2.3149

>  <r_epik_Ionization_Penalty_Charging>  (81) 
0

>  <r_epik_Ionization_Penalty_Neutral>  (81) 
2.3149

>  <r_epik_State_Penalty>  (81) 
2.46664

>  <r_epik_Charging_Adjusted_Penalty>  (81) 
2.46664

>  <i_epik_Tot_Q>  (81) 
0

>  <i_epik_Tot_abs_Q>  (81) 
0

>  <s_epik_Chemistry_Notes>  (81) 
This compound contains an acetal/aminal-like group ( X-CH(R)-Y where X, Y are N, S, or O) that may be acid/base labile, releasing an aldehyde.

>  <s_lp_Force_Field>  (81) 
OPLS3e

>  <r_lp_Energy>  (81) 
99.9593

>  <b_lp_Chiralities_Consistent>  (81) 
1

>  <s_lp_Variant>  (81) 
13:0-2

>  <s_i_glide_gridfile>  (81) 
pfpi4k_grid

>  <i_i_glide_lignum>  (81) 
33

>  <i_i_glide_rotatable_bonds>  (81) 
13

>  <r_i_docking_score>  (81) 
-3.88053

>  <r_i_glide_ligand_efficiency>  (81) 
-0.0946472

>  <r_i_glide_ligand_efficiency_sa>  (81) 
-0.326364

>  <r_i_glide_ligand_efficiency_ln>  (81) 
-0.823268

>  <r_i_glide_gscore>  (81) 
-3.88053

>  <r_i_glide_lipo>  (81) 
-0.20466

>  <r_i_glide_hbond>  (81) 
0

>  <r_i_glide_metal>  (81) 
-0

>  <r_i_glide_rewards>  (81) 
-0.546297

>  <r_i_glide_evdw>  (81) 
-25.8794

>  <r_i_glide_ecoul>  (81) 
-13.5702

>  <r_i_glide_erotb>  (81) 
0.204331

>  <r_i_glide_esite>  (81) 
-0.00440913

>  <r_i_glide_emodel>  (81) 
-49.3218

>  <r_i_glide_energy>  (81) 
-39.4496

>  <r_i_glide_einternal>  (81) 
6.42227

>  <r_i_glide_intrahb_reward>  (81) 
-0.5

>  <i_i_glide_confnum>  (81) 
6

>  <i_i_glide_posenum>  (81) 
10

>  <r_i_glide_eff_state_penalty>  (81) 
0

>  <ligand_id>  (81) 
13

>  <original_smiles>  (81) 
COC12C3CNC1C(O)(C1C=CCO1)CC3CC1C(O)C3C(OC4OC(CO)C(O)C(O)C4O)OC=CC3C12CO

>  <smiles>  (81) 
[H]OC([H])([H])C1([H])OC([H])(OC2([H])OC([H])=C([H])C3([H])C2([H])C([H])(O[H])C2([H])C([H])([H])C4([H])C([H])([H])C(O[H])(C5([H])OC([H])([H])C([H])=C5[H])C5([H])N([H])C([H])([H])C4([H])C5(OC([H])([H])[H])C32C([H])([H])O[H])C([H])(O[H])C([H])(O[H])C1([H])O[H]

$$$$
13:1:1
     RDKit          3D

 82 88  0  0  1  0  0  0  0  0999 V2000
    5.2908   -6.0057    5.6284 C   0  0  0  0  0  0  0  0  0  0  0  0
    4.2406   -6.6257    6.3561 O   0  0  0  0  0  0  0  0  0  0  0  0
    2.8368   -6.4091    6.0667 C   0  0  2  0  0  0  0  0  0  0  0  0
    2.2029   -7.6026    6.8026 C   0  0  2  0  0  0  0  0  0  0  0  0
    2.6724   -8.8252    6.0065 C   0  0  0  0  0  0  0  0  0  0  0  0
    2.9369   -8.3262    4.6577 N   0  0  0  0  0  0  0  0  0  0  0  0
    2.4666   -6.9404    4.6174 C   0  0  1  0  0  0  0  0  0  0  0  0
    0.9281   -7.0248    4.2503 C   0  0  1  0  0  0  0  0  0  0  0  0
    0.5428   -5.7254    3.9309 O   0  0  0  0  0  0  0  0  0  0  0  0
    0.5625   -7.8074    2.9426 C   0  0  2  0  0  0  0  0  0  0  0  0
   -0.9228   -7.7901    2.5897 C   0  0  0  0  0  0  0  0  0  0  0  0
   -1.3766   -9.0393    2.4868 C   0  0  0  0  0  0  0  0  0  0  0  0
   -0.2606   -9.9772    2.7612 C   0  0  0  0  0  0  0  0  0  0  0  0
    0.9004   -9.1976    3.0316 O   0  0  0  0  0  0  0  0  0  0  0  0
    0.0374   -7.5135    5.4180 C   0  0  0  0  0  0  0  0  0  0  0  0
    0.6721   -7.4589    6.8210 C   0  0  2  0  0  0  0  0  0  0  0  0
    0.2516   -6.2865    7.7021 C   0  0  0  0  0  0  0  0  0  0  0  0
    0.9186   -4.9492    7.3091 C   0  0  2  0  0  0  0  0  0  0  0  0
    0.0373   -4.0280    6.4603 C   0  0  1  0  0  0  0  0  0  0  0  0
   -0.9532   -3.3922    7.2501 O   0  0  0  0  0  0  0  0  0  0  0  0
    1.0081   -3.0068    5.8366 C   0  0  2  0  0  0  0  0  0  0  0  0
    0.4080   -2.5457    4.4544 C   0  0  1  0  0  0  0  0  0  0  0  0
   -0.2089   -1.2881    4.5489 O   0  0  0  0  0  0  0  0  0  0  0  0
    0.5394   -0.0842    4.7285 C   0  0  2  0  0  0  0  0  0  0  0  0
   -0.2819    1.0609    4.5207 O   0  0  0  0  0  0  0  0  0  0  0  0
   -0.7711    1.2258    3.1750 C   0  0  1  0  0  0  0  0  0  0  0  0
   -1.8423    2.3558    3.1311 C   0  0  0  0  0  0  0  0  0  0  0  0
   -1.3565    3.6714    3.4287 O   0  0  0  0  0  0  0  0  0  0  0  0
    0.4304    1.3417    2.1838 C   0  0  1  0  0  0  0  0  0  0  0  0
    1.1178    2.5701    2.2965 O   0  0  0  0  0  0  0  0  0  0  0  0
    1.4379    0.2039    2.3874 C   0  0  1  0  0  0  0  0  0  0  0  0
    2.5748    0.2843    1.5155 O   0  0  0  0  0  0  0  0  0  0  0  0
    1.8407    0.0427    3.8747 C   0  0  1  0  0  0  0  0  0  0  0  0
    2.6251    1.1405    4.3375 O   0  0  0  0  0  0  0  0  0  0  0  0
    1.1977   -2.6901    3.3023 O   0  0  0  0  0  0  0  0  0  0  0  0
    2.4391   -3.2593    3.3267 C   0  0  0  0  0  0  0  0  0  0  0  0
    3.0270   -3.7394    4.3994 C   0  0  0  0  0  0  0  0  0  0  0  0
    2.4020   -3.6979    5.8024 C   0  0  2  0  0  0  0  0  0  0  0  0
    2.3805   -4.9938    6.7152 C   0  0  2  0  0  0  0  0  0  0  0  0
    3.3193   -4.6760    7.9535 C   0  0  0  0  0  0  0  0  0  0  0  0
    3.2180   -5.5911    9.0328 O   0  0  0  0  0  0  0  0  0  0  0  0
    6.2102   -6.1377    6.1956 H   0  0  0  0  0  0  0  0  0  0  0  0
    5.2051   -4.9253    5.5904 H   0  0  0  0  0  0  0  0  0  0  0  0
    5.4380   -6.4597    4.6445 H   0  0  0  0  0  0  0  0  0  0  0  0
    2.5510   -7.7080    7.8273 H   0  0  0  0  0  0  0  0  0  0  0  0
    3.5955   -9.2107    6.4342 H   0  0  0  0  0  0  0  0  0  0  0  0
    1.9487   -9.6418    6.0176 H   0  0  0  0  0  0  0  0  0  0  0  0
    2.3724   -8.8689    4.0164 H   0  0  0  0  0  0  0  0  0  0  0  0
    3.0009   -6.3904    3.8388 H   0  0  0  0  0  0  0  0  0  0  0  0
    0.9913   -5.1563    4.5351 H   0  0  0  0  0  0  0  0  0  0  0  0
    1.0870   -7.4143    2.0866 H   0  0  0  0  0  0  0  0  0  0  0  0
   -1.5005   -6.8978    2.4314 H   0  0  0  0  0  0  0  0  0  0  0  0
   -2.3787   -9.3500    2.2508 H   0  0  0  0  0  0  0  0  0  0  0  0
   -0.4998  -10.5671    3.6536 H   0  0  0  0  0  0  0  0  0  0  0  0
   -0.1066  -10.6439    1.8989 H   0  0  0  0  0  0  0  0  0  0  0  0
   -0.9145   -6.9806    5.3983 H   0  0  0  0  0  0  0  0  0  0  0  0
   -0.2173   -8.5588    5.2413 H   0  0  0  0  0  0  0  0  0  0  0  0
    0.2647   -8.3283    7.3244 H   0  0  0  0  0  0  0  0  0  0  0  0
   -0.8349   -6.1881    7.6842 H   0  0  0  0  0  0  0  0  0  0  0  0
    0.4998   -6.5229    8.7434 H   0  0  0  0  0  0  0  0  0  0  0  0
    0.9701   -4.3999    8.2522 H   0  0  0  0  0  0  0  0  0  0  0  0
   -0.5145   -4.6051    5.7248 H   0  0  0  0  0  0  0  0  0  0  0  0
   -1.5228   -4.0672    7.5897 H   0  0  0  0  0  0  0  0  0  0  0  0
    1.0737   -2.1365    6.4963 H   0  0  0  0  0  0  0  0  0  0  0  0
   -0.4233   -3.1960    4.1774 H   0  0  0  0  0  0  0  0  0  0  0  0
    0.7749   -0.0308    5.8005 H   0  0  0  0  0  0  0  0  0  0  0  0
   -1.3124    0.3118    2.9372 H   0  0  0  0  0  0  0  0  0  0  0  0
   -2.2364    2.3901    2.1172 H   0  0  0  0  0  0  0  0  0  0  0  0
   -2.6901    2.1417    3.7850 H   0  0  0  0  0  0  0  0  0  0  0  0
   -0.6280    3.8697    2.8301 H   0  0  0  0  0  0  0  0  0  0  0  0
    0.0146    1.2732    1.1752 H   0  0  0  0  0  0  0  0  0  0  0  0
    0.7027    3.2412    1.7023 H   0  0  0  0  0  0  0  0  0  0  0  0
    0.8803   -0.6651    2.0657 H   0  0  0  0  0  0  0  0  0  0  0  0
    2.2519    0.2399    0.6007 H   0  0  0  0  0  0  0  0  0  0  0  0
    2.5042   -0.8083    4.0291 H   0  0  0  0  0  0  0  0  0  0  0  0
    3.2849    1.3161    3.6532 H   0  0  0  0  0  0  0  0  0  0  0  0
    2.9548   -3.1667    2.3686 H   0  0  0  0  0  0  0  0  0  0  0  0
    4.0588   -4.0239    4.2402 H   0  0  0  0  0  0  0  0  0  0  0  0
    3.0511   -2.9749    6.3026 H   0  0  0  0  0  0  0  0  0  0  0  0
    4.3572   -4.5502    7.6506 H   0  0  0  0  0  0  0  0  0  0  0  0
    3.0767   -3.7190    8.4151 H   0  0  0  0  0  0  0  0  0  0  0  0
    3.9169   -5.4196    9.6508 H   0  0  0  0  0  0  0  0  0  0  0  0
  1  2  1  0
  1 42  1  0
  1 43  1  0
  1 44  1  0
  3  2  1  6
  3  7  1  0
  3 39  1  0
  3  4  1  0
  4 16  1  0
  4  5  1  0
  4 45  1  1
  5  6  1  0
  5 46  1  0
  5 47  1  0
  6  7  1  0
  6 48  1  0
  7  8  1  0
  7 49  1  6
  8  9  1  6
  8 10  1  0
  8 15  1  0
  9 50  1  0
 10 14  1  0
 10 11  1  0
 10 51  1  6
 11 12  2  0
 11 52  1  0
 12 13  1  0
 12 53  1  0
 13 14  1  0
 13 54  1  0
 13 55  1  0
 15 16  1  0
 15 56  1  0
 15 57  1  0
 16 17  1  0
 16 58  1  1
 17 18  1  0
 17 59  1  0
 17 60  1  0
 18 39  1  0
 18 19  1  0
 18 61  1  1
 19 20  1  0
 19 21  1  0
 19 62  1  6
 20 63  1  0
 21 38  1  0
 21 22  1  0
 21 64  1  1
 22 23  1  0
 22 35  1  0
 22 65  1  6
 23 24  1  0
 24 33  1  0
 24 25  1  0
 24 66  1  1
 25 26  1  0
 26 27  1  0
 26 29  1  0
 26 67  1  6
 27 28  1  0
 27 68  1  0
 27 69  1  0
 28 70  1  0
 29 30  1  0
 29 31  1  0
 29 71  1  6
 30 72  1  0
 31 32  1  0
 31 33  1  0
 31 73  1  6
 32 74  1  0
 33 34  1  0
 33 75  1  6
 34 76  1  0
 35 36  1  0
 36 37  2  0
 36 77  1  0
 37 38  1  0
 37 78  1  0
 38 39  1  0
 38 79  1  1
 39 40  1  1
 40 41  1  0
 40 80  1  0
 40 81  1  0
 41 82  1  0
M  END
>  <i_m_ct_stereo_status>  (82) 
1

>  <s_m_source_file>  (82) 
/var/tmp/pbs.5076255.sched01/tmpvv81v907/0tx7qkblw.sdf

>  <i_m_source_file_index>  (82) 
33

>  <i_lp_mmshare_version>  (82) 
48012

>  <i_f3d_flags>  (82) 
0

>  <s_epik_input>  (82) 
TzFbQ0gyXVtDSF09W0NIXVtDQEhdMVtDQF0oW09IXSkoW0NAQEhdMltOSF1bQ0gyXTMpW0NIMl1bQ0BASF0oW0NAQEhdM1tDQEBdMjRPW0NIM10pW0NIMl1bQ0BIXTVbQ0BdNChbQ0gyXVtPSF0pW0NAQEhdNltDQEhdKFtDQEBIXTVbT0hdKVtDQEhdKE9bQ0hdPVtDSF02KU9bQ0BASF03T1tDQEBIXShbQ0gyXVtPSF0pW0NAQEhdKFtPSF0pW0NAQEhdKFtPSF0pW0NASF03W09IXQ==

>  <s_epik_cmdline>  (82) 
J2VwaWtfcHl0aG9uJywgJy1waHQnLCAnMi4wJywgJy1waCcsICc3LjAnLCAnLXRuJywgJzgnLCAnLW1hJywgJzIwMCcsICctaW1hZScsICc8aW5maWxlLm1hZT4nLCAnLW9tYWUnLCAnPG91dGZpbGUubWFlPic=

>  <r_epik_Ionization_Penalty>  (82) 
2.3149

>  <r_epik_Ionization_Penalty_Charging>  (82) 
0

>  <r_epik_Ionization_Penalty_Neutral>  (82) 
2.3149

>  <r_epik_State_Penalty>  (82) 
2.46664

>  <r_epik_Charging_Adjusted_Penalty>  (82) 
2.46664

>  <i_epik_Tot_Q>  (82) 
0

>  <i_epik_Tot_abs_Q>  (82) 
0

>  <s_epik_Chemistry_Notes>  (82) 
This compound contains an acetal/aminal-like group ( X-CH(R)-Y where X, Y are N, S, or O) that may be acid/base labile, releasing an aldehyde.

>  <s_lp_Force_Field>  (82) 
OPLS3e

>  <r_lp_Energy>  (82) 
99.9593

>  <b_lp_Chiralities_Consistent>  (82) 
1

>  <s_lp_Variant>  (82) 
13:0-2

>  <s_i_glide_gridfile>  (82) 
pfpi4k_grid

>  <i_i_glide_lignum>  (82) 
33

>  <i_i_glide_rotatable_bonds>  (82) 
13

>  <r_i_docking_score>  (82) 
-3.56267

>  <r_i_glide_ligand_efficiency>  (82) 
-0.0868944

>  <r_i_glide_ligand_efficiency_sa>  (82) 
-0.299631

>  <r_i_glide_ligand_efficiency_ln>  (82) 
-0.755833

>  <r_i_glide_gscore>  (82) 
-3.56267

>  <r_i_glide_lipo>  (82) 
-0.16805

>  <r_i_glide_hbond>  (82) 
-0.00327382

>  <r_i_glide_metal>  (82) 
-0

>  <r_i_glide_rewards>  (82) 
-0.568041

>  <r_i_glide_evdw>  (82) 
-27.2169

>  <r_i_glide_ecoul>  (82) 
-11.0673

>  <r_i_glide_erotb>  (82) 
0.204331

>  <r_i_glide_esite>  (82) 
-0.00669674

>  <r_i_glide_emodel>  (82) 
-46.7084

>  <r_i_glide_energy>  (82) 
-38.2842

>  <r_i_glide_einternal>  (82) 
9.9547

>  <r_i_glide_intrahb_reward>  (82) 
-0.5

>  <i_i_glide_confnum>  (82) 
6

>  <i_i_glide_posenum>  (82) 
39

>  <r_i_glide_eff_state_penalty>  (82) 
0

>  <ligand_id>  (82) 
13

>  <original_smiles>  (82) 
COC12C3CNC1C(O)(C1C=CCO1)CC3CC1C(O)C3C(OC4OC(CO)C(O)C(O)C4O)OC=CC3C12CO

>  <smiles>  (82) 
[H]OC([H])([H])C1([H])OC([H])(OC2([H])OC([H])=C([H])C3([H])C2([H])C([H])(O[H])C2([H])C([H])([H])C4([H])C([H])([H])C(O[H])(C5([H])OC([H])([H])C([H])=C5[H])C5([H])N([H])C([H])([H])C4([H])C5(OC([H])([H])[H])C32C([H])([H])O[H])C([H])(O[H])C([H])(O[H])C1([H])O[H]

$$$$
13:1:2
     RDKit          3D

 82 88  0  0  1  0  0  0  0  0999 V2000
    5.4928   -6.6518    7.6226 C   0  0  0  0  0  0  0  0  0  0  0  0
    4.2292   -7.1334    8.0688 O   0  0  0  0  0  0  0  0  0  0  0  0
    2.9967   -6.9140    7.3261 C   0  0  2  0  0  0  0  0  0  0  0  0
    2.0755   -7.9535    7.9852 C   0  0  2  0  0  0  0  0  0  0  0  0
    2.6631   -9.2999    7.5481 C   0  0  0  0  0  0  0  0  0  0  0  0
    3.3535   -9.0312    6.2868 N   0  0  0  0  0  0  0  0  0  0  0  0
    3.0389   -7.6423    5.9207 C   0  0  1  0  0  0  0  0  0  0  0  0
    1.6897   -7.7105    5.0930 C   0  0  1  0  0  0  0  0  0  0  0  0
    1.5605   -6.4783    4.4434 O   0  0  0  0  0  0  0  0  0  0  0  0
    1.6711   -8.6968    3.8700 C   0  0  2  0  0  0  0  0  0  0  0  0
    0.4137   -8.6058    3.0086 C   0  0  0  0  0  0  0  0  0  0  0  0
   -0.1404   -9.7990    2.9076 C   0  0  0  0  0  0  0  0  0  0  0  0
    0.6520  -10.8009    3.6761 C   0  0  0  0  0  0  0  0  0  0  0  0
    1.7533  -10.0678    4.2573 O   0  0  0  0  0  0  0  0  0  0  0  0
    0.4443   -7.9825    5.9889 C   0  0  0  0  0  0  0  0  0  0  0  0
    0.6241   -7.7526    7.5055 C   0  0  2  0  0  0  0  0  0  0  0  0
    0.0647   -6.4300    8.0443 C   0  0  0  0  0  0  0  0  0  0  0  0
    0.9311   -5.2016    7.7055 C   0  0  2  0  0  0  0  0  0  0  0  0
    0.4348   -4.3889    6.5016 C   0  0  1  0  0  0  0  0  0  0  0  0
   -0.6901   -3.5976    6.8544 O   0  0  0  0  0  0  0  0  0  0  0  0
    1.6210   -3.5079    6.0646 C   0  0  2  0  0  0  0  0  0  0  0  0
    1.5192   -3.2405    4.5170 C   0  0  1  0  0  0  0  0  0  0  0  0
    0.9873   -1.9795    4.2393 O   0  0  0  0  0  0  0  0  0  0  0  0
    1.7973   -0.8125    4.3521 C   0  0  2  0  0  0  0  0  0  0  0  0
    0.9843    0.3547    4.3116 O   0  0  0  0  0  0  0  0  0  0  0  0
    0.2269    0.5014    3.1039 C   0  0  1  0  0  0  0  0  0  0  0  0
   -0.7461    1.6823    3.2679 C   0  0  0  0  0  0  0  0  0  0  0  0
   -1.6355    1.7464    2.1643 O   0  0  0  0  0  0  0  0  0  0  0  0
    1.2042    0.6894    1.9158 C   0  0  1  0  0  0  0  0  0  0  0  0
    1.8497    1.9698    2.0066 O   0  0  0  0  0  0  0  0  0  0  0  0
    2.2236   -0.4741    1.8929 C   0  0  1  0  0  0  0  0  0  0  0  0
    3.1661   -0.3621    0.8326 O   0  0  0  0  0  0  0  0  0  0  0  0
    2.9012   -0.6634    3.2607 C   0  0  1  0  0  0  0  0  0  0  0  0
    3.6841    0.4726    3.6235 O   0  0  0  0  0  0  0  0  0  0  0  0
    2.6376   -3.5168    3.7171 O   0  0  0  0  0  0  0  0  0  0  0  0
    3.7521   -4.1398    4.2202 C   0  0  0  0  0  0  0  0  0  0  0  0
    3.9276   -4.5169    5.4699 C   0  0  0  0  0  0  0  0  0  0  0  0
    2.9029   -4.2519    6.5760 C   0  0  2  0  0  0  0  0  0  0  0  0
    2.4908   -5.3922    7.6072 C   0  0  2  0  0  0  0  0  0  0  0  0
    3.0280   -4.9359    9.0273 C   0  0  0  0  0  0  0  0  0  0  0  0
    2.5388   -5.6807   10.1280 O   0  0  0  0  0  0  0  0  0  0  0  0
    6.1867   -6.7342    8.4727 H   0  0  0  0  0  0  0  0  0  0  0  0
    5.4993   -5.6171    7.3872 H   0  0  0  0  0  0  0  0  0  0  0  0
    5.9034   -7.2820    6.8194 H   0  0  0  0  0  0  0  0  0  0  0  0
    2.0915   -7.9155    9.0744 H   0  0  0  0  0  0  0  0  0  0  0  0
    3.3816   -9.6506    8.2879 H   0  0  0  0  0  0  0  0  0  0  0  0
    1.9095  -10.0816    7.4436 H   0  0  0  0  0  0  0  0  0  0  0  0
    2.9672   -9.6517    5.5946 H   0  0  0  0  0  0  0  0  0  0  0  0
    3.8361   -7.2438    5.2930 H   0  0  0  0  0  0  0  0  0  0  0  0
    2.4135   -6.2519    4.0882 H   0  0  0  0  0  0  0  0  0  0  0  0
    2.5102   -8.5024    3.2112 H   0  0  0  0  0  0  0  0  0  0  0  0
    0.0795   -7.6902    2.5453 H   0  0  0  0  0  0  0  0  0  0  0  0
   -1.0438  -10.0481    2.3488 H   0  0  0  0  0  0  0  0  0  0  0  0
    0.0451  -11.2275    4.4718 H   0  0  0  0  0  0  0  0  0  0  0  0
    1.0027  -11.5884    3.0074 H   0  0  0  0  0  0  0  0  0  0  0  0
   -0.4179   -7.4384    5.6142 H   0  0  0  0  0  0  0  0  0  0  0  0
    0.1722   -9.0354    5.8879 H   0  0  0  0  0  0  0  0  0  0  0  0
    0.0173   -8.5226    7.9748 H   0  0  0  0  0  0  0  0  0  0  0  0
   -0.9519   -6.2529    7.6914 H   0  0  0  0  0  0  0  0  0  0  0  0
   -0.0302   -6.5192    9.1328 H   0  0  0  0  0  0  0  0  0  0  0  0
    0.7356   -4.5186    8.5371 H   0  0  0  0  0  0  0  0  0  0  0  0
    0.1022   -5.0654    5.7146 H   0  0  0  0  0  0  0  0  0  0  0  0
   -1.4133   -4.1864    7.0413 H   0  0  0  0  0  0  0  0  0  0  0  0
    1.5544   -2.5487    6.5910 H   0  0  0  0  0  0  0  0  0  0  0  0
    0.7805   -3.9153    4.0775 H   0  0  0  0  0  0  0  0  0  0  0  0
    2.2339   -0.8018    5.3541 H   0  0  0  0  0  0  0  0  0  0  0  0
   -0.3709   -0.4040    2.9750 H   0  0  0  0  0  0  0  0  0  0  0  0
   -1.3359    1.5873    4.1773 H   0  0  0  0  0  0  0  0  0  0  0  0
   -0.2247    2.6356    3.3594 H   0  0  0  0  0  0  0  0  0  0  0  0
   -1.1390    1.9233    1.3536 H   0  0  0  0  0  0  0  0  0  0  0  0
    0.6328    0.6533    0.9883 H   0  0  0  0  0  0  0  0  0  0  0  0
    1.2180    2.6779    1.7890 H   0  0  0  0  0  0  0  0  0  0  0  0
    1.6576   -1.3848    1.6970 H   0  0  0  0  0  0  0  0  0  0  0  0
    2.6677   -0.3274   -0.0080 H   0  0  0  0  0  0  0  0  0  0  0  0
    3.5895   -1.5116    3.2075 H   0  0  0  0  0  0  0  0  0  0  0  0
    3.2198    1.2591    3.3025 H   0  0  0  0  0  0  0  0  0  0  0  0
    4.5234   -4.2443    3.4603 H   0  0  0  0  0  0  0  0  0  0  0  0
    4.8971   -4.9135    5.6922 H   0  0  0  0  0  0  0  0  0  0  0  0
    3.4188   -3.4868    7.1627 H   0  0  0  0  0  0  0  0  0  0  0  0
    4.1150   -4.9035    9.0520 H   0  0  0  0  0  0  0  0  0  0  0  0
    2.7387   -3.9089    9.2557 H   0  0  0  0  0  0  0  0  0  0  0  0
    3.0306   -5.4399   10.9081 H   0  0  0  0  0  0  0  0  0  0  0  0
  1  2  1  0
  1 42  1  0
  1 43  1  0
  1 44  1  0
  3  2  1  1
  3  7  1  0
  3 39  1  0
  3  4  1  0
  4 16  1  0
  4  5  1  0
  4 45  1  1
  5  6  1  0
  5 46  1  0
  5 47  1  0
  6  7  1  0
  6 48  1  0
  7  8  1  0
  7 49  1  6
  8  9  1  6
  8 10  1  0
  8 15  1  0
  9 50  1  0
 10 14  1  0
 10 11  1  0
 10 51  1  6
 11 12  2  0
 11 52  1  0
 12 13  1  0
 12 53  1  0
 13 14  1  0
 13 54  1  0
 13 55  1  0
 15 16  1  0
 15 56  1  0
 15 57  1  0
 16 17  1  0
 16 58  1  1
 17 18  1  0
 17 59  1  0
 17 60  1  0
 18 39  1  0
 18 19  1  0
 18 61  1  1
 19 20  1  0
 19 21  1  0
 19 62  1  6
 20 63  1  0
 21 38  1  0
 21 22  1  0
 21 64  1  1
 22 23  1  0
 22 35  1  0
 22 65  1  6
 23 24  1  0
 24 33  1  0
 24 25  1  0
 24 66  1  1
 25 26  1  0
 26 27  1  0
 26 29  1  0
 26 67  1  6
 27 28  1  0
 27 68  1  0
 27 69  1  0
 28 70  1  0
 29 30  1  0
 29 31  1  0
 29 71  1  6
 30 72  1  0
 31 32  1  0
 31 33  1  0
 31 73  1  6
 32 74  1  0
 33 34  1  0
 33 75  1  6
 34 76  1  0
 35 36  1  0
 36 37  2  0
 36 77  1  0
 37 38  1  0
 37 78  1  0
 38 39  1  0
 38 79  1  1
 39 40  1  1
 40 41  1  0
 40 80  1  0
 40 81  1  0
 41 82  1  0
M  END
>  <i_m_ct_stereo_status>  (83) 
1

>  <s_m_source_file>  (83) 
/var/tmp/pbs.5076255.sched01/tmpvv81v907/0tx7qkblw.sdf

>  <i_m_source_file_index>  (83) 
33

>  <i_lp_mmshare_version>  (83) 
48012

>  <i_f3d_flags>  (83) 
0

>  <s_epik_input>  (83) 
TzFbQ0gyXVtDSF09W0NIXVtDQEhdMVtDQF0oW09IXSkoW0NAQEhdMltOSF1bQ0gyXTMpW0NIMl1bQ0BASF0oW0NAQEhdM1tDQEBdMjRPW0NIM10pW0NIMl1bQ0BIXTVbQ0BdNChbQ0gyXVtPSF0pW0NAQEhdNltDQEhdKFtDQEBIXTVbT0hdKVtDQEhdKE9bQ0hdPVtDSF02KU9bQ0BASF03T1tDQEBIXShbQ0gyXVtPSF0pW0NAQEhdKFtPSF0pW0NAQEhdKFtPSF0pW0NASF03W09IXQ==

>  <s_epik_cmdline>  (83) 
J2VwaWtfcHl0aG9uJywgJy1waHQnLCAnMi4wJywgJy1waCcsICc3LjAnLCAnLXRuJywgJzgnLCAnLW1hJywgJzIwMCcsICctaW1hZScsICc8aW5maWxlLm1hZT4nLCAnLW9tYWUnLCAnPG91dGZpbGUubWFlPic=

>  <r_epik_Ionization_Penalty>  (83) 
2.3149

>  <r_epik_Ionization_Penalty_Charging>  (83) 
0

>  <r_epik_Ionization_Penalty_Neutral>  (83) 
2.3149

>  <r_epik_State_Penalty>  (83) 
2.46664

>  <r_epik_Charging_Adjusted_Penalty>  (83) 
2.46664

>  <i_epik_Tot_Q>  (83) 
0

>  <i_epik_Tot_abs_Q>  (83) 
0

>  <s_epik_Chemistry_Notes>  (83) 
This compound contains an acetal/aminal-like group ( X-CH(R)-Y where X, Y are N, S, or O) that may be acid/base labile, releasing an aldehyde.

>  <s_lp_Force_Field>  (83) 
OPLS3e

>  <r_lp_Energy>  (83) 
99.9593

>  <b_lp_Chiralities_Consistent>  (83) 
1

>  <s_lp_Variant>  (83) 
13:0-2

>  <s_i_glide_gridfile>  (83) 
pfpi4k_grid

>  <i_i_glide_lignum>  (83) 
33

>  <i_i_glide_rotatable_bonds>  (83) 
13

>  <r_i_docking_score>  (83) 
-2.65298

>  <r_i_glide_ligand_efficiency>  (83) 
-0.0647068

>  <r_i_glide_ligand_efficiency_sa>  (83) 
-0.223123

>  <r_i_glide_ligand_efficiency_ln>  (83) 
-0.562839

>  <r_i_glide_gscore>  (83) 
-2.65298

>  <r_i_glide_lipo>  (83) 
-0.00668449

>  <r_i_glide_hbond>  (83) 
0

>  <r_i_glide_metal>  (83) 
-0

>  <r_i_glide_rewards>  (83) 
-1.01574

>  <r_i_glide_evdw>  (83) 
-24.087

>  <r_i_glide_ecoul>  (83) 
-4.20181

>  <r_i_glide_erotb>  (83) 
0.204331

>  <r_i_glide_esite>  (83) 
-0.000265878

>  <r_i_glide_emodel>  (83) 
-42.1478

>  <r_i_glide_energy>  (83) 
-28.2888

>  <r_i_glide_einternal>  (83) 
4.23798

>  <r_i_glide_intrahb_reward>  (83) 
-1

>  <i_i_glide_confnum>  (83) 
5

>  <i_i_glide_posenum>  (83) 
2

>  <r_i_glide_eff_state_penalty>  (83) 
0

>  <ligand_id>  (83) 
13

>  <original_smiles>  (83) 
COC12C3CNC1C(O)(C1C=CCO1)CC3CC1C(O)C3C(OC4OC(CO)C(O)C(O)C4O)OC=CC3C12CO

>  <smiles>  (83) 
[H]OC([H])([H])C1([H])OC([H])(OC2([H])OC([H])=C([H])C3([H])C2([H])C([H])(O[H])C2([H])C([H])([H])C4([H])C([H])([H])C(O[H])(C5([H])OC([H])([H])C([H])=C5[H])C5([H])N([H])C([H])([H])C4([H])C5(OC([H])([H])[H])C32C([H])([H])O[H])C([H])(O[H])C([H])(O[H])C1([H])O[H]

$$$$
14:0:0
     RDKit          3D

 59 62  0  0  1  0  0  0  0  0999 V2000
    3.9666   -2.4294    6.5541 C   0  0  0  0  0  0  0  0  0  0  0  0
    4.0774   -3.6268    5.5851 C   0  0  0  0  0  0  0  0  0  0  0  0
    4.9406   -4.6957    6.3074 C   0  0  0  0  0  0  0  0  0  0  0  0
    2.6606   -4.2024    5.3362 C   0  0  0  0  0  0  0  0  0  0  0  0
    2.6307   -5.3232    4.2832 C   0  0  0  0  0  0  0  0  0  0  0  0
    3.2853   -4.8889    2.9661 C   0  0  0  0  0  0  0  0  0  0  0  0
    4.7136   -4.3535    3.1832 C   0  0  1  0  0  0  0  0  0  0  0  0
    5.5482   -4.0068    1.9181 C   0  0  1  0  0  0  0  0  0  0  0  0
    5.6805   -5.1520    0.8919 C   0  0  0  0  0  0  0  0  0  0  0  0
    4.7650   -5.0103   -0.3234 C   0  0  0  0  0  0  0  0  0  0  0  0
    4.9663   -3.6423   -0.9974 C   0  0  1  0  0  0  0  0  0  0  0  0
    4.2886   -3.5552   -2.3852 C   0  0  0  0  0  0  0  0  0  0  0  0
    4.6111   -2.2446   -3.1044 C   0  0  1  0  0  0  0  0  0  0  0  0
    3.8525   -2.1463   -4.2937 O   0  0  0  0  0  0  0  0  0  0  0  0
    4.3498   -1.0181   -2.2211 C   0  0  0  0  0  0  0  0  0  0  0  0
    4.9699   -1.1597   -0.8128 C   0  0  0  0  0  0  0  0  0  0  0  0
    4.5712   -2.4643   -0.0561 C   0  0  1  0  0  0  0  0  0  0  0  0
    3.0500   -2.4435    0.1875 C   0  0  0  0  0  0  0  0  0  0  0  0
    5.3875   -2.5858    1.2874 C   0  0  1  0  0  0  0  0  0  0  0  0
    5.1794   -1.4844    2.3681 C   0  0  0  0  0  0  0  0  0  0  0  0
    4.3318   -1.8491    3.6071 C   0  0  1  0  0  0  0  0  0  0  0  0
    2.9533   -1.7653    3.3086 O   0  0  0  0  0  0  0  0  0  0  0  0
    4.7566   -3.2096    4.2320 C   0  0  1  0  0  0  0  0  0  0  0  0
    3.6032   -2.7467    7.5337 H   0  0  0  0  0  0  0  0  0  0  0  0
    3.2662   -1.6755    6.1887 H   0  0  0  0  0  0  0  0  0  0  0  0
    4.9337   -1.9461    6.7079 H   0  0  0  0  0  0  0  0  0  0  0  0
    5.0200   -5.6238    5.7442 H   0  0  0  0  0  0  0  0  0  0  0  0
    4.5142   -4.9554    7.2781 H   0  0  0  0  0  0  0  0  0  0  0  0
    5.9557   -4.3368    6.4855 H   0  0  0  0  0  0  0  0  0  0  0  0
    2.2442   -4.5729    6.2736 H   0  0  0  0  0  0  0  0  0  0  0  0
    1.9873   -3.4029    5.0225 H   0  0  0  0  0  0  0  0  0  0  0  0
    3.1228   -6.2145    4.6709 H   0  0  0  0  0  0  0  0  0  0  0  0
    1.5955   -5.6077    4.0978 H   0  0  0  0  0  0  0  0  0  0  0  0
    3.2922   -5.7336    2.2796 H   0  0  0  0  0  0  0  0  0  0  0  0
    2.6510   -4.1346    2.5218 H   0  0  0  0  0  0  0  0  0  0  0  0
    5.2576   -5.1938    3.6144 H   0  0  0  0  0  0  0  0  0  0  0  0
    6.5525   -3.9625    2.3425 H   0  0  0  0  0  0  0  0  0  0  0  0
    6.7095   -5.1787    0.5334 H   0  0  0  0  0  0  0  0  0  0  0  0
    5.5145   -6.1175    1.3653 H   0  0  0  0  0  0  0  0  0  0  0  0
    5.0021   -5.8032   -1.0338 H   0  0  0  0  0  0  0  0  0  0  0  0
    3.7258   -5.1758   -0.0409 H   0  0  0  0  0  0  0  0  0  0  0  0
    6.0399   -3.5623   -1.1891 H   0  0  0  0  0  0  0  0  0  0  0  0
    4.6410   -4.3816   -3.0040 H   0  0  0  0  0  0  0  0  0  0  0  0
    3.2118   -3.6976   -2.3010 H   0  0  0  0  0  0  0  0  0  0  0  0
    5.6646   -2.2723   -3.3747 H   0  0  0  0  0  0  0  0  0  0  0  0
    2.9310   -2.1300   -4.0620 H   0  0  0  0  0  0  0  0  0  0  0  0
    4.7617   -0.1340   -2.7076 H   0  0  0  0  0  0  0  0  0  0  0  0
    3.2775   -0.8314   -2.1409 H   0  0  0  0  0  0  0  0  0  0  0  0
    6.0550   -1.1283   -0.9168 H   0  0  0  0  0  0  0  0  0  0  0  0
    4.7011   -0.2751   -0.2352 H   0  0  0  0  0  0  0  0  0  0  0  0
    2.7436   -1.6053    0.8106 H   0  0  0  0  0  0  0  0  0  0  0  0
    2.6716   -3.3603    0.6207 H   0  0  0  0  0  0  0  0  0  0  0  0
    2.5110   -2.3256   -0.7464 H   0  0  0  0  0  0  0  0  0  0  0  0
    6.4004   -2.3826    0.9328 H   0  0  0  0  0  0  0  0  0  0  0  0
    6.1708   -1.2341    2.7446 H   0  0  0  0  0  0  0  0  0  0  0  0
    4.8151   -0.5562    1.9363 H   0  0  0  0  0  0  0  0  0  0  0  0
    4.5124   -1.0612    4.3373 H   0  0  0  0  0  0  0  0  0  0  0  0
    2.7712   -0.9133    2.9466 H   0  0  0  0  0  0  0  0  0  0  0  0
    5.8116   -3.0650    4.4762 H   0  0  0  0  0  0  0  0  0  0  0  0
  1  2  1  0
  1 24  1  0
  1 25  1  0
  1 26  1  0
  2 23  1  0
  2  3  1  0
  2  4  1  0
  3 27  1  0
  3 28  1  0
  3 29  1  0
  4  5  1  0
  4 30  1  0
  4 31  1  0
  5  6  1  0
  5 32  1  0
  5 33  1  0
  6  7  1  0
  6 34  1  0
  6 35  1  0
  7 23  1  0
  7  8  1  0
  7 36  1  1
  8 19  1  0
  8  9  1  0
  8 37  1  1
  9 10  1  0
  9 38  1  0
  9 39  1  0
 10 11  1  0
 10 40  1  0
 10 41  1  0
 11 17  1  0
 11 12  1  0
 11 42  1  6
 12 13  1  0
 12 43  1  0
 12 44  1  0
 13 14  1  0
 13 15  1  0
 13 45  1  6
 14 46  1  0
 15 16  1  0
 15 47  1  0
 15 48  1  0
 16 17  1  0
 16 49  1  0
 16 50  1  0
 17 18  1  1
 17 19  1  0
 18 51  1  0
 18 52  1  0
 18 53  1  0
 19 20  1  0
 19 54  1  6
 20 21  1  0
 20 55  1  0
 20 56  1  0
 21 22  1  0
 21 23  1  0
 21 57  1  1
 22 58  1  0
 23 59  1  1
M  END
>  <i_m_ct_stereo_status>  (84) 
1

>  <s_m_source_file>  (84) 
/var/tmp/pbs.5076255.sched01/tmpvv81v907/0tx7qkblw.sdf

>  <i_m_source_file_index>  (84) 
34

>  <i_lp_mmshare_version>  (84) 
48012

>  <i_f3d_flags>  (84) 
0

>  <s_epik_input>  (84) 
W0NIMl0xW0NIMl1bQ0gyXUMoW0NIM10pKFtDSDNdKVtDQEhdKFtDQEhdKFtPSF0pW0NIMl1bQ0BASF0yMylbQ0BASF0xW0NASF0yW0NIMl1bQ0gyXVtDQEhdKFtDQEBdMzRbQ0gzXSlbQ0gyXVtDQEBIXShbT0hdKVtDSDJdW0NIMl00

>  <s_epik_cmdline>  (84) 
J2VwaWtfcHl0aG9uJywgJy1waHQnLCAnMi4wJywgJy1waCcsICc3LjAnLCAnLXRuJywgJzgnLCAnLW1hJywgJzIwMCcsICctaW1hZScsICc8aW5maWxlLm1hZT4nLCAnLW9tYWUnLCAnPG91dGZpbGUubWFlPic=

>  <r_lp_tautomer_probability>  (84) 
1

>  <r_epik_Ionization_Penalty>  (84) 
5.87568e-06

>  <r_epik_Ionization_Penalty_Charging>  (84) 
0

>  <r_epik_Ionization_Penalty_Neutral>  (84) 
5.87568e-06

>  <r_epik_State_Penalty>  (84) 
-0

>  <r_epik_Charging_Adjusted_Penalty>  (84) 
0

>  <i_epik_Tot_Q>  (84) 
0

>  <i_epik_Tot_abs_Q>  (84) 
0

>  <s_lp_Force_Field>  (84) 
OPLS3e

>  <r_lp_Energy>  (84) 
59.7593

>  <b_lp_Chiralities_Consistent>  (84) 
1

>  <s_lp_Variant>  (84) 
14:0-1

>  <s_i_glide_gridfile>  (84) 
pfpi4k_grid

>  <i_i_glide_lignum>  (84) 
34

>  <i_i_glide_rotatable_bonds>  (84) 
2

>  <r_i_docking_score>  (84) 
-3.69113

>  <r_i_glide_ligand_efficiency>  (84) 
-0.160484

>  <r_i_glide_ligand_efficiency_sa>  (84) 
-0.456395

>  <r_i_glide_ligand_efficiency_ln>  (84) 
-0.89255

>  <r_i_glide_gscore>  (84) 
-3.69113

>  <r_i_glide_lipo>  (84) 
-0.464176

>  <r_i_glide_hbond>  (84) 
-0.32

>  <r_i_glide_metal>  (84) 
-0

>  <r_i_glide_rewards>  (84) 
-1.2238

>  <r_i_glide_evdw>  (84) 
-22.0642

>  <r_i_glide_ecoul>  (84) 
-3.86631

>  <r_i_glide_erotb>  (84) 
0

>  <r_i_glide_esite>  (84) 
0

>  <r_i_glide_emodel>  (84) 
-31.5438

>  <r_i_glide_energy>  (84) 
-25.9305

>  <r_i_glide_einternal>  (84) 
0.360683

>  <r_i_glide_intrahb_reward>  (84) 
-0

>  <i_i_glide_confnum>  (84) 
1

>  <i_i_glide_posenum>  (84) 
1

>  <r_i_glide_eff_state_penalty>  (84) 
0

>  <ligand_id>  (84) 
14

>  <original_smiles>  (84) 
CC1(C)CCCC2C3CCC4CC(O)CCC4(C)C3CC(O)C21

>  <smiles>  (84) 
[H]OC1([H])C([H])([H])C([H])([H])C2(C([H])([H])[H])C([H])(C([H])([H])C([H])([H])C3([H])C4([H])C([H])([H])C([H])([H])C([H])([H])C(C([H])([H])[H])(C([H])([H])[H])C4([H])C([H])(O[H])C([H])([H])C32[H])C1([H])[H]

$$$$
14:0:1
     RDKit          3D

 59 62  0  0  1  0  0  0  0  0999 V2000
    4.1819   -1.5895   -4.6225 C   0  0  0  0  0  0  0  0  0  0  0  0
    3.4538   -1.7414   -3.3236 C   0  0  0  0  0  0  0  0  0  0  0  0
    2.8351   -0.3696   -3.2424 C   0  0  0  0  0  0  0  0  0  0  0  0
    2.4828   -2.9586   -3.4971 C   0  0  0  0  0  0  0  0  0  0  0  0
    1.7973   -3.4031   -2.2085 C   0  0  0  0  0  0  0  0  0  0  0  0
    2.6960   -3.4617   -0.9866 C   0  0  0  0  0  0  0  0  0  0  0  0
    3.6451   -2.2573   -0.8312 C   0  0  1  0  0  0  0  0  0  0  0  0
    4.5871   -2.2732    0.4026 C   0  0  1  0  0  0  0  0  0  0  0  0
    3.8607   -2.4096    1.7580 C   0  0  0  0  0  0  0  0  0  0  0  0
    3.9039   -3.8150    2.3561 C   0  0  0  0  0  0  0  0  0  0  0  0
    5.3541   -4.3193    2.4448 C   0  0  1  0  0  0  0  0  0  0  0  0
    5.4905   -5.5967    3.3050 C   0  0  0  0  0  0  0  0  0  0  0  0
    6.9620   -5.9996    3.4911 C   0  0  1  0  0  0  0  0  0  0  0  0
    7.0444   -7.2375    4.1486 O   0  0  0  0  0  0  0  0  0  0  0  0
    7.7386   -6.0562    2.1632 C   0  0  0  0  0  0  0  0  0  0  0  0
    7.5141   -4.8148    1.2703 C   0  0  0  0  0  0  0  0  0  0  0  0
    6.0153   -4.4589    1.0335 C   0  0  1  0  0  0  0  0  0  0  0  0
    5.3674   -5.6119    0.2629 C   0  0  0  0  0  0  0  0  0  0  0  0
    5.9081   -3.0791    0.2904 C   0  0  1  0  0  0  0  0  0  0  0  0
    6.5333   -2.9721   -1.1274 C   0  0  0  0  0  0  0  0  0  0  0  0
    5.5714   -2.9572   -2.3401 C   0  0  1  0  0  0  0  0  0  0  0  0
    5.1265   -4.2685   -2.6927 O   0  0  0  0  0  0  0  0  0  0  0  0
    4.4233   -1.9501   -2.1314 C   0  0  1  0  0  0  0  0  0  0  0  0
    3.4870   -1.2705   -5.4353 H   0  0  0  0  0  0  0  0  0  0  0  0
    4.5184   -2.5837   -4.7992 H   0  0  0  0  0  0  0  0  0  0  0  0
    5.0096   -0.8935   -4.5855 H   0  0  0  0  0  0  0  0  0  0  0  0
    2.1916   -0.2986   -2.3749 H   0  0  0  0  0  0  0  0  0  0  0  0
    2.2430   -0.1415   -4.1190 H   0  0  0  0  0  0  0  0  0  0  0  0
    3.5726    0.4458   -3.1374 H   0  0  0  0  0  0  0  0  0  0  0  0
    1.7220   -2.7233   -4.2390 H   0  0  0  0  0  0  0  0  0  0  0  0
    2.9895   -3.8397   -3.9291 H   0  0  0  0  0  0  0  0  0  0  0  0
    0.9934   -2.7178   -2.0217 H   0  0  0  0  0  0  0  0  0  0  0  0
    1.2715   -4.3524   -2.3038 H   0  0  0  0  0  0  0  0  0  0  0  0
    2.0723   -3.5513   -0.1002 H   0  0  0  0  0  0  0  0  0  0  0  0
    3.2476   -4.3921   -1.0593 H   0  0  0  0  0  0  0  0  0  0  0  0
    3.0079   -1.3979   -0.6482 H   0  0  0  0  0  0  0  0  0  0  0  0
    4.9170   -1.2335    0.4051 H   0  0  0  0  0  0  0  0  0  0  0  0
    4.3315   -1.7173    2.4657 H   0  0  0  0  0  0  0  0  0  0  0  0
    2.8284   -2.0839    1.6697 H   0  0  0  0  0  0  0  0  0  0  0  0
    3.4647   -3.7828    3.3597 H   0  0  0  0  0  0  0  0  0  0  0  0
    3.2738   -4.4919    1.7810 H   0  0  0  0  0  0  0  0  0  0  0  0
    5.8900   -3.5310    2.9823 H   0  0  0  0  0  0  0  0  0  0  0  0
    5.0527   -5.4126    4.2872 H   0  0  0  0  0  0  0  0  0  0  0  0
    4.9196   -6.4103    2.8734 H   0  0  0  0  0  0  0  0  0  0  0  0
    7.4398   -5.2779    4.1647 H   0  0  0  0  0  0  0  0  0  0  0  0
    6.7286   -7.9170    3.5492 H   0  0  0  0  0  0  0  0  0  0  0  0
    8.8069   -6.1577    2.3764 H   0  0  0  0  0  0  0  0  0  0  0  0
    7.4679   -6.9575    1.6103 H   0  0  0  0  0  0  0  0  0  0  0  0
    8.0194   -3.9634    1.7206 H   0  0  0  0  0  0  0  0  0  0  0  0
    8.0311   -4.9738    0.3246 H   0  0  0  0  0  0  0  0  0  0  0  0
    5.8052   -5.7100   -0.7290 H   0  0  0  0  0  0  0  0  0  0  0  0
    4.2959   -5.5182    0.1536 H   0  0  0  0  0  0  0  0  0  0  0  0
    5.4891   -6.5852    0.7428 H   0  0  0  0  0  0  0  0  0  0  0  0
    6.5892   -2.4637    0.8879 H   0  0  0  0  0  0  0  0  0  0  0  0
    7.0586   -2.0148   -1.1620 H   0  0  0  0  0  0  0  0  0  0  0  0
    7.3072   -3.7153   -1.3059 H   0  0  0  0  0  0  0  0  0  0  0  0
    6.1714   -2.6542   -3.1905 H   0  0  0  0  0  0  0  0  0  0  0  0
    4.3509   -4.4807   -2.1719 H   0  0  0  0  0  0  0  0  0  0  0  0
    4.9136   -0.9814   -1.9847 H   0  0  0  0  0  0  0  0  0  0  0  0
  1  2  1  0
  1 24  1  0
  1 25  1  0
  1 26  1  0
  2 23  1  0
  2  3  1  0
  2  4  1  0
  3 27  1  0
  3 28  1  0
  3 29  1  0
  4  5  1  0
  4 30  1  0
  4 31  1  0
  5  6  1  0
  5 32  1  0
  5 33  1  0
  6  7  1  0
  6 34  1  0
  6 35  1  0
  7 23  1  0
  7  8  1  0
  7 36  1  1
  8 19  1  0
  8  9  1  0
  8 37  1  1
  9 10  1  0
  9 38  1  0
  9 39  1  0
 10 11  1  0
 10 40  1  0
 10 41  1  0
 11 17  1  0
 11 12  1  0
 11 42  1  1
 12 13  1  0
 12 43  1  0
 12 44  1  0
 13 14  1  0
 13 15  1  0
 13 45  1  1
 14 46  1  0
 15 16  1  0
 15 47  1  0
 15 48  1  0
 16 17  1  0
 16 49  1  0
 16 50  1  0
 17 18  1  6
 17 19  1  0
 18 51  1  0
 18 52  1  0
 18 53  1  0
 19 20  1  0
 19 54  1  1
 20 21  1  0
 20 55  1  0
 20 56  1  0
 21 22  1  0
 21 23  1  0
 21 57  1  6
 22 58  1  0
 23 59  1  1
M  END
>  <i_m_ct_stereo_status>  (85) 
1

>  <s_m_source_file>  (85) 
/var/tmp/pbs.5076255.sched01/tmpvv81v907/0tx7qkblw.sdf

>  <i_m_source_file_index>  (85) 
34

>  <i_lp_mmshare_version>  (85) 
48012

>  <i_f3d_flags>  (85) 
0

>  <s_epik_input>  (85) 
W0NIMl0xW0NIMl1bQ0gyXUMoW0NIM10pKFtDSDNdKVtDQEhdKFtDQEhdKFtPSF0pW0NIMl1bQ0BASF0yMylbQ0BASF0xW0NASF0yW0NIMl1bQ0gyXVtDQEhdKFtDQEBdMzRbQ0gzXSlbQ0gyXVtDQEBIXShbT0hdKVtDSDJdW0NIMl00

>  <s_epik_cmdline>  (85) 
J2VwaWtfcHl0aG9uJywgJy1waHQnLCAnMi4wJywgJy1waCcsICc3LjAnLCAnLXRuJywgJzgnLCAnLW1hJywgJzIwMCcsICctaW1hZScsICc8aW5maWxlLm1hZT4nLCAnLW9tYWUnLCAnPG91dGZpbGUubWFlPic=

>  <r_lp_tautomer_probability>  (85) 
1

>  <r_epik_Ionization_Penalty>  (85) 
5.87568e-06

>  <r_epik_Ionization_Penalty_Charging>  (85) 
0

>  <r_epik_Ionization_Penalty_Neutral>  (85) 
5.87568e-06

>  <r_epik_State_Penalty>  (85) 
-0

>  <r_epik_Charging_Adjusted_Penalty>  (85) 
0

>  <i_epik_Tot_Q>  (85) 
0

>  <i_epik_Tot_abs_Q>  (85) 
0

>  <s_lp_Force_Field>  (85) 
OPLS3e

>  <r_lp_Energy>  (85) 
59.7593

>  <b_lp_Chiralities_Consistent>  (85) 
1

>  <s_lp_Variant>  (85) 
14:0-1

>  <s_i_glide_gridfile>  (85) 
pfpi4k_grid

>  <i_i_glide_lignum>  (85) 
34

>  <i_i_glide_rotatable_bonds>  (85) 
2

>  <r_i_docking_score>  (85) 
-3.16722

>  <r_i_glide_ligand_efficiency>  (85) 
-0.137705

>  <r_i_glide_ligand_efficiency_sa>  (85) 
-0.391616

>  <r_i_glide_ligand_efficiency_ln>  (85) 
-0.765863

>  <r_i_glide_gscore>  (85) 
-3.16722

>  <r_i_glide_lipo>  (85) 
-1.07648

>  <r_i_glide_hbond>  (85) 
-0.0981169

>  <r_i_glide_metal>  (85) 
-0

>  <r_i_glide_rewards>  (85) 
-1.2238

>  <r_i_glide_evdw>  (85) 
-11.7256

>  <r_i_glide_ecoul>  (85) 
-1.21695

>  <r_i_glide_erotb>  (85) 
0

>  <r_i_glide_esite>  (85) 
0

>  <r_i_glide_emodel>  (85) 
-15.9593

>  <r_i_glide_energy>  (85) 
-12.9426

>  <r_i_glide_einternal>  (85) 
0.555449

>  <r_i_glide_intrahb_reward>  (85) 
-0

>  <i_i_glide_confnum>  (85) 
2

>  <i_i_glide_posenum>  (85) 
4

>  <r_i_glide_eff_state_penalty>  (85) 
0

>  <ligand_id>  (85) 
14

>  <original_smiles>  (85) 
CC1(C)CCCC2C3CCC4CC(O)CCC4(C)C3CC(O)C21

>  <smiles>  (85) 
[H]OC1([H])C([H])([H])C([H])([H])C2(C([H])([H])[H])C([H])(C([H])([H])C([H])([H])C3([H])C4([H])C([H])([H])C([H])([H])C([H])([H])C(C([H])([H])[H])(C([H])([H])[H])C4([H])C([H])(O[H])C([H])([H])C32[H])C1([H])[H]

$$$$
14:0:2
     RDKit          3D

 59 62  0  0  1  0  0  0  0  0999 V2000
    4.1797   -1.4590   -4.7218 C   0  0  0  0  0  0  0  0  0  0  0  0
    3.5145   -1.6374   -3.3761 C   0  0  0  0  0  0  0  0  0  0  0  0
    2.8719   -0.2806   -3.1719 C   0  0  0  0  0  0  0  0  0  0  0  0
    2.5146   -2.8037   -3.5899 C   0  0  0  0  0  0  0  0  0  0  0  0
    1.7598   -3.1540   -2.3244 C   0  0  0  0  0  0  0  0  0  0  0  0
    2.6672   -3.4209   -1.1160 C   0  0  0  0  0  0  0  0  0  0  0  0
    3.6835   -2.2880   -0.8690 C   0  0  1  0  0  0  0  0  0  0  0  0
    4.5983   -2.4529    0.3757 C   0  0  1  0  0  0  0  0  0  0  0  0
    3.8367   -2.6577    1.7051 C   0  0  0  0  0  0  0  0  0  0  0  0
    3.8074   -4.1039    2.2077 C   0  0  0  0  0  0  0  0  0  0  0  0
    5.2359   -4.6628    2.2877 C   0  0  1  0  0  0  0  0  0  0  0  0
    5.2985   -6.0032    3.0561 C   0  0  0  0  0  0  0  0  0  0  0  0
    6.7506   -6.4896    3.2358 C   0  0  1  0  0  0  0  0  0  0  0  0
    6.7412   -7.7788    3.8144 O   0  0  0  0  0  0  0  0  0  0  0  0
    7.5354   -6.5110    1.9132 C   0  0  0  0  0  0  0  0  0  0  0  0
    7.3837   -5.1935    1.1206 C   0  0  0  0  0  0  0  0  0  0  0  0
    5.9018   -4.7514    0.8802 C   0  0  1  0  0  0  0  0  0  0  0  0
    5.1810   -5.8092    0.0129 C   0  0  0  0  0  0  0  0  0  0  0  0
    5.8952   -3.3083    0.2113 C   0  0  1  0  0  0  0  0  0  0  0  0
    6.5568   -3.0961   -1.2006 C   0  0  0  0  0  0  0  0  0  0  0  0
    5.6011   -2.9742   -2.4277 C   0  0  1  0  0  0  0  0  0  0  0  0
    5.0864   -4.2260   -2.8540 O   0  0  0  0  0  0  0  0  0  0  0  0
    4.4832   -1.9306   -2.1656 C   0  0  1  0  0  0  0  0  0  0  0  0
    3.4714   -1.0242   -5.4689 H   0  0  0  0  0  0  0  0  0  0  0  0
    4.5778   -2.4386   -5.0767 H   0  0  0  0  0  0  0  0  0  0  0  0
    4.9844   -0.7681   -4.5857 H   0  0  0  0  0  0  0  0  0  0  0  0
    2.2103   -0.3008   -2.3138 H   0  0  0  0  0  0  0  0  0  0  0  0
    2.2762   -0.0027   -4.0517 H   0  0  0  0  0  0  0  0  0  0  0  0
    3.6488    0.4903   -3.0258 H   0  0  0  0  0  0  0  0  0  0  0  0
    1.7615   -2.4750   -4.3061 H   0  0  0  0  0  0  0  0  0  0  0  0
    2.9826   -3.6993   -4.0134 H   0  0  0  0  0  0  0  0  0  0  0  0
    1.1110   -2.2723   -2.2753 H   0  0  0  0  0  0  0  0  0  0  0  0
    1.1004   -4.0125   -2.4042 H   0  0  0  0  0  0  0  0  0  0  0  0
    2.0337   -3.5647   -0.2433 H   0  0  0  0  0  0  0  0  0  0  0  0
    3.1956   -4.3470   -1.2946 H   0  0  0  0  0  0  0  0  0  0  0  0
    3.0643   -1.4151   -0.6503 H   0  0  0  0  0  0  0  0  0  0  0  0
    4.9796   -1.4304    0.4496 H   0  0  0  0  0  0  0  0  0  0  0  0
    4.3317   -2.0433    2.4543 H   0  0  0  0  0  0  0  0  0  0  0  0
    2.8217   -2.2654    1.6199 H   0  0  0  0  0  0  0  0  0  0  0  0
    3.3572   -4.1096    3.1963 H   0  0  0  0  0  0  0  0  0  0  0  0
    3.1608   -4.7144    1.5803 H   0  0  0  0  0  0  0  0  0  0  0  0
    5.8100   -3.9475    2.8814 H   0  0  0  0  0  0  0  0  0  0  0  0
    4.8454   -5.8709    4.0395 H   0  0  0  0  0  0  0  0  0  0  0  0
    4.6906   -6.7649    2.5545 H   0  0  0  0  0  0  0  0  0  0  0  0
    7.2520   -5.8217    3.9305 H   0  0  0  0  0  0  0  0  0  0  0  0
    6.2815   -8.3674    3.2339 H   0  0  0  0  0  0  0  0  0  0  0  0
    8.5881   -6.6806    2.1320 H   0  0  0  0  0  0  0  0  0  0  0  0
    7.2269   -7.3544    1.2978 H   0  0  0  0  0  0  0  0  0  0  0  0
    7.9131   -4.4088    1.6736 H   0  0  0  0  0  0  0  0  0  0  0  0
    7.9195   -5.2960    0.1757 H   0  0  0  0  0  0  0  0  0  0  0  0
    5.6146   -5.7827   -0.9749 H   0  0  0  0  0  0  0  0  0  0  0  0
    4.1203   -5.6377   -0.0830 H   0  0  0  0  0  0  0  0  0  0  0  0
    5.2892   -6.8144    0.4102 H   0  0  0  0  0  0  0  0  0  0  0  0
    6.5780   -2.7733    0.8713 H   0  0  0  0  0  0  0  0  0  0  0  0
    7.0886   -2.1437   -1.1242 H   0  0  0  0  0  0  0  0  0  0  0  0
    7.3492   -3.8168   -1.3933 H   0  0  0  0  0  0  0  0  0  0  0  0
    6.2348   -2.6240   -3.2446 H   0  0  0  0  0  0  0  0  0  0  0  0
    5.8029   -4.8242   -2.9327 H   0  0  0  0  0  0  0  0  0  0  0  0
    5.0190   -0.9951   -1.9489 H   0  0  0  0  0  0  0  0  0  0  0  0
  1  2  1  0
  1 24  1  0
  1 25  1  0
  1 26  1  0
  2 23  1  0
  2  3  1  0
  2  4  1  0
  3 27  1  0
  3 28  1  0
  3 29  1  0
  4  5  1  0
  4 30  1  0
  4 31  1  0
  5  6  1  0
  5 32  1  0
  5 33  1  0
  6  7  1  0
  6 34  1  0
  6 35  1  0
  7 23  1  0
  7  8  1  0
  7 36  1  1
  8 19  1  0
  8  9  1  0
  8 37  1  1
  9 10  1  0
  9 38  1  0
  9 39  1  0
 10 11  1  0
 10 40  1  0
 10 41  1  0
 11 17  1  0
 11 12  1  0
 11 42  1  1
 12 13  1  0
 12 43  1  0
 12 44  1  0
 13 14  1  0
 13 15  1  0
 13 45  1  1
 14 46  1  0
 15 16  1  0
 15 47  1  0
 15 48  1  0
 16 17  1  0
 16 49  1  0
 16 50  1  0
 17 18  1  6
 17 19  1  0
 18 51  1  0
 18 52  1  0
 18 53  1  0
 19 20  1  0
 19 54  1  1
 20 21  1  0
 20 55  1  0
 20 56  1  0
 21 22  1  0
 21 23  1  0
 21 57  1  6
 22 58  1  0
 23 59  1  1
M  END
>  <i_m_ct_stereo_status>  (86) 
1

>  <s_m_source_file>  (86) 
/var/tmp/pbs.5076255.sched01/tmpvv81v907/0tx7qkblw.sdf

>  <i_m_source_file_index>  (86) 
34

>  <i_lp_mmshare_version>  (86) 
48012

>  <i_f3d_flags>  (86) 
0

>  <s_epik_input>  (86) 
W0NIMl0xW0NIMl1bQ0gyXUMoW0NIM10pKFtDSDNdKVtDQEhdKFtDQEhdKFtPSF0pW0NIMl1bQ0BASF0yMylbQ0BASF0xW0NASF0yW0NIMl1bQ0gyXVtDQEhdKFtDQEBdMzRbQ0gzXSlbQ0gyXVtDQEBIXShbT0hdKVtDSDJdW0NIMl00

>  <s_epik_cmdline>  (86) 
J2VwaWtfcHl0aG9uJywgJy1waHQnLCAnMi4wJywgJy1waCcsICc3LjAnLCAnLXRuJywgJzgnLCAnLW1hJywgJzIwMCcsICctaW1hZScsICc8aW5maWxlLm1hZT4nLCAnLW9tYWUnLCAnPG91dGZpbGUubWFlPic=

>  <r_lp_tautomer_probability>  (86) 
1

>  <r_epik_Ionization_Penalty>  (86) 
5.87568e-06

>  <r_epik_Ionization_Penalty_Charging>  (86) 
0

>  <r_epik_Ionization_Penalty_Neutral>  (86) 
5.87568e-06

>  <r_epik_State_Penalty>  (86) 
-0

>  <r_epik_Charging_Adjusted_Penalty>  (86) 
0

>  <i_epik_Tot_Q>  (86) 
0

>  <i_epik_Tot_abs_Q>  (86) 
0

>  <s_lp_Force_Field>  (86) 
OPLS3e

>  <r_lp_Energy>  (86) 
59.7593

>  <b_lp_Chiralities_Consistent>  (86) 
1

>  <s_lp_Variant>  (86) 
14:0-1

>  <s_i_glide_gridfile>  (86) 
pfpi4k_grid

>  <i_i_glide_lignum>  (86) 
34

>  <i_i_glide_rotatable_bonds>  (86) 
2

>  <r_i_docking_score>  (86) 
-2.37604

>  <r_i_glide_ligand_efficiency>  (86) 
-0.103306

>  <r_i_glide_ligand_efficiency_sa>  (86) 
-0.293789

>  <r_i_glide_ligand_efficiency_ln>  (86) 
-0.574548

>  <r_i_glide_gscore>  (86) 
-2.37604

>  <r_i_glide_lipo>  (86) 
-1.10111

>  <r_i_glide_hbond>  (86) 
0

>  <r_i_glide_metal>  (86) 
-0

>  <r_i_glide_rewards>  (86) 
-1.29047

>  <r_i_glide_evdw>  (86) 
-3.20172

>  <r_i_glide_ecoul>  (86) 
1.17081

>  <r_i_glide_erotb>  (86) 
0

>  <r_i_glide_esite>  (86) 
0

>  <r_i_glide_emodel>  (86) 
-4.23709

>  <r_i_glide_energy>  (86) 
-2.03091

>  <r_i_glide_einternal>  (86) 
0.386361

>  <r_i_glide_intrahb_reward>  (86) 
-0

>  <i_i_glide_confnum>  (86) 
2

>  <i_i_glide_posenum>  (86) 
11

>  <r_i_glide_eff_state_penalty>  (86) 
0

>  <ligand_id>  (86) 
14

>  <original_smiles>  (86) 
CC1(C)CCCC2C3CCC4CC(O)CCC4(C)C3CC(O)C21

>  <smiles>  (86) 
[H]OC1([H])C([H])([H])C([H])([H])C2(C([H])([H])[H])C([H])(C([H])([H])C([H])([H])C3([H])C4([H])C([H])([H])C([H])([H])C([H])([H])C(C([H])([H])[H])(C([H])([H])[H])C4([H])C([H])(O[H])C([H])([H])C32[H])C1([H])[H]

$$$$
17:0:0
     RDKit          3D

 60 63  0  0  1  0  0  0  0  0999 V2000
    2.4120   -8.1595    3.1841 C   0  0  0  0  0  0  0  0  0  0  0  0
    2.6779   -6.8471    3.1572 C   0  0  0  0  0  0  0  0  0  0  0  0
    2.4829   -6.0153    1.9059 C   0  0  0  0  0  0  0  0  0  0  0  0
    3.2754   -4.6729    1.9393 C   0  0  2  0  0  0  0  0  0  0  0  0
    2.9375   -3.8926    0.6473 C   0  0  0  0  0  0  0  0  0  0  0  0
    3.7598   -4.3769   -0.5443 C   0  0  0  0  0  0  0  0  0  0  0  0
    5.2804   -4.0981   -0.4388 C   0  0  1  0  0  0  0  0  0  0  0  0
    5.7903   -2.9205   -1.3710 C   0  0  0  0  0  0  0  0  0  0  0  0
    7.3316   -2.8929   -1.5495 C   0  0  0  0  0  0  0  0  0  0  0  0
    5.2552   -3.0554   -2.8149 C   0  0  0  0  0  0  0  0  0  0  0  0
    5.3409   -1.5875   -0.7644 C   0  0  0  0  0  0  0  0  0  0  0  0
    5.9388   -1.3897    0.6315 C   0  0  0  0  0  0  0  0  0  0  0  0
    5.6947   -2.5718    1.5905 C   0  0  0  0  0  0  0  0  0  0  0  0
    5.7458   -4.0438    1.0608 C   0  0  2  0  0  0  0  0  0  0  0  0
    7.1777   -4.6574    1.1452 C   0  0  0  0  0  0  0  0  0  0  0  0
    4.8316   -4.9570    1.9913 C   0  0  1  0  0  0  0  0  0  0  0  0
    5.3685   -5.0501    3.4535 C   0  0  0  0  0  0  0  0  0  0  0  0
    4.6904   -6.0644    4.3884 C   0  0  0  0  0  0  0  0  0  0  0  0
    3.1541   -6.0881    4.3772 C   0  0  1  0  0  0  0  0  0  0  0  0
    2.4887   -4.6901    4.4646 C   0  0  1  0  0  0  0  0  0  0  0  0
    1.0935   -4.8934    4.5824 O   0  0  0  0  0  0  0  0  0  0  0  0
    2.8922   -3.9168    5.7496 C   0  0  0  0  0  0  0  0  0  0  0  0
    2.2973   -2.6368    5.8239 O   0  0  0  0  0  0  0  0  0  0  0  0
    2.7383   -3.8639    3.1670 C   0  0  0  0  0  0  0  0  0  0  0  0
    2.5544   -8.7389    4.0849 H   0  0  0  0  0  0  0  0  0  0  0  0
    2.0656   -8.6870    2.3077 H   0  0  0  0  0  0  0  0  0  0  0  0
    2.7270   -6.6194    1.0353 H   0  0  0  0  0  0  0  0  0  0  0  0
    1.4187   -5.7976    1.8438 H   0  0  0  0  0  0  0  0  0  0  0  0
    1.8862   -4.0298    0.3991 H   0  0  0  0  0  0  0  0  0  0  0  0
    3.0458   -2.8136    0.7783 H   0  0  0  0  0  0  0  0  0  0  0  0
    3.6125   -5.4471   -0.6608 H   0  0  0  0  0  0  0  0  0  0  0  0
    3.3036   -3.9280   -1.4274 H   0  0  0  0  0  0  0  0  0  0  0  0
    5.7169   -4.9959   -0.8664 H   0  0  0  0  0  0  0  0  0  0  0  0
    7.6474   -2.1239   -2.2556 H   0  0  0  0  0  0  0  0  0  0  0  0
    7.7390   -3.8288   -1.9393 H   0  0  0  0  0  0  0  0  0  0  0  0
    7.8786   -2.6675   -0.6323 H   0  0  0  0  0  0  0  0  0  0  0  0
    5.8149   -2.4137   -3.5009 H   0  0  0  0  0  0  0  0  0  0  0  0
    4.2183   -2.7450   -2.9086 H   0  0  0  0  0  0  0  0  0  0  0  0
    5.3528   -4.0745   -3.1956 H   0  0  0  0  0  0  0  0  0  0  0  0
    5.5757   -0.7547   -1.4292 H   0  0  0  0  0  0  0  0  0  0  0  0
    4.2548   -1.5928   -0.6863 H   0  0  0  0  0  0  0  0  0  0  0  0
    6.9959   -1.1477    0.5725 H   0  0  0  0  0  0  0  0  0  0  0  0
    5.4769   -0.4978    1.0560 H   0  0  0  0  0  0  0  0  0  0  0  0
    6.4105   -2.4563    2.3939 H   0  0  0  0  0  0  0  0  0  0  0  0
    4.7465   -2.3545    2.0517 H   0  0  0  0  0  0  0  0  0  0  0  0
    7.7436   -4.2622    1.9801 H   0  0  0  0  0  0  0  0  0  0  0  0
    7.7895   -4.5416    0.2690 H   0  0  0  0  0  0  0  0  0  0  0  0
    7.1363   -5.7368    1.2765 H   0  0  0  0  0  0  0  0  0  0  0  0
    4.9506   -5.9602    1.5854 H   0  0  0  0  0  0  0  0  0  0  0  0
    6.4139   -5.3486    3.4500 H   0  0  0  0  0  0  0  0  0  0  0  0
    5.3662   -4.0658    3.9156 H   0  0  0  0  0  0  0  0  0  0  0  0
    5.0458   -7.0681    4.1483 H   0  0  0  0  0  0  0  0  0  0  0  0
    5.0406   -5.8815    5.4035 H   0  0  0  0  0  0  0  0  0  0  0  0
    2.8425   -6.6650    5.2494 H   0  0  0  0  0  0  0  0  0  0  0  0
    0.9538   -5.4595    5.3403 H   0  0  0  0  0  0  0  0  0  0  0  0
    2.6051   -4.4779    6.6459 H   0  0  0  0  0  0  0  0  0  0  0  0
    3.9744   -3.7802    5.8075 H   0  0  0  0  0  0  0  0  0  0  0  0
    2.6095   -2.1201    5.0837 H   0  0  0  0  0  0  0  0  0  0  0  0
    3.4123   -3.0454    3.4210 H   0  0  0  0  0  0  0  0  0  0  0  0
    1.8072   -3.3611    2.8903 H   0  0  0  0  0  0  0  0  0  0  0  0
  1  2  2  0
  1 25  1  0
  1 26  1  0
  2 19  1  0
  2  3  1  0
  3  4  1  0
  3 27  1  0
  3 28  1  0
  4 16  1  0
  4 24  1  0
  4  5  1  6
  5  6  1  0
  5 29  1  0
  5 30  1  0
  6  7  1  0
  6 31  1  0
  6 32  1  0
  7 14  1  0
  7  8  1  0
  7 33  1  6
  8  9  1  0
  8 10  1  0
  8 11  1  0
  9 34  1  0
  9 35  1  0
  9 36  1  0
 10 37  1  0
 10 38  1  0
 10 39  1  0
 11 12  1  0
 11 40  1  0
 11 41  1  0
 12 13  1  0
 12 42  1  0
 12 43  1  0
 13 14  1  0
 13 44  1  0
 13 45  1  0
 14 15  1  6
 14 16  1  0
 15 46  1  0
 15 47  1  0
 15 48  1  0
 16 17  1  0
 16 49  1  6
 17 18  1  0
 17 50  1  0
 17 51  1  0
 18 19  1  0
 18 52  1  0
 18 53  1  0
 19 20  1  0
 19 54  1  1
 20 21  1  1
 20 22  1  0
 20 24  1  0
 21 55  1  0
 22 23  1  0
 22 56  1  0
 22 57  1  0
 23 58  1  0
 24 59  1  0
 24 60  1  0
M  END
>  <i_m_ct_stereo_status>  (87) 
1

>  <s_m_source_file>  (87) 
/var/tmp/pbs.5076255.sched01/tmpvv81v907/0tx7qkblw.sdf

>  <i_m_source_file_index>  (87) 
37

>  <i_lp_mmshare_version>  (87) 
48012

>  <i_f3d_flags>  (87) 
0

>  <s_epik_input>  (87) 
W09IXVtDSDJdW0NAQF0oW09IXSkoW0NIMl0xKVtDQEBIXShDKD1bQ0gyXSlbQ0gyXTIpW0NIMl1bQ0gyXVtDQEBIXShbQ0BdMTIzKVtDQEBdNChbQ0gzXSlbQ0BASF0oW0NIMl1bQ0gyXTMpQyhbQ0gzXSkoW0NIM10pW0NIMl1bQ0gyXVtDSDJdNA==

>  <s_epik_cmdline>  (87) 
J2VwaWtfcHl0aG9uJywgJy1waHQnLCAnMi4wJywgJy1waCcsICc3LjAnLCAnLXRuJywgJzgnLCAnLW1hJywgJzIwMCcsICctaW1hZScsICc8aW5maWxlLm1hZT4nLCAnLW9tYWUnLCAnPG91dGZpbGUubWFlPic=

>  <r_lp_tautomer_probability>  (87) 
1

>  <r_epik_Ionization_Penalty>  (87) 
5.44779e-07

>  <r_epik_Ionization_Penalty_Charging>  (87) 
0

>  <r_epik_Ionization_Penalty_Neutral>  (87) 
5.44779e-07

>  <r_epik_State_Penalty>  (87) 
-0

>  <r_epik_Charging_Adjusted_Penalty>  (87) 
0

>  <i_epik_Tot_Q>  (87) 
0

>  <i_epik_Tot_abs_Q>  (87) 
0

>  <s_lp_Force_Field>  (87) 
OPLS3e

>  <r_lp_Energy>  (87) 
80.3947

>  <b_lp_Chiralities_Consistent>  (87) 
1

>  <s_lp_Variant>  (87) 
17:0-1

>  <s_i_glide_gridfile>  (87) 
pfpi4k_grid

>  <i_i_glide_lignum>  (87) 
37

>  <i_i_glide_rotatable_bonds>  (87) 
3

>  <r_i_docking_score>  (87) 
-2.40539

>  <r_i_glide_ligand_efficiency>  (87) 
-0.100224

>  <r_i_glide_ligand_efficiency_sa>  (87) 
-0.289097

>  <r_i_glide_ligand_efficiency_ln>  (87) 
-0.57572

>  <r_i_glide_gscore>  (87) 
-2.40539

>  <r_i_glide_lipo>  (87) 
-0.686714

>  <r_i_glide_hbond>  (87) 
0

>  <r_i_glide_metal>  (87) 
-0

>  <r_i_glide_rewards>  (87) 
-1.14191

>  <r_i_glide_evdw>  (87) 
-15.8417

>  <r_i_glide_ecoul>  (87) 
0.299802

>  <r_i_glide_erotb>  (87) 
0.17035

>  <r_i_glide_esite>  (87) 
0

>  <r_i_glide_emodel>  (87) 
-15.419

>  <r_i_glide_energy>  (87) 
-15.5419

>  <r_i_glide_einternal>  (87) 
3.70486

>  <r_i_glide_intrahb_reward>  (87) 
-0

>  <i_i_glide_confnum>  (87) 
3

>  <i_i_glide_posenum>  (87) 
9

>  <r_i_glide_eff_state_penalty>  (87) 
0

>  <ligand_id>  (87) 
17

>  <original_smiles>  (87) 
C=C1CC23CCC4C(C)(C)CCCC4(C)C2CCC1C(O)(CO)C3

>  <smiles>  (87) 
[H]OC([H])([H])C1(O[H])C([H])([H])C23C([H])([H])C(=C([H])[H])C1([H])C([H])([H])C([H])([H])C2([H])C1(C([H])([H])[H])C([H])([H])C([H])([H])C([H])([H])C(C([H])([H])[H])(C([H])([H])[H])C1([H])C([H])([H])C3([H])[H]

$$$$
17:0:1
     RDKit          3D

 60 63  0  0  1  0  0  0  0  0999 V2000
    1.6070   -6.1036    4.9244 C   0  0  0  0  0  0  0  0  0  0  0  0
    2.1483   -4.9285    4.5702 C   0  0  0  0  0  0  0  0  0  0  0  0
    1.7681   -4.2183    3.2840 C   0  0  0  0  0  0  0  0  0  0  0  0
    2.8286   -3.1705    2.8321 C   0  0  2  0  0  0  0  0  0  0  0  0
    2.2871   -2.4801    1.5602 C   0  0  0  0  0  0  0  0  0  0  0  0
    2.5376   -3.3162    0.2960 C   0  0  0  0  0  0  0  0  0  0  0  0
    4.0345   -3.4869   -0.0914 C   0  0  1  0  0  0  0  0  0  0  0  0
    4.4828   -2.6068   -1.3327 C   0  0  0  0  0  0  0  0  0  0  0  0
    5.8465   -3.0359   -1.9310 C   0  0  0  0  0  0  0  0  0  0  0  0
    3.4997   -2.7201   -2.5258 C   0  0  0  0  0  0  0  0  0  0  0  0
    4.5735   -1.1391   -0.8859 C   0  0  0  0  0  0  0  0  0  0  0  0
    5.6233   -0.9568    0.2140 C   0  0  0  0  0  0  0  0  0  0  0  0
    5.4546   -1.9079    1.4122 C   0  0  0  0  0  0  0  0  0  0  0  0
    4.9557   -3.3845    1.1871 C   0  0  2  0  0  0  0  0  0  0  0  0
    6.1566   -4.3622    0.9947 C   0  0  0  0  0  0  0  0  0  0  0  0
    4.2017   -3.8836    2.4999 C   0  0  1  0  0  0  0  0  0  0  0  0
    5.1431   -3.9671    3.7384 C   0  0  0  0  0  0  0  0  0  0  0  0
    4.5813   -4.6280    5.0078 C   0  0  0  0  0  0  0  0  0  0  0  0
    3.1639   -4.2024    5.4364 C   0  0  1  0  0  0  0  0  0  0  0  0
    2.9242   -2.6654    5.4282 C   0  0  1  0  0  0  0  0  0  0  0  0
    1.6286   -2.4660    5.9747 O   0  0  0  0  0  0  0  0  0  0  0  0
    3.8941   -1.9064    6.3730 C   0  0  0  0  0  0  0  0  0  0  0  0
    3.6700   -0.5090    6.3432 O   0  0  0  0  0  0  0  0  0  0  0  0
    2.9273   -2.1025    3.9770 C   0  0  0  0  0  0  0  0  0  0  0  0
    1.8949   -6.5871    5.8439 H   0  0  0  0  0  0  0  0  0  0  0  0
    0.8836   -6.6000    4.3012 H   0  0  0  0  0  0  0  0  0  0  0  0
    1.5699   -4.9629    2.5133 H   0  0  0  0  0  0  0  0  0  0  0  0
    0.8212   -3.7107    3.4729 H   0  0  0  0  0  0  0  0  0  0  0  0
    1.2281   -2.2562    1.6838 H   0  0  0  0  0  0  0  0  0  0  0  0
    2.7183   -1.4929    1.4230 H   0  0  0  0  0  0  0  0  0  0  0  0
    2.1102   -4.3051    0.4351 H   0  0  0  0  0  0  0  0  0  0  0  0
    1.9482   -2.8936   -0.5071 H   0  0  0  0  0  0  0  0  0  0  0  0
    4.0921   -4.5193   -0.4473 H   0  0  0  0  0  0  0  0  0  0  0  0
    6.0939   -2.4452   -2.8107 H   0  0  0  0  0  0  0  0  0  0  0  0
    5.8307   -4.0834   -2.2368 H   0  0  0  0  0  0  0  0  0  0  0  0
    6.6875   -2.8921   -1.2561 H   0  0  0  0  0  0  0  0  0  0  0  0
    3.9478   -2.3382   -3.4457 H   0  0  0  0  0  0  0  0  0  0  0  0
    2.5894   -2.1389   -2.3808 H   0  0  0  0  0  0  0  0  0  0  0  0
    3.2238   -3.7596   -2.7161 H   0  0  0  0  0  0  0  0  0  0  0  0
    4.7881   -0.4919   -1.7383 H   0  0  0  0  0  0  0  0  0  0  0  0
    3.5983   -0.8165   -0.5171 H   0  0  0  0  0  0  0  0  0  0  0  0
    6.6280   -1.0485   -0.1842 H   0  0  0  0  0  0  0  0  0  0  0  0
    5.5549    0.0721    0.5682 H   0  0  0  0  0  0  0  0  0  0  0  0
    6.3862   -1.9154    1.9707 H   0  0  0  0  0  0  0  0  0  0  0  0
    4.7760   -1.3804    2.0620 H   0  0  0  0  0  0  0  0  0  0  0  0
    7.0404   -4.0496    1.5443 H   0  0  0  0  0  0  0  0  0  0  0  0
    6.4617   -4.5315   -0.0250 H   0  0  0  0  0  0  0  0  0  0  0  0
    5.9059   -5.3643    1.3384 H   0  0  0  0  0  0  0  0  0  0  0  0
    3.9352   -4.9181    2.2757 H   0  0  0  0  0  0  0  0  0  0  0  0
    6.0282   -4.5528    3.5006 H   0  0  0  0  0  0  0  0  0  0  0  0
    5.5212   -2.9757    3.9817 H   0  0  0  0  0  0  0  0  0  0  0  0
    4.5922   -5.7106    4.8795 H   0  0  0  0  0  0  0  0  0  0  0  0
    5.2741   -4.4364    5.8254 H   0  0  0  0  0  0  0  0  0  0  0  0
    3.0259   -4.5667    6.4574 H   0  0  0  0  0  0  0  0  0  0  0  0
    1.6255   -2.8366    6.8429 H   0  0  0  0  0  0  0  0  0  0  0  0
    3.7802   -2.2576    7.3991 H   0  0  0  0  0  0  0  0  0  0  0  0
    4.9324   -2.0847    6.0908 H   0  0  0  0  0  0  0  0  0  0  0  0
    3.8031   -0.2023    5.4612 H   0  0  0  0  0  0  0  0  0  0  0  0
    3.8188   -1.4937    3.8607 H   0  0  0  0  0  0  0  0  0  0  0  0
    2.1052   -1.3899    3.8762 H   0  0  0  0  0  0  0  0  0  0  0  0
  1  2  2  0
  1 25  1  0
  1 26  1  0
  2 19  1  0
  2  3  1  0
  3  4  1  0
  3 27  1  0
  3 28  1  0
  4 16  1  0
  4 24  1  0
  4  5  1  6
  5  6  1  0
  5 29  1  0
  5 30  1  0
  6  7  1  0
  6 31  1  0
  6 32  1  0
  7 14  1  0
  7  8  1  0
  7 33  1  6
  8  9  1  0
  8 10  1  0
  8 11  1  0
  9 34  1  0
  9 35  1  0
  9 36  1  0
 10 37  1  0
 10 38  1  0
 10 39  1  0
 11 12  1  0
 11 40  1  0
 11 41  1  0
 12 13  1  0
 12 42  1  0
 12 43  1  0
 13 14  1  0
 13 44  1  0
 13 45  1  0
 14 15  1  6
 14 16  1  0
 15 46  1  0
 15 47  1  0
 15 48  1  0
 16 17  1  0
 16 49  1  6
 17 18  1  0
 17 50  1  0
 17 51  1  0
 18 19  1  0
 18 52  1  0
 18 53  1  0
 19 20  1  0
 19 54  1  1
 20 21  1  1
 20 22  1  0
 20 24  1  0
 21 55  1  0
 22 23  1  0
 22 56  1  0
 22 57  1  0
 23 58  1  0
 24 59  1  0
 24 60  1  0
M  END
>  <i_m_ct_stereo_status>  (88) 
1

>  <s_m_source_file>  (88) 
/var/tmp/pbs.5076255.sched01/tmpvv81v907/0tx7qkblw.sdf

>  <i_m_source_file_index>  (88) 
37

>  <i_lp_mmshare_version>  (88) 
48012

>  <i_f3d_flags>  (88) 
0

>  <s_epik_input>  (88) 
W09IXVtDSDJdW0NAQF0oW09IXSkoW0NIMl0xKVtDQEBIXShDKD1bQ0gyXSlbQ0gyXTIpW0NIMl1bQ0gyXVtDQEBIXShbQ0BdMTIzKVtDQEBdNChbQ0gzXSlbQ0BASF0oW0NIMl1bQ0gyXTMpQyhbQ0gzXSkoW0NIM10pW0NIMl1bQ0gyXVtDSDJdNA==

>  <s_epik_cmdline>  (88) 
J2VwaWtfcHl0aG9uJywgJy1waHQnLCAnMi4wJywgJy1waCcsICc3LjAnLCAnLXRuJywgJzgnLCAnLW1hJywgJzIwMCcsICctaW1hZScsICc8aW5maWxlLm1hZT4nLCAnLW9tYWUnLCAnPG91dGZpbGUubWFlPic=

>  <r_lp_tautomer_probability>  (88) 
1

>  <r_epik_Ionization_Penalty>  (88) 
5.44779e-07

>  <r_epik_Ionization_Penalty_Charging>  (88) 
0

>  <r_epik_Ionization_Penalty_Neutral>  (88) 
5.44779e-07

>  <r_epik_State_Penalty>  (88) 
-0

>  <r_epik_Charging_Adjusted_Penalty>  (88) 
0

>  <i_epik_Tot_Q>  (88) 
0

>  <i_epik_Tot_abs_Q>  (88) 
0

>  <s_lp_Force_Field>  (88) 
OPLS3e

>  <r_lp_Energy>  (88) 
80.3947

>  <b_lp_Chiralities_Consistent>  (88) 
1

>  <s_lp_Variant>  (88) 
17:0-1

>  <s_i_glide_gridfile>  (88) 
pfpi4k_grid

>  <i_i_glide_lignum>  (88) 
37

>  <i_i_glide_rotatable_bonds>  (88) 
3

>  <r_i_docking_score>  (88) 
-2.22478

>  <r_i_glide_ligand_efficiency>  (88) 
-0.0926993

>  <r_i_glide_ligand_efficiency_sa>  (88) 
-0.267391

>  <r_i_glide_ligand_efficiency_ln>  (88) 
-0.532493

>  <r_i_glide_gscore>  (88) 
-2.22478

>  <r_i_glide_lipo>  (88) 
-0.441724

>  <r_i_glide_hbond>  (88) 
0

>  <r_i_glide_metal>  (88) 
-0

>  <r_i_glide_rewards>  (88) 
-1.14191

>  <r_i_glide_evdw>  (88) 
-16.0214

>  <r_i_glide_ecoul>  (88) 
-0.0695264

>  <r_i_glide_erotb>  (88) 
0.17035

>  <r_i_glide_esite>  (88) 
0

>  <r_i_glide_emodel>  (88) 
-15.9345

>  <r_i_glide_energy>  (88) 
-16.0909

>  <r_i_glide_einternal>  (88) 
3.69735

>  <r_i_glide_intrahb_reward>  (88) 
-0

>  <i_i_glide_confnum>  (88) 
3

>  <i_i_glide_posenum>  (88) 
4

>  <r_i_glide_eff_state_penalty>  (88) 
0

>  <ligand_id>  (88) 
17

>  <original_smiles>  (88) 
C=C1CC23CCC4C(C)(C)CCCC4(C)C2CCC1C(O)(CO)C3

>  <smiles>  (88) 
[H]OC([H])([H])C1(O[H])C([H])([H])C23C([H])([H])C(=C([H])[H])C1([H])C([H])([H])C([H])([H])C2([H])C1(C([H])([H])[H])C([H])([H])C([H])([H])C([H])([H])C(C([H])([H])[H])(C([H])([H])[H])C1([H])C([H])([H])C3([H])[H]

$$$$
18:0:0
     RDKit          3D

 47 51  0  0  1  0  0  0  0  0999 V2000
    2.2542   -5.3618    1.7063 C   0  0  0  0  0  0  0  0  0  0  0  0
    2.5860   -3.8535    1.5823 C   0  0  2  0  0  0  0  0  0  0  0  0
    2.9123   -3.4258    0.1337 C   0  0  0  0  0  0  0  0  0  0  0  0
    4.0465   -2.8002   -0.1910 C   0  0  0  0  0  0  0  0  0  0  0  0
    5.0039   -2.5110    0.8831 C   0  0  0  0  0  0  0  0  0  0  0  0
    5.0357   -3.5685    1.7125 C   0  0  0  0  0  0  0  0  0  0  0  0
    3.7685   -3.4757    2.5324 C   0  0  1  0  0  0  0  0  0  0  0  0
    3.8322   -1.9833    2.9479 C   0  0  2  0  0  0  0  0  0  0  0  0
    2.5446   -1.3337    3.5098 C   0  0  0  0  0  0  0  0  0  0  0  0
    1.9516   -0.2736    2.6046 C   0  0  0  0  0  0  0  0  0  0  0  0
    0.7446   -0.1599    2.4526 O   0  0  0  0  0  0  0  0  0  0  0  0
    2.9466    0.6566    1.9394 C   0  0  0  0  0  0  0  0  0  0  0  0
    3.8364   -0.1770    1.0222 C   0  0  0  0  0  0  0  0  0  0  0  0
    4.6243   -1.3017    1.7668 C   0  0  2  0  0  0  0  0  0  0  0  0
    5.9176   -0.6676    2.3053 C   0  0  0  0  0  0  0  0  0  0  0  0
    4.2651   -2.8569   -1.6895 C   0  0  2  0  0  0  0  0  0  0  0  0
    4.3745   -1.4864   -2.4072 C   0  0  0  0  0  0  0  0  0  0  0  0
    3.5556   -1.7154   -3.6938 C   0  0  0  0  0  0  0  0  0  0  0  0
    2.4276   -2.5891   -3.1863 C   0  0  0  0  0  0  0  0  0  0  0  0
    3.0141   -3.4747   -2.1969 N   0  0  2  0  0  0  0  0  0  0  0  0
    2.1073   -3.8269   -1.0645 C   0  0  0  0  0  0  0  0  0  0  0  0
    1.3798   -5.6267    1.1233 H   0  0  0  0  0  0  0  0  0  0  0  0
    2.0114   -5.6294    2.7322 H   0  0  0  0  0  0  0  0  0  0  0  0
    3.0633   -6.0221    1.3901 H   0  0  0  0  0  0  0  0  0  0  0  0
    1.7065   -3.2934    1.8899 H   0  0  0  0  0  0  0  0  0  0  0  0
    5.7763   -3.5074    2.4872 H   0  0  0  0  0  0  0  0  0  0  0  0
    3.7951   -4.1253    3.4128 H   0  0  0  0  0  0  0  0  0  0  0  0
    4.5002   -1.9725    3.8094 H   0  0  0  0  0  0  0  0  0  0  0  0
    1.7910   -2.0752    3.7615 H   0  0  0  0  0  0  0  0  0  0  0  0
    2.7760   -0.8254    4.4401 H   0  0  0  0  0  0  0  0  0  0  0  0
    2.4226    1.4133    1.3645 H   0  0  0  0  0  0  0  0  0  0  0  0
    3.5290    1.1734    2.6961 H   0  0  0  0  0  0  0  0  0  0  0  0
    3.1715   -0.5590    0.2517 H   0  0  0  0  0  0  0  0  0  0  0  0
    4.5461    0.4728    0.5052 H   0  0  0  0  0  0  0  0  0  0  0  0
    5.7305    0.1722    2.9791 H   0  0  0  0  0  0  0  0  0  0  0  0
    6.5260   -0.3233    1.4709 H   0  0  0  0  0  0  0  0  0  0  0  0
    6.5300   -1.3829    2.8508 H   0  0  0  0  0  0  0  0  0  0  0  0
    5.1237   -3.4957   -1.9464 H   0  0  0  0  0  0  0  0  0  0  0  0
    3.9154   -0.6655   -1.8437 H   0  0  0  0  0  0  0  0  0  0  0  0
    5.4076   -1.2076   -2.6317 H   0  0  0  0  0  0  0  0  0  0  0  0
    3.1918   -0.7967   -4.1737 H   0  0  0  0  0  0  0  0  0  0  0  0
    4.1469   -2.2766   -4.4227 H   0  0  0  0  0  0  0  0  0  0  0  0
    1.7818   -1.9019   -2.6743 H   0  0  0  0  0  0  0  0  0  0  0  0
    1.8705   -3.0861   -3.9707 H   0  0  0  0  0  0  0  0  0  0  0  0
    1.8856   -4.8789   -0.9681 H   0  0  0  0  0  0  0  0  0  0  0  0
    1.1609   -3.3041   -1.1182 H   0  0  0  0  0  0  0  0  0  0  0  0
    3.2406   -4.3742   -2.6391 H   0  0  0  0  0  0  0  0  0  0  0  0
  1  2  1  0
  1 22  1  0
  1 23  1  0
  1 24  1  0
  2  7  1  0
  2  3  1  0
  2 25  1  1
  3 21  1  0
  3  4  2  0
  4  5  1  0
  4 16  1  0
  5 14  1  0
  5  6  2  0
  6  7  1  0
  6 26  1  0
  7  8  1  0
  7 27  1  1
  8 14  1  0
  8  9  1  0
  8 28  1  1
  9 10  1  0
  9 29  1  0
  9 30  1  0
 10 11  2  0
 10 12  1  0
 12 13  1  0
 12 31  1  0
 12 32  1  0
 13 14  1  0
 13 33  1  0
 13 34  1  0
 14 15  1  1
 15 35  1  0
 15 36  1  0
 15 37  1  0
 16 20  1  0
 16 17  1  0
 16 38  1  1
 17 18  1  0
 17 39  1  0
 17 40  1  0
 18 19  1  0
 18 41  1  0
 18 42  1  0
 19 20  1  0
 19 43  1  0
 19 44  1  0
 20 21  1  0
 20 47  1  6
 21 45  1  0
 21 46  1  0
M  CHG  1  20   1
M  END
>  <i_m_ct_stereo_status>  (89) 
1

>  <s_m_source_file>  (89) 
/var/tmp/pbs.5076255.sched01/tmpvv81v907/0tx7qkblw.sdf

>  <i_m_source_file_index>  (89) 
38

>  <i_lp_mmshare_version>  (89) 
48012

>  <i_f3d_flags>  (89) 
0

>  <s_epik_input>  (89) 
W0NIMl0xW0NIMl1DKD1PKVtDSDJdW0NASF0yW0NASF0oW0NIXTMpW0NASF0oW0NIM10pQyg9QzRDPTNbQ0BAXTEyW0NIM10pW0NIMl1ONVtDQEhdNFtDSDJdW0NIMl1bQ0gyXTU=

>  <s_epik_cmdline>  (89) 
J2VwaWtfcHl0aG9uJywgJy1waHQnLCAnMi4wJywgJy1waCcsICc3LjAnLCAnLXRuJywgJzgnLCAnLW1hJywgJzIwMCcsICctaW1hZScsICc8aW5maWxlLm1hZT4nLCAnLW9tYWUnLCAnPG91dGZpbGUubWFlPic=

>  <r_lp_tautomer_probability>  (89) 
1

>  <r_epik_Ionization_Penalty>  (89) 
0.000612668

>  <r_epik_Ionization_Penalty_Charging>  (89) 
0.000612668

>  <r_epik_Ionization_Penalty_Neutral>  (89) 
1.61317e-12

>  <r_epik_State_Penalty>  (89) 
0.000386419

>  <r_epik_Charging_Adjusted_Penalty>  (89) 
0.000999087

>  <i_epik_Tot_Q>  (89) 
1

>  <i_epik_Tot_abs_Q>  (89) 
1

>  <s_lp_Force_Field>  (89) 
OPLS3e

>  <r_lp_Energy>  (89) 
91.2051

>  <b_lp_Chiralities_Consistent>  (89) 
1

>  <s_lp_Variant>  (89) 
18:0-1

>  <s_i_glide_gridfile>  (89) 
pfpi4k_grid

>  <i_i_glide_lignum>  (89) 
38

>  <i_i_glide_rotatable_bonds>  (89) 
0

>  <r_i_docking_score>  (89) 
-3.82611

>  <r_i_glide_ligand_efficiency>  (89) 
-0.182196

>  <r_i_glide_ligand_efficiency_sa>  (89) 
-0.502664

>  <r_i_glide_ligand_efficiency_ln>  (89) 
-0.945998

>  <r_i_glide_gscore>  (89) 
-3.82611

>  <r_i_glide_lipo>  (89) 
-0.598803

>  <r_i_glide_hbond>  (89) 
0

>  <r_i_glide_metal>  (89) 
-0

>  <r_i_glide_rewards>  (89) 
-1.46989

>  <r_i_glide_evdw>  (89) 
-22.1823

>  <r_i_glide_ecoul>  (89) 
-4.16653

>  <r_i_glide_erotb>  (89) 
0

>  <r_i_glide_esite>  (89) 
-0.0233211

>  <r_i_glide_emodel>  (89) 
-31.8112

>  <r_i_glide_energy>  (89) 
-26.3488

>  <r_i_glide_einternal>  (89) 
0

>  <r_i_glide_intrahb_reward>  (89) 
-0

>  <i_i_glide_confnum>  (89) 
1

>  <i_i_glide_posenum>  (89) 
2

>  <r_i_glide_eff_state_penalty>  (89) 
0

>  <ligand_id>  (89) 
18

>  <original_smiles>  (89) 
CC1C2=C(C3=CC1C1CC(=O)CCC31C)C1CCCN1C2

>  <smiles>  (89) 
[H]C1=C2C3=C(C([H])(C([H])([H])[H])C1([H])C1([H])C([H])([H])C(=O)C([H])([H])C([H])([H])C21C([H])([H])[H])C([H])([H])[N+]1([H])C([H])([H])C([H])([H])C([H])([H])C31[H]

$$$$
18:0:1
     RDKit          3D

 47 51  0  0  1  0  0  0  0  0999 V2000
    8.2324   -2.2965    0.0713 C   0  0  0  0  0  0  0  0  0  0  0  0
    6.7619   -2.6567    0.4155 C   0  0  2  0  0  0  0  0  0  0  0  0
    5.8397   -2.5880   -0.8180 C   0  0  0  0  0  0  0  0  0  0  0  0
    4.7084   -1.8709   -0.8397 C   0  0  0  0  0  0  0  0  0  0  0  0
    4.3476   -1.0973    0.3400 C   0  0  0  0  0  0  0  0  0  0  0  0
    5.4702   -0.5743    0.8450 C   0  0  0  0  0  0  0  0  0  0  0  0
    6.1867   -1.7095    1.5334 C   0  0  1  0  0  0  0  0  0  0  0  0
    4.9955   -2.2753    2.3613 C   0  0  2  0  0  0  0  0  0  0  0  0
    5.1542   -3.6946    2.9676 C   0  0  0  0  0  0  0  0  0  0  0  0
    4.2447   -4.7253    2.3332 C   0  0  0  0  0  0  0  0  0  0  0  0
    4.6298   -5.8587    2.0715 O   0  0  0  0  0  0  0  0  0  0  0  0
    2.8269   -4.2748    2.0542 C   0  0  0  0  0  0  0  0  0  0  0  0
    2.8948   -3.1427    1.0279 C   0  0  0  0  0  0  0  0  0  0  0  0
    3.7206   -1.9049    1.4998 C   0  0  2  0  0  0  0  0  0  0  0  0
    2.7671   -0.9799    2.3017 C   0  0  0  0  0  0  0  0  0  0  0  0
    4.2263   -1.7363   -2.2746 C   0  0  2  0  0  0  0  0  0  0  0  0
    2.8240   -2.2844   -2.5668 C   0  0  0  0  0  0  0  0  0  0  0  0
    3.0046   -2.9855   -3.9179 C   0  0  0  0  0  0  0  0  0  0  0  0
    4.3727   -3.6137   -3.7735 C   0  0  0  0  0  0  0  0  0  0  0  0
    5.1492   -2.6236   -3.0247 N   0  0  2  0  0  0  0  0  0  0  0  0
    6.1972   -3.1667   -2.1436 C   0  0  0  0  0  0  0  0  0  0  0  0
    8.6537   -2.9764   -0.6668 H   0  0  0  0  0  0  0  0  0  0  0  0
    8.9063   -2.3897    0.9064 H   0  0  0  0  0  0  0  0  0  0  0  0
    8.3668   -1.2728   -0.2680 H   0  0  0  0  0  0  0  0  0  0  0  0
    6.7676   -3.6903    0.7651 H   0  0  0  0  0  0  0  0  0  0  0  0
    5.3067    0.0809    1.6804 H   0  0  0  0  0  0  0  0  0  0  0  0
    6.9626   -1.3040    2.1830 H   0  0  0  0  0  0  0  0  0  0  0  0
    4.9475   -1.6441    3.2512 H   0  0  0  0  0  0  0  0  0  0  0  0
    6.1870   -4.0347    2.9243 H   0  0  0  0  0  0  0  0  0  0  0  0
    4.8982   -3.6705    4.0247 H   0  0  0  0  0  0  0  0  0  0  0  0
    2.2479   -5.1100    1.6690 H   0  0  0  0  0  0  0  0  0  0  0  0
    2.3596   -3.9493    2.9796 H   0  0  0  0  0  0  0  0  0  0  0  0
    3.2926   -3.6040    0.1257 H   0  0  0  0  0  0  0  0  0  0  0  0
    1.8895   -2.8099    0.7686 H   0  0  0  0  0  0  0  0  0  0  0  0
    2.3236   -1.4927    3.1571 H   0  0  0  0  0  0  0  0  0  0  0  0
    1.9505   -0.6254    1.6732 H   0  0  0  0  0  0  0  0  0  0  0  0
    3.2676   -0.0924    2.6867 H   0  0  0  0  0  0  0  0  0  0  0  0
    4.3287   -0.6976   -2.6191 H   0  0  0  0  0  0  0  0  0  0  0  0
    2.4431   -3.0012   -1.8356 H   0  0  0  0  0  0  0  0  0  0  0  0
    2.1307   -1.4603   -2.6821 H   0  0  0  0  0  0  0  0  0  0  0  0
    2.2200   -3.6991   -4.1739 H   0  0  0  0  0  0  0  0  0  0  0  0
    3.0247   -2.2164   -4.6854 H   0  0  0  0  0  0  0  0  0  0  0  0
    4.2771   -4.5405   -3.2222 H   0  0  0  0  0  0  0  0  0  0  0  0
    4.8199   -3.8654   -4.7235 H   0  0  0  0  0  0  0  0  0  0  0  0
    7.1705   -2.8382   -2.4767 H   0  0  0  0  0  0  0  0  0  0  0  0
    6.1821   -4.2444   -2.0684 H   0  0  0  0  0  0  0  0  0  0  0  0
    5.5913   -2.0171   -3.7138 H   0  0  0  0  0  0  0  0  0  0  0  0
  1  2  1  0
  1 22  1  0
  1 23  1  0
  1 24  1  0
  2  7  1  0
  2  3  1  0
  2 25  1  1
  3 21  1  0
  3  4  2  0
  4  5  1  0
  4 16  1  0
  5 14  1  0
  5  6  2  0
  6  7  1  0
  6 26  1  0
  7  8  1  0
  7 27  1  1
  8 14  1  0
  8  9  1  0
  8 28  1  1
  9 10  1  0
  9 29  1  0
  9 30  1  0
 10 11  2  0
 10 12  1  0
 12 13  1  0
 12 31  1  0
 12 32  1  0
 13 14  1  0
 13 33  1  0
 13 34  1  0
 14 15  1  1
 15 35  1  0
 15 36  1  0
 15 37  1  0
 16 20  1  0
 16 17  1  0
 16 38  1  6
 17 18  1  0
 17 39  1  0
 17 40  1  0
 18 19  1  0
 18 41  1  0
 18 42  1  0
 19 20  1  0
 19 43  1  0
 19 44  1  0
 20 21  1  0
 20 47  1  6
 21 45  1  0
 21 46  1  0
M  CHG  1  20   1
M  END
>  <i_m_ct_stereo_status>  (90) 
1

>  <s_m_source_file>  (90) 
/var/tmp/pbs.5076255.sched01/tmpvv81v907/0tx7qkblw.sdf

>  <i_m_source_file_index>  (90) 
38

>  <i_lp_mmshare_version>  (90) 
48012

>  <i_f3d_flags>  (90) 
0

>  <s_epik_input>  (90) 
W0NIMl0xW0NIMl1DKD1PKVtDSDJdW0NASF0yW0NASF0oW0NIXTMpW0NASF0oW0NIM10pQyg9QzRDPTNbQ0BAXTEyW0NIM10pW0NIMl1ONVtDQEhdNFtDSDJdW0NIMl1bQ0gyXTU=

>  <s_epik_cmdline>  (90) 
J2VwaWtfcHl0aG9uJywgJy1waHQnLCAnMi4wJywgJy1waCcsICc3LjAnLCAnLXRuJywgJzgnLCAnLW1hJywgJzIwMCcsICctaW1hZScsICc8aW5maWxlLm1hZT4nLCAnLW9tYWUnLCAnPG91dGZpbGUubWFlPic=

>  <r_lp_tautomer_probability>  (90) 
1

>  <r_epik_Ionization_Penalty>  (90) 
0.000612668

>  <r_epik_Ionization_Penalty_Charging>  (90) 
0.000612668

>  <r_epik_Ionization_Penalty_Neutral>  (90) 
1.61317e-12

>  <r_epik_State_Penalty>  (90) 
0.000386419

>  <r_epik_Charging_Adjusted_Penalty>  (90) 
0.000999087

>  <i_epik_Tot_Q>  (90) 
1

>  <i_epik_Tot_abs_Q>  (90) 
1

>  <s_lp_Force_Field>  (90) 
OPLS3e

>  <r_lp_Energy>  (90) 
91.2051

>  <b_lp_Chiralities_Consistent>  (90) 
1

>  <s_lp_Variant>  (90) 
18:0-1

>  <s_i_glide_gridfile>  (90) 
pfpi4k_grid

>  <i_i_glide_lignum>  (90) 
38

>  <i_i_glide_rotatable_bonds>  (90) 
0

>  <r_i_docking_score>  (90) 
-3.73398

>  <r_i_glide_ligand_efficiency>  (90) 
-0.177809

>  <r_i_glide_ligand_efficiency_sa>  (90) 
-0.490561

>  <r_i_glide_ligand_efficiency_ln>  (90) 
-0.92322

>  <r_i_glide_gscore>  (90) 
-3.73398

>  <r_i_glide_lipo>  (90) 
-0.87815

>  <r_i_glide_hbond>  (90) 
0

>  <r_i_glide_metal>  (90) 
-0

>  <r_i_glide_rewards>  (90) 
-1.47424

>  <r_i_glide_evdw>  (90) 
-25.0943

>  <r_i_glide_ecoul>  (90) 
-0.845879

>  <r_i_glide_erotb>  (90) 
0

>  <r_i_glide_esite>  (90) 
0

>  <r_i_glide_emodel>  (90) 
-31.2058

>  <r_i_glide_energy>  (90) 
-25.9402

>  <r_i_glide_einternal>  (90) 
0

>  <r_i_glide_intrahb_reward>  (90) 
-0

>  <i_i_glide_confnum>  (90) 
1

>  <i_i_glide_posenum>  (90) 
1

>  <r_i_glide_eff_state_penalty>  (90) 
0

>  <ligand_id>  (90) 
18

>  <original_smiles>  (90) 
CC1C2=C(C3=CC1C1CC(=O)CCC31C)C1CCCN1C2

>  <smiles>  (90) 
[H]C1=C2C3=C(C([H])(C([H])([H])[H])C1([H])C1([H])C([H])([H])C(=O)C([H])([H])C([H])([H])C21C([H])([H])[H])C([H])([H])[N+]1([H])C([H])([H])C([H])([H])C([H])([H])C31[H]

$$$$
18:0:2
     RDKit          3D

 47 51  0  0  1  0  0  0  0  0999 V2000
    2.4766   -5.7607    1.1960 C   0  0  0  0  0  0  0  0  0  0  0  0
    3.4276   -4.5547    1.0574 C   0  0  2  0  0  0  0  0  0  0  0  0
    3.4484   -3.9936   -0.3787 C   0  0  0  0  0  0  0  0  0  0  0  0
    4.5706   -3.8380   -1.0843 C   0  0  0  0  0  0  0  0  0  0  0  0
    5.8306   -4.2439   -0.4583 C   0  0  0  0  0  0  0  0  0  0  0  0
    5.6154   -5.3731    0.2258 C   0  0  0  0  0  0  0  0  0  0  0  0
    4.8845   -4.9534    1.4757 C   0  0  1  0  0  0  0  0  0  0  0  0
    5.8110   -3.7888    1.8960 C   0  0  2  0  0  0  0  0  0  0  0  0
    5.2443   -2.8104    2.9585 C   0  0  0  0  0  0  0  0  0  0  0  0
    5.0024   -1.4153    2.4231 C   0  0  0  0  0  0  0  0  0  0  0  0
    4.0203   -0.7441    2.7487 O   0  0  0  0  0  0  0  0  0  0  0  0
    6.0553   -0.8802    1.4795 C   0  0  0  0  0  0  0  0  0  0  0  0
    6.1026   -1.7596    0.2399 C   0  0  0  0  0  0  0  0  0  0  0  0
    6.4346   -3.2511    0.5435 C   0  0  2  0  0  0  0  0  0  0  0  0
    7.9808   -3.4206    0.5128 C   0  0  0  0  0  0  0  0  0  0  0  0
    4.2785   -3.5585   -2.5372 C   0  0  2  0  0  0  0  0  0  0  0  0
    4.7637   -2.2550   -3.1668 C   0  0  0  0  0  0  0  0  0  0  0  0
    3.5855   -1.8078   -4.0335 C   0  0  0  0  0  0  0  0  0  0  0  0
    2.4034   -2.2067   -3.1833 C   0  0  0  0  0  0  0  0  0  0  0  0
    2.7990   -3.4556   -2.5517 N   0  0  2  0  0  0  0  0  0  0  0  0
    2.2342   -3.7196   -1.2044 C   0  0  0  0  0  0  0  0  0  0  0  0
    1.4524   -5.4692    0.9912 H   0  0  0  0  0  0  0  0  0  0  0  0
    2.4817   -6.1499    2.2107 H   0  0  0  0  0  0  0  0  0  0  0  0
    2.7223   -6.5913    0.5329 H   0  0  0  0  0  0  0  0  0  0  0  0
    3.0503   -3.7608    1.6982 H   0  0  0  0  0  0  0  0  0  0  0  0
    6.5039   -5.8261    0.6271 H   0  0  0  0  0  0  0  0  0  0  0  0
    4.8912   -5.7394    2.2298 H   0  0  0  0  0  0  0  0  0  0  0  0
    6.6210   -4.2796    2.4310 H   0  0  0  0  0  0  0  0  0  0  0  0
    4.3494   -3.1974    3.4437 H   0  0  0  0  0  0  0  0  0  0  0  0
    5.9620   -2.6867    3.7646 H   0  0  0  0  0  0  0  0  0  0  0  0
    5.8101    0.1408    1.2019 H   0  0  0  0  0  0  0  0  0  0  0  0
    7.0159   -0.8582    1.9911 H   0  0  0  0  0  0  0  0  0  0  0  0
    5.1323   -1.6131   -0.2267 H   0  0  0  0  0  0  0  0  0  0  0  0
    6.8317   -1.3668   -0.4631 H   0  0  0  0  0  0  0  0  0  0  0  0
    8.4556   -2.7799    1.2484 H   0  0  0  0  0  0  0  0  0  0  0  0
    8.4036   -3.1531   -0.4595 H   0  0  0  0  0  0  0  0  0  0  0  0
    8.3059   -4.4375    0.7473 H   0  0  0  0  0  0  0  0  0  0  0  0
    4.5820   -4.4155   -3.1551 H   0  0  0  0  0  0  0  0  0  0  0  0
    5.0025   -1.4792   -2.4363 H   0  0  0  0  0  0  0  0  0  0  0  0
    5.6293   -2.4821   -3.7727 H   0  0  0  0  0  0  0  0  0  0  0  0
    3.5894   -0.7477   -4.2929 H   0  0  0  0  0  0  0  0  0  0  0  0
    3.5215   -2.3855   -4.9534 H   0  0  0  0  0  0  0  0  0  0  0  0
    2.2439   -1.4215   -2.4402 H   0  0  0  0  0  0  0  0  0  0  0  0
    1.4980   -2.3750   -3.7711 H   0  0  0  0  0  0  0  0  0  0  0  0
    1.5809   -4.5874   -1.2443 H   0  0  0  0  0  0  0  0  0  0  0  0
    1.7256   -2.8936   -0.7469 H   0  0  0  0  0  0  0  0  0  0  0  0
    2.4749   -4.2062   -3.1264 H   0  0  0  0  0  0  0  0  0  0  0  0
  1  2  1  0
  1 22  1  0
  1 23  1  0
  1 24  1  0
  2  7  1  0
  2  3  1  0
  2 25  1  1
  3 21  1  0
  3  4  2  0
  4  5  1  0
  4 16  1  0
  5 14  1  0
  5  6  2  0
  6  7  1  0
  6 26  1  0
  7  8  1  0
  7 27  1  1
  8 14  1  0
  8  9  1  0
  8 28  1  1
  9 10  1  0
  9 29  1  0
  9 30  1  0
 10 11  2  0
 10 12  1  0
 12 13  1  0
 12 31  1  0
 12 32  1  0
 13 14  1  0
 13 33  1  0
 13 34  1  0
 14 15  1  1
 15 35  1  0
 15 36  1  0
 15 37  1  0
 16 20  1  0
 16 17  1  0
 16 38  1  6
 17 18  1  0
 17 39  1  0
 17 40  1  0
 18 19  1  0
 18 41  1  0
 18 42  1  0
 19 20  1  0
 19 43  1  0
 19 44  1  0
 20 21  1  0
 20 47  1  6
 21 45  1  0
 21 46  1  0
M  CHG  1  20   1
M  END
>  <i_m_ct_stereo_status>  (91) 
1

>  <s_m_source_file>  (91) 
/var/tmp/pbs.5076255.sched01/tmpvv81v907/0tx7qkblw.sdf

>  <i_m_source_file_index>  (91) 
38

>  <i_lp_mmshare_version>  (91) 
48012

>  <i_f3d_flags>  (91) 
0

>  <s_epik_input>  (91) 
W0NIMl0xW0NIMl1DKD1PKVtDSDJdW0NASF0yW0NASF0oW0NIXTMpW0NASF0oW0NIM10pQyg9QzRDPTNbQ0BAXTEyW0NIM10pW0NIMl1ONVtDQEhdNFtDSDJdW0NIMl1bQ0gyXTU=

>  <s_epik_cmdline>  (91) 
J2VwaWtfcHl0aG9uJywgJy1waHQnLCAnMi4wJywgJy1waCcsICc3LjAnLCAnLXRuJywgJzgnLCAnLW1hJywgJzIwMCcsICctaW1hZScsICc8aW5maWxlLm1hZT4nLCAnLW9tYWUnLCAnPG91dGZpbGUubWFlPic=

>  <r_lp_tautomer_probability>  (91) 
1

>  <r_epik_Ionization_Penalty>  (91) 
0.000612668

>  <r_epik_Ionization_Penalty_Charging>  (91) 
0.000612668

>  <r_epik_Ionization_Penalty_Neutral>  (91) 
1.61317e-12

>  <r_epik_State_Penalty>  (91) 
0.000386419

>  <r_epik_Charging_Adjusted_Penalty>  (91) 
0.000999087

>  <i_epik_Tot_Q>  (91) 
1

>  <i_epik_Tot_abs_Q>  (91) 
1

>  <s_lp_Force_Field>  (91) 
OPLS3e

>  <r_lp_Energy>  (91) 
91.2051

>  <b_lp_Chiralities_Consistent>  (91) 
1

>  <s_lp_Variant>  (91) 
18:0-1

>  <s_i_glide_gridfile>  (91) 
pfpi4k_grid

>  <i_i_glide_lignum>  (91) 
38

>  <i_i_glide_rotatable_bonds>  (91) 
0

>  <r_i_docking_score>  (91) 
-3.73366

>  <r_i_glide_ligand_efficiency>  (91) 
-0.177794

>  <r_i_glide_ligand_efficiency_sa>  (91) 
-0.490519

>  <r_i_glide_ligand_efficiency_ln>  (91) 
-0.923141

>  <r_i_glide_gscore>  (91) 
-3.73366

>  <r_i_glide_lipo>  (91) 
-0.847126

>  <r_i_glide_hbond>  (91) 
0

>  <r_i_glide_metal>  (91) 
-0

>  <r_i_glide_rewards>  (91) 
-1.59092

>  <r_i_glide_evdw>  (91) 
-16.3296

>  <r_i_glide_ecoul>  (91) 
-3.19422

>  <r_i_glide_erotb>  (91) 
0

>  <r_i_glide_esite>  (91) 
0

>  <r_i_glide_emodel>  (91) 
-24.787

>  <r_i_glide_energy>  (91) 
-19.5239

>  <r_i_glide_einternal>  (91) 
0

>  <r_i_glide_intrahb_reward>  (91) 
-0

>  <i_i_glide_confnum>  (91) 
2

>  <i_i_glide_posenum>  (91) 
3

>  <r_i_glide_eff_state_penalty>  (91) 
0

>  <ligand_id>  (91) 
18

>  <original_smiles>  (91) 
CC1C2=C(C3=CC1C1CC(=O)CCC31C)C1CCCN1C2

>  <smiles>  (91) 
[H]C1=C2C3=C(C([H])(C([H])([H])[H])C1([H])C1([H])C([H])([H])C(=O)C([H])([H])C([H])([H])C21C([H])([H])[H])C([H])([H])[N+]1([H])C([H])([H])C([H])([H])C([H])([H])C31[H]

$$$$
20:0:0
     RDKit          3D

 87 95  0  0  1  0  0  0  0  0999 V2000
    5.2285   -4.4333   -0.2707 C   0  0  0  0  0  0  0  0  0  0  0  0
    4.4511   -4.0260    0.7412 C   0  0  0  0  0  0  0  0  0  0  0  0
    3.9050   -2.6178    0.7331 C   0  0  2  0  0  0  0  0  0  0  0  0
    4.5114   -1.8426    1.8874 C   0  0  0  0  0  0  0  0  0  0  0  0
    3.5326   -2.1088    3.0022 C   0  0  2  0  0  0  0  0  0  0  0  0
    3.5498   -3.3228    3.7573 O   0  0  0  0  0  0  0  0  0  0  0  0
    4.2274   -4.5296    3.3612 C   0  0  2  0  0  0  0  0  0  0  0  0
    5.6832   -4.3662    3.8284 C   0  0  0  0  0  0  0  0  0  0  0  0
    4.0837   -4.9814    1.8836 C   0  0  1  0  0  0  0  0  0  0  0  0
    2.6905   -5.6380    1.7612 C   0  0  1  0  0  0  0  0  0  0  0  0
    2.8462   -6.7433    0.9102 O   0  0  0  0  0  0  0  0  0  0  0  0
    2.2372   -5.9733    3.2202 C   0  0  2  0  0  0  0  0  0  0  0  0
    1.3890   -4.8849    3.5292 O   0  0  0  0  0  0  0  0  0  0  0  0
    3.4785   -5.6807    4.1244 C   0  0  1  0  0  0  0  0  0  0  0  0
    4.4151   -6.8648    4.4349 C   0  0  2  0  0  0  0  0  0  0  0  0
    4.5573   -7.8357    3.4213 O   0  0  0  0  0  0  0  0  0  0  0  0
    4.1177   -8.3173    4.6782 C   0  0  2  0  0  0  0  0  0  0  0  0
    2.7328   -8.9064    4.8212 C   0  0  1  0  0  0  0  0  0  0  0  0
    2.2462   -8.4392    6.0756 O   0  0  0  0  0  0  0  0  0  0  0  0
    1.7555   -8.6185    3.6380 C   0  0  1  0  0  0  0  0  0  0  0  0
    2.3597   -9.0573    2.4364 O   0  0  0  0  0  0  0  0  0  0  0  0
    0.4238   -9.4230    3.6853 C   0  0  1  0  0  0  0  0  0  0  0  0
   -0.1354   -9.4445    4.9801 O   0  0  0  0  0  0  0  0  0  0  0  0
   -0.4825   -8.6728    2.6849 C   0  0  1  0  0  0  0  0  0  0  0  0
   -1.9983   -8.8047    2.8944 C   0  0  0  0  0  0  0  0  0  0  0  0
    0.0009   -7.2172    2.6577 C   0  0  0  0  0  0  0  0  0  0  0  0
    1.2645   -7.1574    3.5331 C   0  0  2  0  0  0  0  0  0  0  0  0
    2.2005   -2.0752    2.2149 C   0  0  1  0  0  0  0  0  0  0  0  0
    1.8249   -0.5554    1.9809 N   0  0  0  0  0  0  0  0  0  0  0  0
    0.8175    0.0471    2.9042 C   0  0  2  0  0  0  0  0  0  0  0  0
    0.4366    1.4880    2.4482 C   0  0  2  0  0  0  0  0  0  0  0  0
    1.6910    2.3948    2.5244 C   0  0  0  0  0  0  0  0  0  0  0  0
    2.1964    2.4613    3.9815 C   0  0  1  0  0  0  0  0  0  0  0  0
    1.0977    3.0467    4.8904 C   0  0  0  0  0  0  0  0  0  0  0  0
   -0.1642    2.1617    4.8162 C   0  0  1  0  0  0  0  0  0  0  0  0
   -0.6745    2.0796    3.3670 C   0  0  0  0  0  0  0  0  0  0  0  0
    0.1760    0.7430    5.2853 C   0  0  0  0  0  0  0  0  0  0  0  0
    1.2950    0.1408    4.3930 C   0  0  1  0  0  0  0  0  0  0  0  0
    1.4545   -1.1426    4.9744 O   0  0  0  0  0  0  0  0  0  0  0  0
    2.5554    1.0456    4.4759 C   0  0  0  0  0  0  0  0  0  0  0  0
    2.5081   -2.5885    0.9442 O   0  0  0  0  0  0  0  0  0  0  0  0
    5.6233   -5.4473   -0.3304 H   0  0  0  0  0  0  0  0  0  0  0  0
    5.4765   -3.7635   -1.0914 H   0  0  0  0  0  0  0  0  0  0  0  0
    4.1321   -2.1301   -0.2178 H   0  0  0  0  0  0  0  0  0  0  0  0
    5.5534   -2.0617    2.0687 H   0  0  0  0  0  0  0  0  0  0  0  0
    4.5046   -0.7816    1.6397 H   0  0  0  0  0  0  0  0  0  0  0  0
    3.5810   -1.3076    3.7188 H   0  0  0  0  0  0  0  0  0  0  0  0
    6.3328   -5.1835    3.5033 H   0  0  0  0  0  0  0  0  0  0  0  0
    5.7505   -4.2895    4.9187 H   0  0  0  0  0  0  0  0  0  0  0  0
    6.1047   -3.4560    3.4290 H   0  0  0  0  0  0  0  0  0  0  0  0
    4.8175   -5.7954    1.8011 H   0  0  0  0  0  0  0  0  0  0  0  0
    1.9838   -4.9652    1.2718 H   0  0  0  0  0  0  0  0  0  0  0  0
    3.2502   -7.4316    1.4263 H   0  0  0  0  0  0  0  0  0  0  0  0
    1.9394   -4.1168    3.4894 H   0  0  0  0  0  0  0  0  0  0  0  0
    3.1666   -5.3089    5.1056 H   0  0  0  0  0  0  0  0  0  0  0  0
    5.3221   -6.5901    4.9603 H   0  0  0  0  0  0  0  0  0  0  0  0
    4.8632   -8.8309    5.2686 H   0  0  0  0  0  0  0  0  0  0  0  0
    2.8559   -9.9836    4.9321 H   0  0  0  0  0  0  0  0  0  0  0  0
    1.4259   -8.8918    6.2581 H   0  0  0  0  0  0  0  0  0  0  0  0
    2.5632   -9.9774    2.5283 H   0  0  0  0  0  0  0  0  0  0  0  0
    0.5578  -10.4585    3.3856 H   0  0  0  0  0  0  0  0  0  0  0  0
   -0.8924  -10.0491    4.9705 H   0  0  0  0  0  0  0  0  0  0  0  0
   -0.2708   -9.0695    1.6941 H   0  0  0  0  0  0  0  0  0  0  0  0
   -2.3249   -8.3559    3.8356 H   0  0  0  0  0  0  0  0  0  0  0  0
   -2.2814   -9.8570    2.9057 H   0  0  0  0  0  0  0  0  0  0  0  0
   -2.5596   -8.3249    2.0873 H   0  0  0  0  0  0  0  0  0  0  0  0
    0.2053   -6.9279    1.6237 H   0  0  0  0  0  0  0  0  0  0  0  0
   -0.7471   -6.5327    3.0556 H   0  0  0  0  0  0  0  0  0  0  0  0
    0.8911   -6.9429    4.5356 H   0  0  0  0  0  0  0  0  0  0  0  0
    1.3383   -2.6192    2.6379 H   0  0  0  0  0  0  0  0  0  0  0  0
    2.6593   -0.0042    1.9674 H   0  0  0  0  0  0  0  0  0  0  0  0
   -0.0773   -0.5774    2.8519 H   0  0  0  0  0  0  0  0  0  0  0  0
    0.0563    1.4673    1.4183 H   0  0  0  0  0  0  0  0  0  0  0  0
    2.4815    2.0339    1.8636 H   0  0  0  0  0  0  0  0  0  0  0  0
    1.4385    3.3916    2.1729 H   0  0  0  0  0  0  0  0  0  0  0  0
    3.0860    3.0895    4.0239 H   0  0  0  0  0  0  0  0  0  0  0  0
    1.4614    3.0974    5.9168 H   0  0  0  0  0  0  0  0  0  0  0  0
    0.8612    4.0655    4.5792 H   0  0  0  0  0  0  0  0  0  0  0  0
   -0.9416    2.5762    5.4576 H   0  0  0  0  0  0  0  0  0  0  0  0
   -0.9389    3.0774    3.0170 H   0  0  0  0  0  0  0  0  0  0  0  0
   -1.5795    1.4703    3.3087 H   0  0  0  0  0  0  0  0  0  0  0  0
    0.5070    0.7650    6.3238 H   0  0  0  0  0  0  0  0  0  0  0  0
   -0.7124    0.1106    5.2673 H   0  0  0  0  0  0  0  0  0  0  0  0
    2.1808   -1.6212    4.6067 H   0  0  0  0  0  0  0  0  0  0  0  0
    3.3740    0.6964    3.8473 H   0  0  0  0  0  0  0  0  0  0  0  0
    2.9371    1.0800    5.4969 H   0  0  0  0  0  0  0  0  0  0  0  0
    1.4298   -0.4633    1.0473 H   0  0  0  0  0  0  0  0  0  0  0  0
  1  2  2  0
  1 42  1  0
  1 43  1  0
  2  9  1  0
  2  3  1  0
  3 41  1  0
  3  4  1  0
  3 44  1  6
  4  5  1  0
  4 45  1  0
  4 46  1  0
  5  6  1  0
  5 28  1  0
  5 47  1  1
  6  7  1  0
  7 14  1  0
  7  8  1  1
  7  9  1  0
  8 48  1  0
  8 49  1  0
  8 50  1  0
  9 10  1  0
  9 51  1  1
 10 11  1  0
 10 12  1  0
 10 52  1  6
 11 53  1  0
 12 27  1  0
 12 13  1  1
 12 14  1  0
 13 54  1  0
 14 15  1  0
 14 55  1  1
 15 17  1  0
 15 16  1  0
 15 56  1  1
 16 17  1  0
 17 18  1  0
 17 57  1  1
 18 19  1  0
 18 20  1  0
 18 58  1  1
 19 59  1  0
 20 27  1  0
 20 21  1  6
 20 22  1  0
 21 60  1  0
 22 23  1  0
 22 24  1  0
 22 61  1  6
 23 62  1  0
 24 25  1  0
 24 26  1  0
 24 63  1  6
 25 64  1  0
 25 65  1  0
 25 66  1  0
 26 27  1  0
 26 67  1  0
 26 68  1  0
 27 69  1  1
 28 29  1  0
 28 41  1  0
 28 70  1  1
 29 30  1  0
 29 71  1  0
 29 87  1  0
 30 38  1  0
 30 31  1  0
 30 72  1  1
 31 36  1  0
 31 32  1  0
 31 73  1  6
 32 33  1  0
 32 74  1  0
 32 75  1  0
 33 40  1  0
 33 34  1  0
 33 76  1  6
 34 35  1  0
 34 77  1  0
 34 78  1  0
 35 36  1  0
 35 37  1  0
 35 79  1  1
 36 80  1  0
 36 81  1  0
 37 38  1  0
 37 82  1  0
 37 83  1  0
 38 39  1  1
 38 40  1  0
 39 84  1  0
 40 85  1  0
 40 86  1  0
M  CHG  1  29   1
M  END
>  <i_m_ct_stereo_status>  (92) 
1

>  <s_m_source_file>  (92) 
/var/tmp/pbs.5076255.sched01/tmpvv81v907/0tx7qkblw.sdf

>  <i_m_source_file_index>  (92) 
40

>  <i_lp_mmshare_version>  (92) 
48012

>  <i_f3d_flags>  (92) 
0

>  <s_epik_input>  (92) 
W0NIMl0xW0NAQEhdKFtDSDJdMilbQ0gyXVtDQEBIXShbQ0gyXTMpW0NIMl1bQ0BIXTFbQ0BIXShbQ0BdMjNbT0hdKVtOSF1bQ0BASF0oTzQpW0NAQEhdKE81KVtDSDJdW0NASF00Qyg9W0NIMl0pW0NAQEhdKFtDQEBdNTZbQ0gzXSlbQ0BASF0oW09IXSlbQ0BdNyhbT0hdKVtDQEhdNltDQEhdOFtDQEhdKE84KVtDQEBIXShbT0hdKVtDQF05KFtPSF0pW0NAQEhdN1tDSDJdW0NASF0oW0NIM10pW0NAQEhdOVtPSF0=

>  <s_epik_cmdline>  (92) 
J2VwaWtfcHl0aG9uJywgJy1waHQnLCAnMi4wJywgJy1waCcsICc3LjAnLCAnLXRuJywgJzgnLCAnLW1hJywgJzIwMCcsICctaW1hZScsICc8aW5maWxlLm1hZT4nLCAnLW9tYWUnLCAnPG91dGZpbGUubWFlPic=

>  <r_epik_Ionization_Penalty>  (92) 
0.300588

>  <r_epik_Ionization_Penalty_Charging>  (92) 
0.300588

>  <r_epik_Ionization_Penalty_Neutral>  (92) 
4.25478e-07

>  <r_epik_State_Penalty>  (92) 
0.294092

>  <r_epik_Charging_Adjusted_Penalty>  (92) 
0.59468

>  <i_epik_Tot_Q>  (92) 
1

>  <i_epik_Tot_abs_Q>  (92) 
1

>  <s_epik_Chemistry_Notes>  (92) 
This compound contains an acetal/aminal-like group ( X-CH(R)-Y where X, Y are N, S, or O) that may be acid/base labile, releasing an aldehyde.

>  <s_lp_Force_Field>  (92) 
OPLS3e

>  <r_lp_Energy>  (92) 
50.6058

>  <b_lp_Chiralities_Consistent>  (92) 
1

>  <s_lp_Variant>  (92) 
20:0-1

>  <s_i_glide_gridfile>  (92) 
pfpi4k_grid

>  <i_i_glide_lignum>  (92) 
40

>  <i_i_glide_rotatable_bonds>  (92) 
8

>  <r_i_docking_score>  (92) 
-5.34677

>  <r_i_glide_ligand_efficiency>  (92) 
-0.130409

>  <r_i_glide_ligand_efficiency_sa>  (92) 
-0.449679

>  <r_i_glide_ligand_efficiency_ln>  (92) 
-1.13434

>  <r_i_glide_gscore>  (92) 
-5.34677

>  <r_i_glide_lipo>  (92) 
-0.127413

>  <r_i_glide_hbond>  (92) 
-0.2

>  <r_i_glide_metal>  (92) 
-0

>  <r_i_glide_rewards>  (92) 
-2

>  <r_i_glide_evdw>  (92) 
-30.2712

>  <r_i_glide_ecoul>  (92) 
-9.64613

>  <r_i_glide_erotb>  (92) 
0.0292578

>  <r_i_glide_esite>  (92) 
-0.08814

>  <r_i_glide_emodel>  (92) 
-73.1354

>  <r_i_glide_energy>  (92) 
-39.9173

>  <r_i_glide_einternal>  (92) 
5.8243

>  <r_i_glide_intrahb_reward>  (92) 
-2

>  <i_i_glide_confnum>  (92) 
5

>  <i_i_glide_posenum>  (92) 
11

>  <r_i_glide_eff_state_penalty>  (92) 
0

>  <ligand_id>  (92) 
20

>  <original_smiles>  (92) 
C=C1C2CC(OC3(C)C1C(O)C1(O)C3C3OC3C(O)C3(O)C(O)C(C)CC31)C(NC1C3CC4CC(C3)CC1(O)C4)O2

>  <smiles>  (92) 
[H]OC1([H])C2([H])OC2([H])C2([H])C3(C([H])([H])[H])OC4([H])C([H])([H])C([H])(OC4([H])[N+]([H])([H])C4([H])C5([H])C([H])([H])C6([H])C([H])([H])C([H])(C5([H])[H])C([H])([H])C4(O[H])C6([H])[H])C(=C([H])[H])C3([H])C([H])(O[H])C2(O[H])C2([H])C([H])([H])C([H])(C([H])([H])[H])C([H])(O[H])C12O[H]

$$$$
20:0:1
     RDKit          3D

 87 95  0  0  1  0  0  0  0  0999 V2000
    5.9933   -4.3709    0.8228 C   0  0  0  0  0  0  0  0  0  0  0  0
    4.9843   -3.9682    1.6180 C   0  0  0  0  0  0  0  0  0  0  0  0
    4.3771   -2.6019    1.4201 C   0  0  2  0  0  0  0  0  0  0  0  0
    4.7003   -1.7273    2.6104 C   0  0  0  0  0  0  0  0  0  0  0  0
    3.5022   -2.0113    3.5034 C   0  0  2  0  0  0  0  0  0  0  0  0
    3.4431   -3.1808    4.3193 O   0  0  0  0  0  0  0  0  0  0  0  0
    4.2536   -4.3485    4.1572 C   0  0  2  0  0  0  0  0  0  0  0  0
    5.5573   -4.0511    4.9409 C   0  0  0  0  0  0  0  0  0  0  0  0
    4.4386   -4.8894    2.7118 C   0  0  1  0  0  0  0  0  0  0  0  0
    3.1461   -5.6434    2.3314 C   0  0  1  0  0  0  0  0  0  0  0  0
    3.5174   -6.7882    1.5991 O   0  0  0  0  0  0  0  0  0  0  0  0
    2.3937   -5.8988    3.6750 C   0  0  2  0  0  0  0  0  0  0  0  0
    1.4316   -4.8687    3.7226 O   0  0  0  0  0  0  0  0  0  0  0  0
    3.3984   -5.4992    4.8076 C   0  0  1  0  0  0  0  0  0  0  0  0
    4.2992   -6.6066    5.3920 C   0  0  2  0  0  0  0  0  0  0  0  0
    4.7139   -7.6280    4.5005 O   0  0  0  0  0  0  0  0  0  0  0  0
    4.0148   -8.0561    5.6668 C   0  0  2  0  0  0  0  0  0  0  0  0
    2.6660   -8.7121    5.5301 C   0  0  1  0  0  0  0  0  0  0  0  0
    1.9030   -8.2082    6.6207 O   0  0  0  0  0  0  0  0  0  0  0  0
    1.9737   -8.5547    4.1352 C   0  0  1  0  0  0  0  0  0  0  0  0
    2.8506   -9.0242    3.1335 O   0  0  0  0  0  0  0  0  0  0  0  0
    0.7433   -9.4570    3.9305 C   0  0  1  0  0  0  0  0  0  0  0  0
   -0.0041   -9.4557    5.1253 O   0  0  0  0  0  0  0  0  0  0  0  0
   -0.0114   -8.8028    2.7465 C   0  0  1  0  0  0  0  0  0  0  0  0
   -1.5333   -9.0287    2.6345 C   0  0  0  0  0  0  0  0  0  0  0  0
    0.3930   -7.3207    2.7160 C   0  0  0  0  0  0  0  0  0  0  0  0
    1.4368   -7.1316    3.8379 C   0  0  2  0  0  0  0  0  0  0  0  0
    2.3585   -2.0712    2.4729 C   0  0  1  0  0  0  0  0  0  0  0  0
    1.9710   -0.5911    2.0477 N   0  0  0  0  0  0  0  0  0  0  0  0
    0.9000    0.0863    2.8228 C   0  0  2  0  0  0  0  0  0  0  0  0
    0.5759    1.4763    2.2024 C   0  0  2  0  0  0  0  0  0  0  0  0
    1.8468    2.3592    2.2760 C   0  0  0  0  0  0  0  0  0  0  0  0
    2.2524    2.5630    3.7492 C   0  0  1  0  0  0  0  0  0  0  0  0
    1.1119    3.2516    4.5166 C   0  0  0  0  0  0  0  0  0  0  0  0
   -0.1564    2.3722    4.4540 C   0  0  1  0  0  0  0  0  0  0  0  0
   -0.5788    2.1543    2.9879 C   0  0  0  0  0  0  0  0  0  0  0  0
    0.1257    1.0068    5.0840 C   0  0  0  0  0  0  0  0  0  0  0  0
    1.2723    0.3103    4.3207 C   0  0  1  0  0  0  0  0  0  0  0  0
    1.3858   -0.9252    4.9943 O   0  0  0  0  0  0  0  0  0  0  0  0
    2.5503    1.2051    4.3955 C   0  0  0  0  0  0  0  0  0  0  0  0
    2.9478   -2.6612    1.3346 O   0  0  0  0  0  0  0  0  0  0  0  0
    6.4456   -5.3527    0.9205 H   0  0  0  0  0  0  0  0  0  0  0  0
    6.3846   -3.7263    0.0462 H   0  0  0  0  0  0  0  0  0  0  0  0
    4.7698   -2.1491    0.5220 H   0  0  0  0  0  0  0  0  0  0  0  0
    5.6960   -1.8817    3.0278 H   0  0  0  0  0  0  0  0  0  0  0  0
    4.7003   -0.6786    2.3067 H   0  0  0  0  0  0  0  0  0  0  0  0
    3.4022   -1.2270    4.2238 H   0  0  0  0  0  0  0  0  0  0  0  0
    6.3053   -4.8396    4.8190 H   0  0  0  0  0  0  0  0  0  0  0  0
    5.3553   -3.9361    6.0065 H   0  0  0  0  0  0  0  0  0  0  0  0
    6.0253   -3.1250    4.6407 H   0  0  0  0  0  0  0  0  0  0  0  0
    5.2064   -5.6591    2.8309 H   0  0  0  0  0  0  0  0  0  0  0  0
    2.5254   -5.0467    1.6577 H   0  0  0  0  0  0  0  0  0  0  0  0
    3.8682   -7.4291    2.2120 H   0  0  0  0  0  0  0  0  0  0  0  0
    1.9266   -4.0567    3.7693 H   0  0  0  0  0  0  0  0  0  0  0  0
    2.8587   -5.0997    5.6720 H   0  0  0  0  0  0  0  0  0  0  0  0
    5.0452   -6.2510    6.0868 H   0  0  0  0  0  0  0  0  0  0  0  0
    4.6322   -8.5117    6.4263 H   0  0  0  0  0  0  0  0  0  0  0  0
    2.7968   -9.7790    5.7388 H   0  0  0  0  0  0  0  0  0  0  0  0
    1.0922   -8.7156    6.6494 H   0  0  0  0  0  0  0  0  0  0  0  0
    3.0215   -9.9377    3.3291 H   0  0  0  0  0  0  0  0  0  0  0  0
    0.9798  -10.5023    3.7127 H   0  0  0  0  0  0  0  0  0  0  0  0
   -0.7628   -9.9826    4.9921 H   0  0  0  0  0  0  0  0  0  0  0  0
    0.4248   -9.2350    1.8488 H   0  0  0  0  0  0  0  0  0  0  0  0
   -2.0857   -8.5520    3.4465 H   0  0  0  0  0  0  0  0  0  0  0  0
   -1.7682  -10.0920    2.6438 H   0  0  0  0  0  0  0  0  0  0  0  0
   -1.9255   -8.6322    1.6924 H   0  0  0  0  0  0  0  0  0  0  0  0
    0.8022   -7.0767    1.7319 H   0  0  0  0  0  0  0  0  0  0  0  0
   -0.4649   -6.6621    2.8755 H   0  0  0  0  0  0  0  0  0  0  0  0
    0.8262   -6.8990    4.7103 H   0  0  0  0  0  0  0  0  0  0  0  0
    1.4680   -2.6189    2.7875 H   0  0  0  0  0  0  0  0  0  0  0  0
    2.7918   -0.0015    2.0075 H   0  0  0  0  0  0  0  0  0  0  0  0
    0.0038   -0.5349    2.7577 H   0  0  0  0  0  0  0  0  0  0  0  0
    0.2597    1.3631    1.1644 H   0  0  0  0  0  0  0  0  0  0  0  0
    2.6603    1.9103    1.7096 H   0  0  0  0  0  0  0  0  0  0  0  0
    1.7063    3.3299    1.8109 H   0  0  0  0  0  0  0  0  0  0  0  0
    3.1530    3.1739    3.7779 H   0  0  0  0  0  0  0  0  0  0  0  0
    1.4199    3.4031    5.5510 H   0  0  0  0  0  0  0  0  0  0  0  0
    0.9218    4.2387    4.0892 H   0  0  0  0  0  0  0  0  0  0  0  0
   -0.9581    2.8664    4.9997 H   0  0  0  0  0  0  0  0  0  0  0  0
   -0.8259    3.1108    2.5306 H   0  0  0  0  0  0  0  0  0  0  0  0
   -1.4839    1.5474    2.9379 H   0  0  0  0  0  0  0  0  0  0  0  0
    0.4061    1.1338    6.1273 H   0  0  0  0  0  0  0  0  0  0  0  0
   -0.7768    0.3964    5.0717 H   0  0  0  0  0  0  0  0  0  0  0  0
    1.9008   -0.7988    5.7810 H   0  0  0  0  0  0  0  0  0  0  0  0
    3.3974    0.8114    3.8367 H   0  0  0  0  0  0  0  0  0  0  0  0
    2.8870    1.3192    5.4257 H   0  0  0  0  0  0  0  0  0  0  0  0
    1.6181   -0.6217    1.1001 H   0  0  0  0  0  0  0  0  0  0  0  0
  1  2  2  0
  1 42  1  0
  1 43  1  0
  2  9  1  0
  2  3  1  0
  3 41  1  0
  3  4  1  0
  3 44  1  6
  4  5  1  0
  4 45  1  0
  4 46  1  0
  5  6  1  0
  5 28  1  0
  5 47  1  1
  6  7  1  0
  7 14  1  0
  7  8  1  1
  7  9  1  0
  8 48  1  0
  8 49  1  0
  8 50  1  0
  9 10  1  0
  9 51  1  1
 10 11  1  0
 10 12  1  0
 10 52  1  6
 11 53  1  0
 12 27  1  0
 12 13  1  6
 12 14  1  0
 13 54  1  0
 14 15  1  0
 14 55  1  1
 15 17  1  0
 15 16  1  0
 15 56  1  1
 16 17  1  0
 17 18  1  0
 17 57  1  1
 18 19  1  0
 18 20  1  0
 18 58  1  1
 19 59  1  0
 20 27  1  0
 20 21  1  6
 20 22  1  0
 21 60  1  0
 22 23  1  0
 22 24  1  0
 22 61  1  6
 23 62  1  0
 24 25  1  0
 24 26  1  0
 24 63  1  6
 25 64  1  0
 25 65  1  0
 25 66  1  0
 26 27  1  0
 26 67  1  0
 26 68  1  0
 27 69  1  1
 28 29  1  0
 28 41  1  0
 28 70  1  1
 29 30  1  0
 29 71  1  0
 29 87  1  0
 30 38  1  0
 30 31  1  0
 30 72  1  1
 31 36  1  0
 31 32  1  0
 31 73  1  6
 32 33  1  0
 32 74  1  0
 32 75  1  0
 33 40  1  0
 33 34  1  0
 33 76  1  6
 34 35  1  0
 34 77  1  0
 34 78  1  0
 35 36  1  0
 35 37  1  0
 35 79  1  1
 36 80  1  0
 36 81  1  0
 37 38  1  0
 37 82  1  0
 37 83  1  0
 38 39  1  1
 38 40  1  0
 39 84  1  0
 40 85  1  0
 40 86  1  0
M  CHG  1  29   1
M  END
>  <i_m_ct_stereo_status>  (93) 
1

>  <s_m_source_file>  (93) 
/var/tmp/pbs.5076255.sched01/tmpvv81v907/0tx7qkblw.sdf

>  <i_m_source_file_index>  (93) 
40

>  <i_lp_mmshare_version>  (93) 
48012

>  <i_f3d_flags>  (93) 
0

>  <s_epik_input>  (93) 
W0NIMl0xW0NAQEhdKFtDSDJdMilbQ0gyXVtDQEBIXShbQ0gyXTMpW0NIMl1bQ0BIXTFbQ0BIXShbQ0BdMjNbT0hdKVtOSF1bQ0BASF0oTzQpW0NAQEhdKE81KVtDSDJdW0NASF00Qyg9W0NIMl0pW0NAQEhdKFtDQEBdNTZbQ0gzXSlbQ0BASF0oW09IXSlbQ0BdNyhbT0hdKVtDQEhdNltDQEhdOFtDQEhdKE84KVtDQEBIXShbT0hdKVtDQF05KFtPSF0pW0NAQEhdN1tDSDJdW0NASF0oW0NIM10pW0NAQEhdOVtPSF0=

>  <s_epik_cmdline>  (93) 
J2VwaWtfcHl0aG9uJywgJy1waHQnLCAnMi4wJywgJy1waCcsICc3LjAnLCAnLXRuJywgJzgnLCAnLW1hJywgJzIwMCcsICctaW1hZScsICc8aW5maWxlLm1hZT4nLCAnLW9tYWUnLCAnPG91dGZpbGUubWFlPic=

>  <r_epik_Ionization_Penalty>  (93) 
0.300588

>  <r_epik_Ionization_Penalty_Charging>  (93) 
0.300588

>  <r_epik_Ionization_Penalty_Neutral>  (93) 
4.25478e-07

>  <r_epik_State_Penalty>  (93) 
0.294092

>  <r_epik_Charging_Adjusted_Penalty>  (93) 
0.59468

>  <i_epik_Tot_Q>  (93) 
1

>  <i_epik_Tot_abs_Q>  (93) 
1

>  <s_epik_Chemistry_Notes>  (93) 
This compound contains an acetal/aminal-like group ( X-CH(R)-Y where X, Y are N, S, or O) that may be acid/base labile, releasing an aldehyde.

>  <s_lp_Force_Field>  (93) 
OPLS3e

>  <r_lp_Energy>  (93) 
50.6058

>  <b_lp_Chiralities_Consistent>  (93) 
1

>  <s_lp_Variant>  (93) 
20:0-1

>  <s_i_glide_gridfile>  (93) 
pfpi4k_grid

>  <i_i_glide_lignum>  (93) 
40

>  <i_i_glide_rotatable_bonds>  (93) 
8

>  <r_i_docking_score>  (93) 
-5.30666

>  <r_i_glide_ligand_efficiency>  (93) 
-0.129431

>  <r_i_glide_ligand_efficiency_sa>  (93) 
-0.446305

>  <r_i_glide_ligand_efficiency_ln>  (93) 
-1.12583

>  <r_i_glide_gscore>  (93) 
-5.30666

>  <r_i_glide_lipo>  (93) 
-0.291597

>  <r_i_glide_hbond>  (93) 
-0.16078

>  <r_i_glide_metal>  (93) 
-0

>  <r_i_glide_rewards>  (93) 
-2

>  <r_i_glide_evdw>  (93) 
-32.0028

>  <r_i_glide_ecoul>  (93) 
-8.11719

>  <r_i_glide_erotb>  (93) 
0.0292578

>  <r_i_glide_esite>  (93) 
-0.06582

>  <r_i_glide_emodel>  (93) 
-71.2828

>  <r_i_glide_energy>  (93) 
-40.12

>  <r_i_glide_einternal>  (93) 
5.87055

>  <r_i_glide_intrahb_reward>  (93) 
-2

>  <i_i_glide_confnum>  (93) 
5

>  <i_i_glide_posenum>  (93) 
16

>  <r_i_glide_eff_state_penalty>  (93) 
0

>  <ligand_id>  (93) 
20

>  <original_smiles>  (93) 
C=C1C2CC(OC3(C)C1C(O)C1(O)C3C3OC3C(O)C3(O)C(O)C(C)CC31)C(NC1C3CC4CC(C3)CC1(O)C4)O2

>  <smiles>  (93) 
[H]OC1([H])C2([H])OC2([H])C2([H])C3(C([H])([H])[H])OC4([H])C([H])([H])C([H])(OC4([H])[N+]([H])([H])C4([H])C5([H])C([H])([H])C6([H])C([H])([H])C([H])(C5([H])[H])C([H])([H])C4(O[H])C6([H])[H])C(=C([H])[H])C3([H])C([H])(O[H])C2(O[H])C2([H])C([H])([H])C([H])(C([H])([H])[H])C([H])(O[H])C12O[H]

$$$$
20:0:2
     RDKit          3D

 87 95  0  0  1  0  0  0  0  0999 V2000
    5.0955   -4.5475   -0.4008 C   0  0  0  0  0  0  0  0  0  0  0  0
    4.3695   -4.1204    0.6459 C   0  0  0  0  0  0  0  0  0  0  0  0
    3.8380   -2.7002    0.6558 C   0  0  2  0  0  0  0  0  0  0  0  0
    4.4910   -1.9248    1.7785 C   0  0  0  0  0  0  0  0  0  0  0  0
    3.5326   -2.1803    2.9219 C   0  0  2  0  0  0  0  0  0  0  0  0
    3.5981   -3.3843    3.6898 O   0  0  0  0  0  0  0  0  0  0  0  0
    4.2450   -4.5999    3.2718 C   0  0  2  0  0  0  0  0  0  0  0  0
    5.7183   -4.4681    3.6776 C   0  0  0  0  0  0  0  0  0  0  0  0
    4.0216   -5.0604    1.8034 C   0  0  1  0  0  0  0  0  0  0  0  0
    2.6161   -5.6691    1.7503 C   0  0  1  0  0  0  0  0  0  0  0  0
    2.6831   -6.7688    0.8902 O   0  0  0  0  0  0  0  0  0  0  0  0
    2.2142   -5.9958    3.2108 C   0  0  2  0  0  0  0  0  0  0  0  0
    1.3906   -4.9049    3.5614 O   0  0  0  0  0  0  0  0  0  0  0  0
    3.4935   -5.7362    4.0672 C   0  0  1  0  0  0  0  0  0  0  0  0
    4.4123   -6.9366    4.3409 C   0  0  2  0  0  0  0  0  0  0  0  0
    4.4788   -7.9307    3.3031 O   0  0  0  0  0  0  0  0  0  0  0  0
    4.0936   -8.3803    4.6249 C   0  0  2  0  0  0  0  0  0  0  0  0
    2.7106   -8.9487    4.8241 C   0  0  1  0  0  0  0  0  0  0  0  0
    2.3006   -8.4740    6.0924 O   0  0  0  0  0  0  0  0  0  0  0  0
    1.7086   -8.6447    3.6799 C   0  0  1  0  0  0  0  0  0  0  0  0
    2.2934   -9.0903    2.4745 O   0  0  0  0  0  0  0  0  0  0  0  0
    0.3821   -9.4403    3.7716 C   0  0  1  0  0  0  0  0  0  0  0  0
   -0.1492   -9.4430    5.0866 O   0  0  0  0  0  0  0  0  0  0  0  0
   -0.5486   -8.6834    2.7945 C   0  0  1  0  0  0  0  0  0  0  0  0
   -2.0509   -8.7808    3.0607 C   0  0  0  0  0  0  0  0  0  0  0  0
   -0.0505   -7.2343    2.7363 C   0  0  0  0  0  0  0  0  0  0  0  0
    1.2404   -7.1732    3.5742 C   0  0  2  0  0  0  0  0  0  0  0  0
    2.1882   -2.1429    2.1896 C   0  0  1  0  0  0  0  0  0  0  0  0
    1.8193   -0.6133    1.9635 N   0  0  0  0  0  0  0  0  0  0  0  0
    0.8169    0.0076    2.8909 C   0  0  2  0  0  0  0  0  0  0  0  0
    0.4470    1.4443    2.4154 C   0  0  2  0  0  0  0  0  0  0  0  0
    1.6983    2.3514    2.4815 C   0  0  0  0  0  0  0  0  0  0  0  0
    2.2126    2.4014    3.9392 C   0  0  1  0  0  0  0  0  0  0  0  0
    1.1179    3.0016    4.8421 C   0  0  0  0  0  0  0  0  0  0  0  0
   -0.1430    2.1117    4.7739 C   0  0  1  0  0  0  0  0  0  0  0  0
   -0.6587    2.0269    3.3278 C   0  0  0  0  0  0  0  0  0  0  0  0
    0.1971    0.6919    5.2544 C   0  0  0  0  0  0  0  0  0  0  0  0
    1.3072    0.0804    4.3695 C   0  0  1  0  0  0  0  0  0  0  0  0
    1.5260   -1.2069    4.8991 O   0  0  0  0  0  0  0  0  0  0  0  0
    2.5702    0.9827    4.4374 C   0  0  0  0  0  0  0  0  0  0  0  0
    2.4460   -2.6501    0.9276 O   0  0  0  0  0  0  0  0  0  0  0  0
    5.4645   -5.5574   -0.4651 H   0  0  0  0  0  0  0  0  0  0  0  0
    5.3200   -3.8875   -1.2246 H   0  0  0  0  0  0  0  0  0  0  0  0
    4.0352   -2.2258   -0.3140 H   0  0  0  0  0  0  0  0  0  0  0  0
    5.5355   -2.1592    1.9292 H   0  0  0  0  0  0  0  0  0  0  0  0
    4.4888   -0.8714    1.5202 H   0  0  0  0  0  0  0  0  0  0  0  0
    3.6104   -1.3739    3.6457 H   0  0  0  0  0  0  0  0  0  0  0  0
    6.3331   -5.3067    3.3378 H   0  0  0  0  0  0  0  0  0  0  0  0
    5.8120   -4.3795    4.7652 H   0  0  0  0  0  0  0  0  0  0  0  0
    6.1643   -3.5719    3.2464 H   0  0  0  0  0  0  0  0  0  0  0  0
    4.7340   -5.8828    1.6961 H   0  0  0  0  0  0  0  0  0  0  0  0
    1.8969   -4.9975    1.2813 H   0  0  0  0  0  0  0  0  0  0  0  0
    3.2484   -7.4316    1.3114 H   0  0  0  0  0  0  0  0  0  0  0  0
    1.9734   -4.1548    3.5531 H   0  0  0  0  0  0  0  0  0  0  0  0
    3.2296   -5.3568    5.0593 H   0  0  0  0  0  0  0  0  0  0  0  0
    5.3569   -6.6839    4.8161 H   0  0  0  0  0  0  0  0  0  0  0  0
    4.8752   -8.9026    5.1764 H   0  0  0  0  0  0  0  0  0  0  0  0
    2.8387  -10.0252    4.9342 H   0  0  0  0  0  0  0  0  0  0  0  0
    1.4947   -8.9174    6.3266 H   0  0  0  0  0  0  0  0  0  0  0  0
    3.2173   -8.8858    2.5515 H   0  0  0  0  0  0  0  0  0  0  0  0
    0.5063  -10.4819    3.4570 H   0  0  0  0  0  0  0  0  0  0  0  0
   -0.8945  -10.0553    5.0830 H   0  0  0  0  0  0  0  0  0  0  0  0
   -0.3775   -9.0966    1.8003 H   0  0  0  0  0  0  0  0  0  0  0  0
   -2.3416   -8.3165    4.0037 H   0  0  0  0  0  0  0  0  0  0  0  0
   -2.3594   -9.8231    3.0854 H   0  0  0  0  0  0  0  0  0  0  0  0
   -2.5891   -8.2917    2.2518 H   0  0  0  0  0  0  0  0  0  0  0  0
    0.1175   -6.9579    1.6929 H   0  0  0  0  0  0  0  0  0  0  0  0
   -0.7761   -6.5393    3.1537 H   0  0  0  0  0  0  0  0  0  0  0  0
    0.8971   -6.9507    4.5890 H   0  0  0  0  0  0  0  0  0  0  0  0
    1.3552   -2.6618    2.6339 H   0  0  0  0  0  0  0  0  0  0  0  0
    2.6648   -0.0788    1.9362 H   0  0  0  0  0  0  0  0  0  0  0  0
   -0.0583   -0.6299    2.8163 H   0  0  0  0  0  0  0  0  0  0  0  0
    0.0689    1.4131    1.3884 H   0  0  0  0  0  0  0  0  0  0  0  0
    2.4853    1.9966    1.8163 H   0  0  0  0  0  0  0  0  0  0  0  0
    1.4407    3.3485    2.1199 H   0  0  0  0  0  0  0  0  0  0  0  0
    3.0974    3.0340    3.9692 H   0  0  0  0  0  0  0  0  0  0  0  0
    1.4840    3.0644    5.8694 H   0  0  0  0  0  0  0  0  0  0  0  0
    0.8796    4.0229    4.5194 H   0  0  0  0  0  0  0  0  0  0  0  0
   -0.9176    2.5400    5.4134 H   0  0  0  0  0  0  0  0  0  0  0  0
   -0.9263    3.0204    2.9762 H   0  0  0  0  0  0  0  0  0  0  0  0
   -1.5646    1.4216    3.2760 H   0  0  0  0  0  0  0  0  0  0  0  0
    0.5284    0.7353    6.2855 H   0  0  0  0  0  0  0  0  0  0  0  0
   -0.6974    0.0755    5.2412 H   0  0  0  0  0  0  0  0  0  0  0  0
    2.0159   -1.0875    5.7089 H   0  0  0  0  0  0  0  0  0  0  0  0
    3.3898    0.6505    3.7992 H   0  0  0  0  0  0  0  0  0  0  0  0
    2.9672    1.0329    5.4516 H   0  0  0  0  0  0  0  0  0  0  0  0
    1.4539   -0.5128    1.0204 H   0  0  0  0  0  0  0  0  0  0  0  0
  1  2  2  0
  1 42  1  0
  1 43  1  0
  2  9  1  0
  2  3  1  0
  3 41  1  0
  3  4  1  0
  3 44  1  6
  4  5  1  0
  4 45  1  0
  4 46  1  0
  5  6  1  0
  5 28  1  0
  5 47  1  1
  6  7  1  0
  7 14  1  0
  7  8  1  1
  7  9  1  0
  8 48  1  0
  8 49  1  0
  8 50  1  0
  9 10  1  0
  9 51  1  6
 10 11  1  0
 10 12  1  0
 10 52  1  6
 11 53  1  0
 12 27  1  0
 12 13  1  1
 12 14  1  0
 13 54  1  0
 14 15  1  0
 14 55  1  1
 15 17  1  0
 15 16  1  0
 15 56  1  1
 16 17  1  0
 17 18  1  0
 17 57  1  1
 18 19  1  0
 18 20  1  0
 18 58  1  1
 19 59  1  0
 20 27  1  0
 20 21  1  6
 20 22  1  0
 21 60  1  0
 22 23  1  0
 22 24  1  0
 22 61  1  6
 23 62  1  0
 24 25  1  0
 24 26  1  0
 24 63  1  6
 25 64  1  0
 25 65  1  0
 25 66  1  0
 26 27  1  0
 26 67  1  0
 26 68  1  0
 27 69  1  1
 28 29  1  0
 28 41  1  0
 28 70  1  1
 29 30  1  0
 29 71  1  0
 29 87  1  0
 30 38  1  0
 30 31  1  0
 30 72  1  1
 31 36  1  0
 31 32  1  0
 31 73  1  6
 32 33  1  0
 32 74  1  0
 32 75  1  0
 33 40  1  0
 33 34  1  0
 33 76  1  6
 34 35  1  0
 34 77  1  0
 34 78  1  0
 35 36  1  0
 35 37  1  0
 35 79  1  1
 36 80  1  0
 36 81  1  0
 37 38  1  0
 37 82  1  0
 37 83  1  0
 38 39  1  1
 38 40  1  0
 39 84  1  0
 40 85  1  0
 40 86  1  0
M  CHG  1  29   1
M  END
>  <i_m_ct_stereo_status>  (94) 
1

>  <s_m_source_file>  (94) 
/var/tmp/pbs.5076255.sched01/tmpvv81v907/0tx7qkblw.sdf

>  <i_m_source_file_index>  (94) 
40

>  <i_lp_mmshare_version>  (94) 
48012

>  <i_f3d_flags>  (94) 
0

>  <s_epik_input>  (94) 
W0NIMl0xW0NAQEhdKFtDSDJdMilbQ0gyXVtDQEBIXShbQ0gyXTMpW0NIMl1bQ0BIXTFbQ0BIXShbQ0BdMjNbT0hdKVtOSF1bQ0BASF0oTzQpW0NAQEhdKE81KVtDSDJdW0NASF00Qyg9W0NIMl0pW0NAQEhdKFtDQEBdNTZbQ0gzXSlbQ0BASF0oW09IXSlbQ0BdNyhbT0hdKVtDQEhdNltDQEhdOFtDQEhdKE84KVtDQEBIXShbT0hdKVtDQF05KFtPSF0pW0NAQEhdN1tDSDJdW0NASF0oW0NIM10pW0NAQEhdOVtPSF0=

>  <s_epik_cmdline>  (94) 
J2VwaWtfcHl0aG9uJywgJy1waHQnLCAnMi4wJywgJy1waCcsICc3LjAnLCAnLXRuJywgJzgnLCAnLW1hJywgJzIwMCcsICctaW1hZScsICc8aW5maWxlLm1hZT4nLCAnLW9tYWUnLCAnPG91dGZpbGUubWFlPic=

>  <r_epik_Ionization_Penalty>  (94) 
0.300588

>  <r_epik_Ionization_Penalty_Charging>  (94) 
0.300588

>  <r_epik_Ionization_Penalty_Neutral>  (94) 
4.25478e-07

>  <r_epik_State_Penalty>  (94) 
0.294092

>  <r_epik_Charging_Adjusted_Penalty>  (94) 
0.59468

>  <i_epik_Tot_Q>  (94) 
1

>  <i_epik_Tot_abs_Q>  (94) 
1

>  <s_epik_Chemistry_Notes>  (94) 
This compound contains an acetal/aminal-like group ( X-CH(R)-Y where X, Y are N, S, or O) that may be acid/base labile, releasing an aldehyde.

>  <s_lp_Force_Field>  (94) 
OPLS3e

>  <r_lp_Energy>  (94) 
50.6058

>  <b_lp_Chiralities_Consistent>  (94) 
1

>  <s_lp_Variant>  (94) 
20:0-1

>  <s_i_glide_gridfile>  (94) 
pfpi4k_grid

>  <i_i_glide_lignum>  (94) 
40

>  <i_i_glide_rotatable_bonds>  (94) 
8

>  <r_i_docking_score>  (94) 
-5.13663

>  <r_i_glide_ligand_efficiency>  (94) 
-0.125284

>  <r_i_glide_ligand_efficiency_sa>  (94) 
-0.432005

>  <r_i_glide_ligand_efficiency_ln>  (94) 
-1.08975

>  <r_i_glide_gscore>  (94) 
-5.13663

>  <r_i_glide_lipo>  (94) 
-0.112434

>  <r_i_glide_hbond>  (94) 
-0.2

>  <r_i_glide_metal>  (94) 
-0

>  <r_i_glide_rewards>  (94) 
-2

>  <r_i_glide_evdw>  (94) 
-29.9079

>  <r_i_glide_ecoul>  (94) 
-8.4543

>  <r_i_glide_erotb>  (94) 
0.0292578

>  <r_i_glide_esite>  (94) 
-0.0899168

>  <r_i_glide_emodel>  (94) 
-70.6534

>  <r_i_glide_energy>  (94) 
-38.3622

>  <r_i_glide_einternal>  (94) 
5.99811

>  <r_i_glide_intrahb_reward>  (94) 
-2

>  <i_i_glide_confnum>  (94) 
5

>  <i_i_glide_posenum>  (94) 
25

>  <r_i_glide_eff_state_penalty>  (94) 
0

>  <ligand_id>  (94) 
20

>  <original_smiles>  (94) 
C=C1C2CC(OC3(C)C1C(O)C1(O)C3C3OC3C(O)C3(O)C(O)C(C)CC31)C(NC1C3CC4CC(C3)CC1(O)C4)O2

>  <smiles>  (94) 
[H]OC1([H])C2([H])OC2([H])C2([H])C3(C([H])([H])[H])OC4([H])C([H])([H])C([H])(OC4([H])[N+]([H])([H])C4([H])C5([H])C([H])([H])C6([H])C([H])([H])C([H])(C5([H])[H])C([H])([H])C4(O[H])C6([H])[H])C(=C([H])[H])C3([H])C([H])(O[H])C2(O[H])C2([H])C([H])([H])C([H])(C([H])([H])[H])C([H])(O[H])C12O[H]

$$$$
20:1:0
     RDKit          3D

 86 94  0  0  1  0  0  0  0  0999 V2000
    0.9615   -7.6014    5.7801 C   0  0  0  0  0  0  0  0  0  0  0  0
    1.7617   -7.3410    4.7223 C   0  0  0  0  0  0  0  0  0  0  0  0
    1.5786   -6.0725    3.9143 C   0  0  2  0  0  0  0  0  0  0  0  0
    1.0906   -6.3898    2.5149 C   0  0  0  0  0  0  0  0  0  0  0  0
    2.3974   -6.5149    1.7566 C   0  0  2  0  0  0  0  0  0  0  0  0
    3.1871   -7.7047    1.8587 O   0  0  0  0  0  0  0  0  0  0  0  0
    2.9985   -8.7436    2.8371 C   0  0  2  0  0  0  0  0  0  0  0  0
    1.8427   -9.6399    2.3291 C   0  0  0  0  0  0  0  0  0  0  0  0
    2.8776   -8.3039    4.3201 C   0  0  1  0  0  0  0  0  0  0  0  0
    4.2962   -7.9070    4.7986 C   0  0  1  0  0  0  0  0  0  0  0  0
    4.4281   -8.3317    6.1336 O   0  0  0  0  0  0  0  0  0  0  0  0
    5.2794   -8.5733    3.7911 C   0  0  2  0  0  0  0  0  0  0  0  0
    5.6308   -7.5063    2.9319 O   0  0  0  0  0  0  0  0  0  0  0  0
    4.3917   -9.4790    2.8655 C   0  0  1  0  0  0  0  0  0  0  0  0
    4.2474  -10.9661    3.2454 C   0  0  2  0  0  0  0  0  0  0  0  0
    4.2198  -11.2880    4.6453 O   0  0  0  0  0  0  0  0  0  0  0  0
    5.2328  -11.9299    3.8396 C   0  0  2  0  0  0  0  0  0  0  0  0
    6.6884  -11.6450    4.1362 C   0  0  1  0  0  0  0  0  0  0  0  0
    7.3331  -11.6154    2.8788 O   0  0  0  0  0  0  0  0  0  0  0  0
    6.9610  -10.3672    4.9738 C   0  0  1  0  0  0  0  0  0  0  0  0
    6.2222  -10.4688    6.1721 O   0  0  0  0  0  0  0  0  0  0  0  0
    8.4180  -10.2212    5.4817 C   0  0  1  0  0  0  0  0  0  0  0  0
    9.3638  -10.5022    4.4711 O   0  0  0  0  0  0  0  0  0  0  0  0
    8.5268   -8.7392    5.9072 C   0  0  1  0  0  0  0  0  0  0  0  0
    9.9411   -8.1279    5.9336 C   0  0  0  0  0  0  0  0  0  0  0  0
    7.5252   -7.9722    5.0277 C   0  0  0  0  0  0  0  0  0  0  0  0
    6.7096   -9.0270    4.2444 C   0  0  2  0  0  0  0  0  0  0  0  0
    3.1937   -5.3643    2.3842 C   0  0  1  0  0  0  0  0  0  0  0  0
    2.8516   -4.0957    1.7318 N   0  0  0  0  0  0  0  0  0  0  0  0
    3.8311   -3.0004    1.8817 C   0  0  2  0  0  0  0  0  0  0  0  0
    4.1678   -2.6978    3.3726 C   0  0  2  0  0  0  0  0  0  0  0  0
    2.9034   -2.2012    4.1221 C   0  0  0  0  0  0  0  0  0  0  0  0
    2.3757   -0.9214    3.4514 C   0  0  1  0  0  0  0  0  0  0  0  0
    3.4535    0.1725    3.5250 C   0  0  0  0  0  0  0  0  0  0  0  0
    4.7213   -0.3115    2.7906 C   0  0  1  0  0  0  0  0  0  0  0  0
    5.2484   -1.6020    3.4304 C   0  0  0  0  0  0  0  0  0  0  0  0
    4.3888   -0.5900    1.3111 C   0  0  0  0  0  0  0  0  0  0  0  0
    3.2989   -1.6862    1.2272 C   0  0  1  0  0  0  0  0  0  0  0  0
    3.0256   -1.8831   -0.1444 O   0  0  0  0  0  0  0  0  0  0  0  0
    2.0343   -1.1964    1.9734 C   0  0  0  0  0  0  0  0  0  0  0  0
    2.8081   -5.3734    3.7283 O   0  0  0  0  0  0  0  0  0  0  0  0
    1.0852   -8.4928    6.3759 H   0  0  0  0  0  0  0  0  0  0  0  0
    0.1809   -6.9160    6.0731 H   0  0  0  0  0  0  0  0  0  0  0  0
    0.8679   -5.4203    4.4238 H   0  0  0  0  0  0  0  0  0  0  0  0
    0.3711   -7.1957    2.4529 H   0  0  0  0  0  0  0  0  0  0  0  0
    0.5653   -5.5138    2.1473 H   0  0  0  0  0  0  0  0  0  0  0  0
    2.2492   -6.3108    0.6984 H   0  0  0  0  0  0  0  0  0  0  0  0
    1.5916  -10.4344    3.0309 H   0  0  0  0  0  0  0  0  0  0  0  0
    2.1244  -10.1002    1.3830 H   0  0  0  0  0  0  0  0  0  0  0  0
    0.9174   -9.1162    2.1346 H   0  0  0  0  0  0  0  0  0  0  0  0
    2.6368   -9.2298    4.8499 H   0  0  0  0  0  0  0  0  0  0  0  0
    4.4278   -6.8228    4.8131 H   0  0  0  0  0  0  0  0  0  0  0  0
    5.3235   -8.1792    6.3994 H   0  0  0  0  0  0  0  0  0  0  0  0
    4.8302   -7.2436    2.4922 H   0  0  0  0  0  0  0  0  0  0  0  0
    4.7998   -9.5079    1.8540 H   0  0  0  0  0  0  0  0  0  0  0  0
    3.5450  -11.5199    2.6219 H   0  0  0  0  0  0  0  0  0  0  0  0
    5.0241  -12.9814    3.6311 H   0  0  0  0  0  0  0  0  0  0  0  0
    7.0757  -12.5093    4.6708 H   0  0  0  0  0  0  0  0  0  0  0  0
    8.2497  -11.4381    3.0392 H   0  0  0  0  0  0  0  0  0  0  0  0
    5.3164  -10.6384    5.9331 H   0  0  0  0  0  0  0  0  0  0  0  0
    8.6257  -10.8890    6.3196 H   0  0  0  0  0  0  0  0  0  0  0  0
    9.2937   -9.8162    3.8156 H   0  0  0  0  0  0  0  0  0  0  0  0
    8.1386   -8.6864    6.9265 H   0  0  0  0  0  0  0  0  0  0  0  0
   10.3813   -8.0659    4.9384 H   0  0  0  0  0  0  0  0  0  0  0  0
   10.6133   -8.7116    6.5628 H   0  0  0  0  0  0  0  0  0  0  0  0
    9.9163   -7.1146    6.3368 H   0  0  0  0  0  0  0  0  0  0  0  0
    6.9006   -7.3371    5.6580 H   0  0  0  0  0  0  0  0  0  0  0  0
    8.0366   -7.3045    4.3305 H   0  0  0  0  0  0  0  0  0  0  0  0
    7.2617   -9.1369    3.3099 H   0  0  0  0  0  0  0  0  0  0  0  0
    4.2690   -5.5143    2.2909 H   0  0  0  0  0  0  0  0  0  0  0  0
    1.9679   -3.7722    2.1086 H   0  0  0  0  0  0  0  0  0  0  0  0
    4.7513   -3.2945    1.3706 H   0  0  0  0  0  0  0  0  0  0  0  0
    4.5777   -3.5831    3.8646 H   0  0  0  0  0  0  0  0  0  0  0  0
    2.1209   -2.9607    4.1200 H   0  0  0  0  0  0  0  0  0  0  0  0
    3.1444   -2.0207    5.1676 H   0  0  0  0  0  0  0  0  0  0  0  0
    1.4806   -0.5875    3.9739 H   0  0  0  0  0  0  0  0  0  0  0  0
    3.0869    1.0917    3.0658 H   0  0  0  0  0  0  0  0  0  0  0  0
    3.6790    0.4099    4.5682 H   0  0  0  0  0  0  0  0  0  0  0  0
    5.4934    0.4513    2.8733 H   0  0  0  0  0  0  0  0  0  0  0  0
    5.5301   -1.4243    4.4669 H   0  0  0  0  0  0  0  0  0  0  0  0
    6.1428   -1.9372    2.9027 H   0  0  0  0  0  0  0  0  0  0  0  0
    4.0469    0.3294    0.8395 H   0  0  0  0  0  0  0  0  0  0  0  0
    5.2906   -0.8926    0.7794 H   0  0  0  0  0  0  0  0  0  0  0  0
    2.1470   -1.4994   -0.3379 H   0  0  0  0  0  0  0  0  0  0  0  0
    1.2317   -1.9302    1.9060 H   0  0  0  0  0  0  0  0  0  0  0  0
    1.6479   -0.2922    1.4997 H   0  0  0  0  0  0  0  0  0  0  0  0
  1  2  2  0
  1 42  1  0
  1 43  1  0
  2  9  1  0
  2  3  1  0
  3 41  1  0
  3  4  1  0
  3 44  1  1
  4  5  1  0
  4 45  1  0
  4 46  1  0
  5  6  1  0
  5 28  1  0
  5 47  1  6
  6  7  1  0
  7 14  1  0
  7  8  1  6
  7  9  1  0
  8 48  1  0
  8 49  1  0
  8 50  1  0
  9 10  1  0
  9 51  1  1
 10 11  1  0
 10 12  1  0
 10 52  1  1
 11 53  1  0
 12 27  1  0
 12 13  1  6
 12 14  1  0
 13 54  1  0
 14 15  1  0
 14 55  1  6
 15 17  1  0
 15 16  1  0
 15 56  1  6
 16 17  1  0
 17 18  1  0
 17 57  1  6
 18 19  1  0
 18 20  1  0
 18 58  1  1
 19 59  1  0
 20 27  1  0
 20 21  1  1
 20 22  1  0
 21 60  1  0
 22 23  1  0
 22 24  1  0
 22 61  1  1
 23 62  1  0
 24 25  1  0
 24 26  1  0
 24 63  1  1
 25 64  1  0
 25 65  1  0
 25 66  1  0
 26 27  1  0
 26 67  1  0
 26 68  1  0
 27 69  1  6
 28 29  1  0
 28 41  1  0
 28 70  1  1
 29 30  1  0
 29 71  1  0
 30 38  1  0
 30 31  1  0
 30 72  1  6
 31 36  1  0
 31 32  1  0
 31 73  1  1
 32 33  1  0
 32 74  1  0
 32 75  1  0
 33 40  1  0
 33 34  1  0
 33 76  1  1
 34 35  1  0
 34 77  1  0
 34 78  1  0
 35 36  1  0
 35 37  1  0
 35 79  1  6
 36 80  1  0
 36 81  1  0
 37 38  1  0
 37 82  1  0
 37 83  1  0
 38 39  1  6
 38 40  1  0
 39 84  1  0
 40 85  1  0
 40 86  1  0
M  END
>  <i_m_ct_stereo_status>  (95) 
1

>  <s_m_source_file>  (95) 
/var/tmp/pbs.5076255.sched01/tmpvv81v907/0tx7qkblw.sdf

>  <i_m_source_file_index>  (95) 
41

>  <i_lp_mmshare_version>  (95) 
48012

>  <i_f3d_flags>  (95) 
0

>  <s_epik_input>  (95) 
W0NIMl0xW0NAQEhdKFtDSDJdMilbQ0gyXVtDQEBIXShbQ0gyXTMpW0NIMl1bQ0BIXTFbQ0BIXShbQ0BdMjNbT0hdKVtOSF1bQ0BASF0oTzQpW0NAQEhdKE81KVtDSDJdW0NASF00Qyg9W0NIMl0pW0NAQEhdKFtDQEBdNTZbQ0gzXSlbQ0BASF0oW09IXSlbQ0BdNyhbT0hdKVtDQEhdNltDQEhdOFtDQEhdKE84KVtDQEBIXShbT0hdKVtDQF05KFtPSF0pW0NAQEhdN1tDSDJdW0NASF0oW0NIM10pW0NAQEhdOVtPSF0=

>  <s_epik_cmdline>  (95) 
J2VwaWtfcHl0aG9uJywgJy1waHQnLCAnMi4wJywgJy1waCcsICc3LjAnLCAnLXRuJywgJzgnLCAnLW1hJywgJzIwMCcsICctaW1hZScsICc8aW5maWxlLm1hZT4nLCAnLW9tYWUnLCAnPG91dGZpbGUubWFlPic=

>  <r_epik_Ionization_Penalty>  (95) 
0.546007

>  <r_epik_Ionization_Penalty_Charging>  (95) 
0

>  <r_epik_Ionization_Penalty_Neutral>  (95) 
0.546007

>  <r_epik_State_Penalty>  (95) 
0.555973

>  <r_epik_Charging_Adjusted_Penalty>  (95) 
0.555973

>  <i_epik_Tot_Q>  (95) 
0

>  <i_epik_Tot_abs_Q>  (95) 
0

>  <s_epik_Chemistry_Notes>  (95) 
This compound contains an acetal/aminal-like group ( X-CH(R)-Y where X, Y are N, S, or O) that may be acid/base labile, releasing an aldehyde.

>  <s_lp_Force_Field>  (95) 
OPLS3e

>  <r_lp_Energy>  (95) 
66.9202

>  <b_lp_Chiralities_Consistent>  (95) 
1

>  <s_lp_Variant>  (95) 
20:0-2

>  <s_i_glide_gridfile>  (95) 
pfpi4k_grid

>  <i_i_glide_lignum>  (95) 
41

>  <i_i_glide_rotatable_bonds>  (95) 
8

>  <r_i_docking_score>  (95) 
-3.79602

>  <r_i_glide_ligand_efficiency>  (95) 
-0.0925858

>  <r_i_glide_ligand_efficiency_sa>  (95) 
-0.319256

>  <r_i_glide_ligand_efficiency_ln>  (95) 
-0.805338

>  <r_i_glide_gscore>  (95) 
-3.79602

>  <r_i_glide_lipo>  (95) 
-0.370109

>  <r_i_glide_hbond>  (95) 
-0.16

>  <r_i_glide_metal>  (95) 
-0

>  <r_i_glide_rewards>  (95) 
-1

>  <r_i_glide_evdw>  (95) 
-27.1216

>  <r_i_glide_ecoul>  (95) 
-6.26968

>  <r_i_glide_erotb>  (95) 
0.0306224

>  <r_i_glide_esite>  (95) 
0

>  <r_i_glide_emodel>  (95) 
-52.7528

>  <r_i_glide_energy>  (95) 
-33.3913

>  <r_i_glide_einternal>  (95) 
1.99256

>  <r_i_glide_intrahb_reward>  (95) 
-1

>  <i_i_glide_confnum>  (95) 
1

>  <i_i_glide_posenum>  (95) 
12

>  <r_i_glide_eff_state_penalty>  (95) 
0

>  <ligand_id>  (95) 
20

>  <original_smiles>  (95) 
C=C1C2CC(OC3(C)C1C(O)C1(O)C3C3OC3C(O)C3(O)C(O)C(C)CC31)C(NC1C3CC4CC(C3)CC1(O)C4)O2

>  <smiles>  (95) 
[H]OC1([H])C2([H])OC2([H])C2([H])C3(C([H])([H])[H])OC4([H])C([H])(N([H])C5([H])C6([H])C([H])([H])C7([H])C([H])([H])C([H])(C6([H])[H])C([H])([H])C5(O[H])C7([H])[H])OC([H])(C(=C([H])[H])C3([H])C([H])(O[H])C2(O[H])C2([H])C([H])([H])C([H])(C([H])([H])[H])C([H])(O[H])C12O[H])C4([H])[H]

$$$$
20:1:1
     RDKit          3D

 86 94  0  0  1  0  0  0  0  0999 V2000
    0.1321   -8.8803    7.6904 C   0  0  0  0  0  0  0  0  0  0  0  0
    0.6754   -8.1773    6.6788 C   0  0  0  0  0  0  0  0  0  0  0  0
    0.3789   -6.6979    6.5266 C   0  0  2  0  0  0  0  0  0  0  0  0
   -0.4234   -6.4325    5.2659 C   0  0  0  0  0  0  0  0  0  0  0  0
    0.6688   -6.1934    4.2509 C   0  0  2  0  0  0  0  0  0  0  0  0
    1.3725   -7.2830    3.6548 O   0  0  0  0  0  0  0  0  0  0  0  0
    1.3839   -8.6294    4.1567 C   0  0  2  0  0  0  0  0  0  0  0  0
    0.1037   -9.2945    3.5928 C   0  0  0  0  0  0  0  0  0  0  0  0
    1.6173   -8.8412    5.6789 C   0  0  1  0  0  0  0  0  0  0  0  0
    3.1234   -8.6304    5.9598 C   0  0  1  0  0  0  0  0  0  0  0  0
    3.5194   -9.5320    6.9723 O   0  0  0  0  0  0  0  0  0  0  0  0
    3.8264   -8.7711    4.5742 C   0  0  2  0  0  0  0  0  0  0  0  0
    4.0562   -7.4330    4.1731 O   0  0  0  0  0  0  0  0  0  0  0  0
    2.7136   -9.2472    3.5807 C   0  0  1  0  0  0  0  0  0  0  0  0
    2.5807  -10.7641    3.3474 C   0  0  2  0  0  0  0  0  0  0  0  0
    2.8378  -11.6186    4.4736 O   0  0  0  0  0  0  0  0  0  0  0  0
    3.6172  -11.8484    3.2830 C   0  0  2  0  0  0  0  0  0  0  0  0
    5.1187  -11.6471    3.3289 C   0  0  1  0  0  0  0  0  0  0  0  0
    5.4605  -11.0578    2.0927 O   0  0  0  0  0  0  0  0  0  0  0  0
    5.6380  -10.8209    4.5330 C   0  0  1  0  0  0  0  0  0  0  0  0
    5.1657  -11.4431    5.7064 O   0  0  0  0  0  0  0  0  0  0  0  0
    7.1772  -10.8342    4.7317 C   0  0  1  0  0  0  0  0  0  0  0  0
    7.8701  -10.6271    3.5236 O   0  0  0  0  0  0  0  0  0  0  0  0
    7.4501   -9.6500    5.6806 C   0  0  1  0  0  0  0  0  0  0  0  0
    8.8682   -9.0452    5.6312 C   0  0  0  0  0  0  0  0  0  0  0  0
    6.3220   -8.6346    5.4248 C   0  0  0  0  0  0  0  0  0  0  0  0
    5.2990   -9.3121    4.4804 C   0  0  2  0  0  0  0  0  0  0  0  0
    1.6318   -5.3679    5.1107 C   0  0  1  0  0  0  0  0  0  0  0  0
    1.2298   -3.9583    5.1650 N   0  0  0  0  0  0  0  0  0  0  0  0
    1.4784   -3.1094    3.9831 C   0  0  2  0  0  0  0  0  0  0  0  0
    2.9890   -3.0492    3.6178 C   0  0  2  0  0  0  0  0  0  0  0  0
    3.7884   -2.4075    4.7795 C   0  0  0  0  0  0  0  0  0  0  0  0
    3.2685   -0.9779    5.0389 C   0  0  1  0  0  0  0  0  0  0  0  0
    3.4657   -0.1319    3.7668 C   0  0  0  0  0  0  0  0  0  0  0  0
    2.6759   -0.7663    2.6013 C   0  0  1  0  0  0  0  0  0  0  0  0
    3.1698   -2.2017    2.3430 C   0  0  0  0  0  0  0  0  0  0  0  0
    1.1798   -0.8081    2.9603 C   0  0  0  0  0  0  0  0  0  0  0  0
    0.9765   -1.6563    4.2396 C   0  0  1  0  0  0  0  0  0  0  0  0
   -0.4073   -1.6522    4.5266 O   0  0  0  0  0  0  0  0  0  0  0  0
    1.7675   -1.0102    5.4045 C   0  0  0  0  0  0  0  0  0  0  0  0
    1.5671   -5.9247    6.3861 O   0  0  0  0  0  0  0  0  0  0  0  0
    0.3342   -9.9332    7.8174 H   0  0  0  0  0  0  0  0  0  0  0  0
   -0.5299   -8.4100    8.4008 H   0  0  0  0  0  0  0  0  0  0  0  0
   -0.1654   -6.3373    7.4008 H   0  0  0  0  0  0  0  0  0  0  0  0
   -1.1777   -7.1739    5.0357 H   0  0  0  0  0  0  0  0  0  0  0  0
   -0.9709   -5.5022    5.4104 H   0  0  0  0  0  0  0  0  0  0  0  0
    0.2999   -5.5884    3.4289 H   0  0  0  0  0  0  0  0  0  0  0  0
   -0.0323  -10.3130    3.9564 H   0  0  0  0  0  0  0  0  0  0  0  0
    0.1357   -9.3225    2.5028 H   0  0  0  0  0  0  0  0  0  0  0  0
   -0.8092   -8.7742    3.8488 H   0  0  0  0  0  0  0  0  0  0  0  0
    1.4349   -9.9084    5.8216 H   0  0  0  0  0  0  0  0  0  0  0  0
    3.3104   -7.6417    6.3797 H   0  0  0  0  0  0  0  0  0  0  0  0
    3.1584  -10.3930    6.7870 H   0  0  0  0  0  0  0  0  0  0  0  0
    4.7020   -7.0731    4.7628 H   0  0  0  0  0  0  0  0  0  0  0  0
    2.9004   -8.8392    2.5845 H   0  0  0  0  0  0  0  0  0  0  0  0
    1.7360  -11.0491    2.7252 H   0  0  0  0  0  0  0  0  0  0  0  0
    3.3157  -12.7246    2.7160 H   0  0  0  0  0  0  0  0  0  0  0  0
    5.5622  -12.6466    3.3601 H   0  0  0  0  0  0  0  0  0  0  0  0
    4.9212  -11.4749    1.3960 H   0  0  0  0  0  0  0  0  0  0  0  0
    4.2326  -11.5815    5.5847 H   0  0  0  0  0  0  0  0  0  0  0  0
    7.5226  -11.7839    5.1486 H   0  0  0  0  0  0  0  0  0  0  0  0
    7.5252  -11.2404    2.8882 H   0  0  0  0  0  0  0  0  0  0  0  0
    7.2955  -10.0344    6.6887 H   0  0  0  0  0  0  0  0  0  0  0  0
    9.0783   -8.5683    4.6727 H   0  0  0  0  0  0  0  0  0  0  0  0
    9.6298   -9.8071    5.7983 H   0  0  0  0  0  0  0  0  0  0  0  0
    8.9860   -8.2859    6.4021 H   0  0  0  0  0  0  0  0  0  0  0  0
    5.8799   -8.3515    6.3803 H   0  0  0  0  0  0  0  0  0  0  0  0
    6.7125   -7.7233    4.9695 H   0  0  0  0  0  0  0  0  0  0  0  0
    5.6389   -9.0112    3.4889 H   0  0  0  0  0  0  0  0  0  0  0  0
    2.6711   -5.4496    4.7982 H   0  0  0  0  0  0  0  0  0  0  0  0
    1.6865   -3.5294    5.9632 H   0  0  0  0  0  0  0  0  0  0  0  0
    0.9336   -3.5053    3.1237 H   0  0  0  0  0  0  0  0  0  0  0  0
    3.3868   -4.0382    3.3891 H   0  0  0  0  0  0  0  0  0  0  0  0
    3.7020   -3.0070    5.6868 H   0  0  0  0  0  0  0  0  0  0  0  0
    4.8510   -2.3904    4.5364 H   0  0  0  0  0  0  0  0  0  0  0  0
    3.8322   -0.5355    5.8591 H   0  0  0  0  0  0  0  0  0  0  0  0
    3.1188    0.8878    3.9384 H   0  0  0  0  0  0  0  0  0  0  0  0
    4.5264   -0.0631    3.5187 H   0  0  0  0  0  0  0  0  0  0  0  0
    2.8186   -0.1716    1.6994 H   0  0  0  0  0  0  0  0  0  0  0  0
    4.2185   -2.1988    2.0472 H   0  0  0  0  0  0  0  0  0  0  0  0
    2.6139   -2.6491    1.5180 H   0  0  0  0  0  0  0  0  0  0  0  0
    0.8106    0.2066    3.1091 H   0  0  0  0  0  0  0  0  0  0  0  0
    0.6173   -1.2189    2.1207 H   0  0  0  0  0  0  0  0  0  0  0  0
   -0.8520   -2.0583    3.7939 H   0  0  0  0  0  0  0  0  0  0  0  0
    1.6177   -1.5598    6.3343 H   0  0  0  0  0  0  0  0  0  0  0  0
    1.4013   -0.0016    5.5965 H   0  0  0  0  0  0  0  0  0  0  0  0
  1  2  2  0
  1 42  1  0
  1 43  1  0
  2  9  1  0
  2  3  1  0
  3 41  1  0
  3  4  1  0
  3 44  1  1
  4  5  1  0
  4 45  1  0
  4 46  1  0
  5  6  1  0
  5 28  1  0
  5 47  1  6
  6  7  1  0
  7 14  1  0
  7  8  1  6
  7  9  1  0
  8 48  1  0
  8 49  1  0
  8 50  1  0
  9 10  1  0
  9 51  1  6
 10 11  1  0
 10 12  1  0
 10 52  1  1
 11 53  1  0
 12 27  1  0
 12 13  1  6
 12 14  1  0
 13 54  1  0
 14 15  1  0
 14 55  1  6
 15 17  1  0
 15 16  1  0
 15 56  1  6
 16 17  1  0
 17 18  1  0
 17 57  1  6
 18 19  1  0
 18 20  1  0
 18 58  1  6
 19 59  1  0
 20 27  1  0
 20 21  1  1
 20 22  1  0
 21 60  1  0
 22 23  1  0
 22 24  1  0
 22 61  1  1
 23 62  1  0
 24 25  1  0
 24 26  1  0
 24 63  1  1
 25 64  1  0
 25 65  1  0
 25 66  1  0
 26 27  1  0
 26 67  1  0
 26 68  1  0
 27 69  1  6
 28 29  1  0
 28 41  1  0
 28 70  1  6
 29 30  1  0
 29 71  1  0
 30 38  1  0
 30 31  1  0
 30 72  1  6
 31 36  1  0
 31 32  1  0
 31 73  1  6
 32 33  1  0
 32 74  1  0
 32 75  1  0
 33 40  1  0
 33 34  1  0
 33 76  1  1
 34 35  1  0
 34 77  1  0
 34 78  1  0
 35 36  1  0
 35 37  1  0
 35 79  1  6
 36 80  1  0
 36 81  1  0
 37 38  1  0
 37 82  1  0
 37 83  1  0
 38 39  1  1
 38 40  1  0
 39 84  1  0
 40 85  1  0
 40 86  1  0
M  END
>  <i_m_ct_stereo_status>  (96) 
1

>  <s_m_source_file>  (96) 
/var/tmp/pbs.5076255.sched01/tmpvv81v907/0tx7qkblw.sdf

>  <i_m_source_file_index>  (96) 
41

>  <i_lp_mmshare_version>  (96) 
48012

>  <i_f3d_flags>  (96) 
0

>  <s_epik_input>  (96) 
W0NIMl0xW0NAQEhdKFtDSDJdMilbQ0gyXVtDQEBIXShbQ0gyXTMpW0NIMl1bQ0BIXTFbQ0BIXShbQ0BdMjNbT0hdKVtOSF1bQ0BASF0oTzQpW0NAQEhdKE81KVtDSDJdW0NASF00Qyg9W0NIMl0pW0NAQEhdKFtDQEBdNTZbQ0gzXSlbQ0BASF0oW09IXSlbQ0BdNyhbT0hdKVtDQEhdNltDQEhdOFtDQEhdKE84KVtDQEBIXShbT0hdKVtDQF05KFtPSF0pW0NAQEhdN1tDSDJdW0NASF0oW0NIM10pW0NAQEhdOVtPSF0=

>  <s_epik_cmdline>  (96) 
J2VwaWtfcHl0aG9uJywgJy1waHQnLCAnMi4wJywgJy1waCcsICc3LjAnLCAnLXRuJywgJzgnLCAnLW1hJywgJzIwMCcsICctaW1hZScsICc8aW5maWxlLm1hZT4nLCAnLW9tYWUnLCAnPG91dGZpbGUubWFlPic=

>  <r_epik_Ionization_Penalty>  (96) 
0.546007

>  <r_epik_Ionization_Penalty_Charging>  (96) 
0

>  <r_epik_Ionization_Penalty_Neutral>  (96) 
0.546007

>  <r_epik_State_Penalty>  (96) 
0.555973

>  <r_epik_Charging_Adjusted_Penalty>  (96) 
0.555973

>  <i_epik_Tot_Q>  (96) 
0

>  <i_epik_Tot_abs_Q>  (96) 
0

>  <s_epik_Chemistry_Notes>  (96) 
This compound contains an acetal/aminal-like group ( X-CH(R)-Y where X, Y are N, S, or O) that may be acid/base labile, releasing an aldehyde.

>  <s_lp_Force_Field>  (96) 
OPLS3e

>  <r_lp_Energy>  (96) 
66.9202

>  <b_lp_Chiralities_Consistent>  (96) 
1

>  <s_lp_Variant>  (96) 
20:0-2

>  <s_i_glide_gridfile>  (96) 
pfpi4k_grid

>  <i_i_glide_lignum>  (96) 
41

>  <i_i_glide_rotatable_bonds>  (96) 
8

>  <r_i_docking_score>  (96) 
-3.57684

>  <r_i_glide_ligand_efficiency>  (96) 
-0.0872399

>  <r_i_glide_ligand_efficiency_sa>  (96) 
-0.300822

>  <r_i_glide_ligand_efficiency_ln>  (96) 
-0.758838

>  <r_i_glide_gscore>  (96) 
-3.57684

>  <r_i_glide_lipo>  (96) 
-0.0303558

>  <r_i_glide_hbond>  (96) 
0

>  <r_i_glide_metal>  (96) 
-0

>  <r_i_glide_rewards>  (96) 
-0.5

>  <r_i_glide_evdw>  (96) 
-26.747

>  <r_i_glide_ecoul>  (96) 
-11.5941

>  <r_i_glide_erotb>  (96) 
0.0306224

>  <r_i_glide_esite>  (96) 
-0.000646404

>  <r_i_glide_emodel>  (96) 
-51.3747

>  <r_i_glide_energy>  (96) 
-38.341

>  <r_i_glide_einternal>  (96) 
3.36945

>  <r_i_glide_intrahb_reward>  (96) 
-0.5

>  <i_i_glide_confnum>  (96) 
1

>  <i_i_glide_posenum>  (96) 
5

>  <r_i_glide_eff_state_penalty>  (96) 
0

>  <ligand_id>  (96) 
20

>  <original_smiles>  (96) 
C=C1C2CC(OC3(C)C1C(O)C1(O)C3C3OC3C(O)C3(O)C(O)C(C)CC31)C(NC1C3CC4CC(C3)CC1(O)C4)O2

>  <smiles>  (96) 
[H]OC1([H])C2([H])OC2([H])C2([H])C3(C([H])([H])[H])OC4([H])C([H])(N([H])C5([H])C6([H])C([H])([H])C7([H])C([H])([H])C([H])(C6([H])[H])C([H])([H])C5(O[H])C7([H])[H])OC([H])(C(=C([H])[H])C3([H])C([H])(O[H])C2(O[H])C2([H])C([H])([H])C([H])(C([H])([H])[H])C([H])(O[H])C12O[H])C4([H])[H]

$$$$
20:1:2
     RDKit          3D

 86 94  0  0  1  0  0  0  0  0999 V2000
    3.8843   -3.4867    7.5944 C   0  0  0  0  0  0  0  0  0  0  0  0
    2.8772   -3.0923    6.7934 C   0  0  0  0  0  0  0  0  0  0  0  0
    1.9187   -2.0090    7.2492 C   0  0  2  0  0  0  0  0  0  0  0  0
    0.5262   -2.5757    7.4667 C   0  0  0  0  0  0  0  0  0  0  0  0
   -0.1041   -2.3800    6.1004 C   0  0  2  0  0  0  0  0  0  0  0  0
    0.1758   -3.2880    5.0300 O   0  0  0  0  0  0  0  0  0  0  0  0
    1.2789   -4.2141    4.9916 C   0  0  2  0  0  0  0  0  0  0  0  0
    0.7700   -5.4580    5.7613 C   0  0  0  0  0  0  0  0  0  0  0  0
    2.6868   -3.7039    5.4073 C   0  0  1  0  0  0  0  0  0  0  0  0
    3.2613   -2.8723    4.2328 C   0  0  1  0  0  0  0  0  0  0  0  0
    4.6474   -3.1309    4.1552 O   0  0  0  0  0  0  0  0  0  0  0  0
    2.4187   -3.2859    2.9857 C   0  0  2  0  0  0  0  0  0  0  0  0
    1.4782   -2.2351    2.8462 O   0  0  0  0  0  0  0  0  0  0  0  0
    1.5270   -4.4859    3.4599 C   0  0  1  0  0  0  0  0  0  0  0  0
    2.0392   -5.9180    3.2059 C   0  0  2  0  0  0  0  0  0  0  0  0
    3.4450   -6.1345    3.3174 O   0  0  0  0  0  0  0  0  0  0  0  0
    2.8336   -6.4903    2.0665 C   0  0  2  0  0  0  0  0  0  0  0  0
    3.2107   -5.7501    0.8019 C   0  0  1  0  0  0  0  0  0  0  0  0
    1.9882   -5.6441    0.0823 O   0  0  0  0  0  0  0  0  0  0  0  0
    3.9395   -4.3889    0.9999 C   0  0  1  0  0  0  0  0  0  0  0  0
    5.0772   -4.6052    1.8119 O   0  0  0  0  0  0  0  0  0  0  0  0
    4.5484   -3.7723   -0.2910 C   0  0  1  0  0  0  0  0  0  0  0  0
    3.6528   -3.8249   -1.3857 O   0  0  0  0  0  0  0  0  0  0  0  0
    4.8182   -2.2983    0.0932 C   0  0  1  0  0  0  0  0  0  0  0  0
    4.8971   -1.2909   -1.0680 C   0  0  0  0  0  0  0  0  0  0  0  0
    3.7716   -1.9397    1.1630 C   0  0  0  0  0  0  0  0  0  0  0  0
    3.0471   -3.2519    1.5465 C   0  0  2  0  0  0  0  0  0  0  0  0
    0.4553   -1.0076    5.7427 C   0  0  1  0  0  0  0  0  0  0  0  0
   -0.3439    0.0585    6.3548 N   0  0  0  0  0  0  0  0  0  0  0  0
   -1.0360    1.0002    5.4597 C   0  0  2  0  0  0  0  0  0  0  0  0
   -0.0894    1.6401    4.3999 C   0  0  2  0  0  0  0  0  0  0  0  0
    1.0104    2.4694    5.1020 C   0  0  0  0  0  0  0  0  0  0  0  0
    0.3630    3.5961    5.9318 C   0  0  1  0  0  0  0  0  0  0  0  0
   -0.4390    4.5156    4.9892 C   0  0  0  0  0  0  0  0  0  0  0  0
   -1.5415    3.6909    4.2913 C   0  0  1  0  0  0  0  0  0  0  0  0
   -0.9157    2.5502    3.4749 C   0  0  0  0  0  0  0  0  0  0  0  0
   -2.4825    3.0856    5.3481 C   0  0  0  0  0  0  0  0  0  0  0  0
   -1.6796    2.1546    6.2944 C   0  0  1  0  0  0  0  0  0  0  0  0
   -2.5787    1.6319    7.2640 O   0  0  0  0  0  0  0  0  0  0  0  0
   -0.5828    2.9982    6.9972 C   0  0  0  0  0  0  0  0  0  0  0  0
    1.7509   -0.9892    6.2648 O   0  0  0  0  0  0  0  0  0  0  0  0
    4.5805   -4.2509    7.2919 H   0  0  0  0  0  0  0  0  0  0  0  0
    4.0221   -3.0491    8.5686 H   0  0  0  0  0  0  0  0  0  0  0  0
    2.2954   -1.5552    8.1706 H   0  0  0  0  0  0  0  0  0  0  0  0
    0.5022   -3.5676    7.9074 H   0  0  0  0  0  0  0  0  0  0  0  0
    0.0166   -1.9305    8.1808 H   0  0  0  0  0  0  0  0  0  0  0  0
   -1.1861   -2.3021    6.1750 H   0  0  0  0  0  0  0  0  0  0  0  0
    1.5352   -6.2248    5.8535 H   0  0  0  0  0  0  0  0  0  0  0  0
   -0.0918   -5.8919    5.2553 H   0  0  0  0  0  0  0  0  0  0  0  0
    0.4396   -5.2437    6.7670 H   0  0  0  0  0  0  0  0  0  0  0  0
    3.2837   -4.6174    5.4353 H   0  0  0  0  0  0  0  0  0  0  0  0
    3.1604   -1.8026    4.4255 H   0  0  0  0  0  0  0  0  0  0  0  0
    4.7638   -4.0038    3.7871 H   0  0  0  0  0  0  0  0  0  0  0  0
    1.9275   -1.5027    2.4484 H   0  0  0  0  0  0  0  0  0  0  0  0
    0.5814   -4.4514    2.9262 H   0  0  0  0  0  0  0  0  0  0  0  0
    1.4053   -6.6918    3.6308 H   0  0  0  0  0  0  0  0  0  0  0  0
    2.7206   -7.5667    1.9221 H   0  0  0  0  0  0  0  0  0  0  0  0
    3.8574   -6.4194    0.2377 H   0  0  0  0  0  0  0  0  0  0  0  0
    2.1848   -5.4341   -0.8231 H   0  0  0  0  0  0  0  0  0  0  0  0
    5.5989   -5.2944    1.4208 H   0  0  0  0  0  0  0  0  0  0  0  0
    5.4716   -4.2735   -0.5920 H   0  0  0  0  0  0  0  0  0  0  0  0
    3.6356   -4.7067   -1.7489 H   0  0  0  0  0  0  0  0  0  0  0  0
    5.7832   -2.2793    0.6030 H   0  0  0  0  0  0  0  0  0  0  0  0
    3.9396   -1.1843   -1.5799 H   0  0  0  0  0  0  0  0  0  0  0  0
    5.6394   -1.5932   -1.8050 H   0  0  0  0  0  0  0  0  0  0  0  0
    5.1738   -0.3045   -0.6993 H   0  0  0  0  0  0  0  0  0  0  0  0
    4.2705   -1.4795    2.0176 H   0  0  0  0  0  0  0  0  0  0  0  0
    3.0527   -1.2089    0.7826 H   0  0  0  0  0  0  0  0  0  0  0  0
    2.1965   -3.2638    0.8653 H   0  0  0  0  0  0  0  0  0  0  0  0
    0.5118   -0.8822    4.6663 H   0  0  0  0  0  0  0  0  0  0  0  0
    0.2821    0.6010    6.9425 H   0  0  0  0  0  0  0  0  0  0  0  0
   -1.8349    0.4578    4.9475 H   0  0  0  0  0  0  0  0  0  0  0  0
    0.3736    0.8959    3.7555 H   0  0  0  0  0  0  0  0  0  0  0  0
    1.6236    1.8362    5.7457 H   0  0  0  0  0  0  0  0  0  0  0  0
    1.6875    2.8854    4.3577 H   0  0  0  0  0  0  0  0  0  0  0  0
    1.1472    4.1761    6.4201 H   0  0  0  0  0  0  0  0  0  0  0  0
   -0.8805    5.3342    5.5577 H   0  0  0  0  0  0  0  0  0  0  0  0
    0.2252    4.9662    4.2495 H   0  0  0  0  0  0  0  0  0  0  0  0
   -2.1034    4.3325    3.6147 H   0  0  0  0  0  0  0  0  0  0  0  0
   -0.2792    2.9489    2.6903 H   0  0  0  0  0  0  0  0  0  0  0  0
   -1.6914    1.9657    2.9803 H   0  0  0  0  0  0  0  0  0  0  0  0
   -2.9617    3.8831    5.9174 H   0  0  0  0  0  0  0  0  0  0  0  0
   -3.2736    2.5528    4.8356 H   0  0  0  0  0  0  0  0  0  0  0  0
   -2.8937    2.3497    7.8005 H   0  0  0  0  0  0  0  0  0  0  0  0
   -0.0129    2.3959    7.7075 H   0  0  0  0  0  0  0  0  0  0  0  0
   -1.0308    3.7993    7.5883 H   0  0  0  0  0  0  0  0  0  0  0  0
  1  2  2  0
  1 42  1  0
  1 43  1  0
  2  9  1  0
  2  3  1  0
  3 41  1  0
  3  4  1  0
  3 44  1  1
  4  5  1  0
  4 45  1  0
  4 46  1  0
  5  6  1  0
  5 28  1  0
  5 47  1  1
  6  7  1  0
  7 14  1  0
  7  8  1  1
  7  9  1  0
  8 48  1  0
  8 49  1  0
  8 50  1  0
  9 10  1  0
  9 51  1  1
 10 11  1  0
 10 12  1  0
 10 52  1  1
 11 53  1  0
 12 27  1  0
 12 13  1  6
 12 14  1  0
 13 54  1  0
 14 15  1  0
 14 55  1  6
 15 17  1  0
 15 16  1  0
 15 56  1  1
 16 17  1  0
 17 18  1  0
 17 57  1  6
 18 19  1  0
 18 20  1  0
 18 58  1  6
 19 59  1  0
 20 27  1  0
 20 21  1  1
 20 22  1  0
 21 60  1  0
 22 23  1  0
 22 24  1  0
 22 61  1  6
 23 62  1  0
 24 25  1  0
 24 26  1  0
 24 63  1  1
 25 64  1  0
 25 65  1  0
 25 66  1  0
 26 27  1  0
 26 67  1  0
 26 68  1  0
 27 69  1  6
 28 29  1  0
 28 41  1  0
 28 70  1  6
 29 30  1  0
 29 71  1  0
 30 38  1  0
 30 31  1  0
 30 72  1  6
 31 36  1  0
 31 32  1  0
 31 73  1  6
 32 33  1  0
 32 74  1  0
 32 75  1  0
 33 40  1  0
 33 34  1  0
 33 76  1  1
 34 35  1  0
 34 77  1  0
 34 78  1  0
 35 36  1  0
 35 37  1  0
 35 79  1  6
 36 80  1  0
 36 81  1  0
 37 38  1  0
 37 82  1  0
 37 83  1  0
 38 39  1  1
 38 40  1  0
 39 84  1  0
 40 85  1  0
 40 86  1  0
M  END
>  <i_m_ct_stereo_status>  (97) 
1

>  <s_m_source_file>  (97) 
/var/tmp/pbs.5076255.sched01/tmpvv81v907/0tx7qkblw.sdf

>  <i_m_source_file_index>  (97) 
41

>  <i_lp_mmshare_version>  (97) 
48012

>  <i_f3d_flags>  (97) 
0

>  <s_epik_input>  (97) 
W0NIMl0xW0NAQEhdKFtDSDJdMilbQ0gyXVtDQEBIXShbQ0gyXTMpW0NIMl1bQ0BIXTFbQ0BIXShbQ0BdMjNbT0hdKVtOSF1bQ0BASF0oTzQpW0NAQEhdKE81KVtDSDJdW0NASF00Qyg9W0NIMl0pW0NAQEhdKFtDQEBdNTZbQ0gzXSlbQ0BASF0oW09IXSlbQ0BdNyhbT0hdKVtDQEhdNltDQEhdOFtDQEhdKE84KVtDQEBIXShbT0hdKVtDQF05KFtPSF0pW0NAQEhdN1tDSDJdW0NASF0oW0NIM10pW0NAQEhdOVtPSF0=

>  <s_epik_cmdline>  (97) 
J2VwaWtfcHl0aG9uJywgJy1waHQnLCAnMi4wJywgJy1waCcsICc3LjAnLCAnLXRuJywgJzgnLCAnLW1hJywgJzIwMCcsICctaW1hZScsICc8aW5maWxlLm1hZT4nLCAnLW9tYWUnLCAnPG91dGZpbGUubWFlPic=

>  <r_epik_Ionization_Penalty>  (97) 
0.546007

>  <r_epik_Ionization_Penalty_Charging>  (97) 
0

>  <r_epik_Ionization_Penalty_Neutral>  (97) 
0.546007

>  <r_epik_State_Penalty>  (97) 
0.555973

>  <r_epik_Charging_Adjusted_Penalty>  (97) 
0.555973

>  <i_epik_Tot_Q>  (97) 
0

>  <i_epik_Tot_abs_Q>  (97) 
0

>  <s_epik_Chemistry_Notes>  (97) 
This compound contains an acetal/aminal-like group ( X-CH(R)-Y where X, Y are N, S, or O) that may be acid/base labile, releasing an aldehyde.

>  <s_lp_Force_Field>  (97) 
OPLS3e

>  <r_lp_Energy>  (97) 
66.9202

>  <b_lp_Chiralities_Consistent>  (97) 
1

>  <s_lp_Variant>  (97) 
20:0-2

>  <s_i_glide_gridfile>  (97) 
pfpi4k_grid

>  <i_i_glide_lignum>  (97) 
41

>  <i_i_glide_rotatable_bonds>  (97) 
8

>  <r_i_docking_score>  (97) 
-3.43104

>  <r_i_glide_ligand_efficiency>  (97) 
-0.083684

>  <r_i_glide_ligand_efficiency_sa>  (97) 
-0.288561

>  <r_i_glide_ligand_efficiency_ln>  (97) 
-0.727907

>  <r_i_glide_gscore>  (97) 
-3.43104

>  <r_i_glide_lipo>  (97) 
-0.0404943

>  <r_i_glide_hbond>  (97) 
-0.0503831

>  <r_i_glide_metal>  (97) 
-0

>  <r_i_glide_rewards>  (97) 
-0.5

>  <r_i_glide_evdw>  (97) 
-32.5409

>  <r_i_glide_ecoul>  (97) 
-8.21226

>  <r_i_glide_erotb>  (97) 
0.0306224

>  <r_i_glide_esite>  (97) 
-0.0119026

>  <r_i_glide_emodel>  (97) 
-52.7043

>  <r_i_glide_energy>  (97) 
-40.7532

>  <r_i_glide_einternal>  (97) 
4.76662

>  <r_i_glide_intrahb_reward>  (97) 
-0.5

>  <i_i_glide_confnum>  (97) 
4

>  <i_i_glide_posenum>  (97) 
22

>  <r_i_glide_eff_state_penalty>  (97) 
0

>  <ligand_id>  (97) 
20

>  <original_smiles>  (97) 
C=C1C2CC(OC3(C)C1C(O)C1(O)C3C3OC3C(O)C3(O)C(O)C(C)CC31)C(NC1C3CC4CC(C3)CC1(O)C4)O2

>  <smiles>  (97) 
[H]OC1([H])C2([H])OC2([H])C2([H])C3(C([H])([H])[H])OC4([H])C([H])(N([H])C5([H])C6([H])C([H])([H])C7([H])C([H])([H])C([H])(C6([H])[H])C([H])([H])C5(O[H])C7([H])[H])OC([H])(C(=C([H])[H])C3([H])C([H])(O[H])C2(O[H])C2([H])C([H])([H])C([H])(C([H])([H])[H])C([H])(O[H])C12O[H])C4([H])[H]

$$$$
21:0:0
     RDKit          3D

 67 71  0  0  1  0  0  0  0  0999 V2000
    4.6778   -1.5761   -0.2944 C   0  0  0  0  0  0  0  0  0  0  0  0
    4.8796   -2.9963   -0.8751 C   0  0  0  0  0  0  0  0  0  0  0  0
    4.1602   -3.0472   -2.2486 C   0  0  0  0  0  0  0  0  0  0  0  0
    6.3749   -3.2785   -1.1468 C   0  0  1  0  0  0  0  0  0  0  0  0
    7.0090   -2.2598   -1.8978 O   0  0  0  0  0  0  0  0  0  0  0  0
    7.2106   -3.5515    0.1105 C   0  0  0  0  0  0  0  0  0  0  0  0
    6.6006   -4.6717    0.9741 C   0  0  0  0  0  0  0  0  0  0  0  0
    5.1005   -4.4591    1.3611 C   0  0  1  0  0  0  0  0  0  0  0  0
    5.0407   -3.2680    2.3617 C   0  0  0  0  0  0  0  0  0  0  0  0
    4.3272   -4.1513    0.0379 C   0  0  1  0  0  0  0  0  0  0  0  0
    2.8146   -4.0763    0.3046 C   0  0  0  0  0  0  0  0  0  0  0  0
    2.2602   -5.4217    0.7712 C   0  0  0  0  0  0  0  0  0  0  0  0
    1.2455   -5.8627    0.2386 O   0  0  0  0  0  0  0  0  0  0  0  0
    2.9650   -6.1613    1.9375 C   0  0  1  0  0  0  0  0  0  0  0  0
    2.8796   -7.6870    1.5916 C   0  0  0  0  0  0  0  0  0  0  0  0
    4.5186   -5.8285    1.9511 C   0  0  2  0  0  0  0  0  0  0  0  0
    5.1755   -6.3873    3.2356 C   0  0  0  0  0  0  0  0  0  0  0  0
    4.4768   -5.9831    4.5315 C   0  0  0  0  0  0  0  0  0  0  0  0
    2.9775   -6.3440    4.5896 C   0  0  1  0  0  0  0  0  0  0  0  0
    2.2370   -5.6473    5.7737 C   0  0  1  0  0  0  0  0  0  0  0  0
    3.0733   -5.2024    6.9937 C   0  0  0  0  0  0  0  0  0  0  0  0
    3.2926   -3.7281    6.7318 C   0  0  0  0  0  0  0  0  0  0  0  0
    4.2912   -3.0962    7.0654 O   0  0  0  0  0  0  0  0  0  0  0  0
    2.1110   -3.1609    5.9739 C   0  0  1  0  0  0  0  0  0  0  0  0
    2.4277   -2.0232    5.1952 O   0  0  0  0  0  0  0  0  0  0  0  0
    1.5779   -4.3752    5.1775 C   0  0  1  0  0  0  0  0  0  0  0  0
    1.8864   -4.4385    3.6617 C   0  0  0  0  0  0  0  0  0  0  0  0
    2.1868   -5.9148    3.3187 C   0  0  1  0  0  0  0  0  0  0  0  0
    0.8121   -6.6555    3.3234 C   0  0  0  0  0  0  0  0  0  0  0  0
    4.7571   -0.8159   -1.0770 H   0  0  0  0  0  0  0  0  0  0  0  0
    5.4343   -1.3197    0.4458 H   0  0  0  0  0  0  0  0  0  0  0  0
    3.6948   -1.4651    0.1637 H   0  0  0  0  0  0  0  0  0  0  0  0
    4.1835   -4.0559   -2.6652 H   0  0  0  0  0  0  0  0  0  0  0  0
    4.6298   -2.3899   -2.9824 H   0  0  0  0  0  0  0  0  0  0  0  0
    3.1171   -2.7368   -2.1768 H   0  0  0  0  0  0  0  0  0  0  0  0
    6.3745   -4.1701   -1.7636 H   0  0  0  0  0  0  0  0  0  0  0  0
    7.6282   -2.6641   -2.4929 H   0  0  0  0  0  0  0  0  0  0  0  0
    8.2159   -3.8517   -0.1770 H   0  0  0  0  0  0  0  0  0  0  0  0
    7.3415   -2.6413    0.6852 H   0  0  0  0  0  0  0  0  0  0  0  0
    6.7073   -5.6029    0.4164 H   0  0  0  0  0  0  0  0  0  0  0  0
    7.2120   -4.7864    1.8690 H   0  0  0  0  0  0  0  0  0  0  0  0
    4.1025   -2.7211    2.3265 H   0  0  0  0  0  0  0  0  0  0  0  0
    5.8049   -2.5216    2.1674 H   0  0  0  0  0  0  0  0  0  0  0  0
    5.2399   -3.5546    3.3841 H   0  0  0  0  0  0  0  0  0  0  0  0
    4.4588   -5.0438   -0.5780 H   0  0  0  0  0  0  0  0  0  0  0  0
    2.5574   -3.3136    1.0326 H   0  0  0  0  0  0  0  0  0  0  0  0
    2.2761   -3.8220   -0.6064 H   0  0  0  0  0  0  0  0  0  0  0  0
    3.2789   -8.3300    2.3754 H   0  0  0  0  0  0  0  0  0  0  0  0
    3.4356   -7.9240    0.6815 H   0  0  0  0  0  0  0  0  0  0  0  0
    1.8669   -8.0326    1.3848 H   0  0  0  0  0  0  0  0  0  0  0  0
    4.9292   -6.5140    1.2082 H   0  0  0  0  0  0  0  0  0  0  0  0
    5.1754   -7.4772    3.1907 H   0  0  0  0  0  0  0  0  0  0  0  0
    6.2289   -6.1219    3.3000 H   0  0  0  0  0  0  0  0  0  0  0  0
    4.9904   -6.4938    5.3437 H   0  0  0  0  0  0  0  0  0  0  0  0
    4.6220   -4.9326    4.7292 H   0  0  0  0  0  0  0  0  0  0  0  0
    2.9185   -7.4248    4.7142 H   0  0  0  0  0  0  0  0  0  0  0  0
    1.4500   -6.3151    6.1253 H   0  0  0  0  0  0  0  0  0  0  0  0
    2.4799   -5.2860    7.9034 H   0  0  0  0  0  0  0  0  0  0  0  0
    3.9968   -5.7528    7.1534 H   0  0  0  0  0  0  0  0  0  0  0  0
    1.3744   -2.8548    6.7180 H   0  0  0  0  0  0  0  0  0  0  0  0
    3.1286   -2.2413    4.6034 H   0  0  0  0  0  0  0  0  0  0  0  0
    0.4976   -4.4265    5.3192 H   0  0  0  0  0  0  0  0  0  0  0  0
    1.0609   -4.0216    3.0783 H   0  0  0  0  0  0  0  0  0  0  0  0
    2.7600   -3.8412    3.4498 H   0  0  0  0  0  0  0  0  0  0  0  0
    0.1965   -6.4140    4.1852 H   0  0  0  0  0  0  0  0  0  0  0  0
    0.9322   -7.7372    3.3573 H   0  0  0  0  0  0  0  0  0  0  0  0
    0.2068   -6.4176    2.4518 H   0  0  0  0  0  0  0  0  0  0  0  0
  1  2  1  0
  1 30  1  0
  1 31  1  0
  1 32  1  0
  2 10  1  0
  2  3  1  0
  2  4  1  0
  3 33  1  0
  3 34  1  0
  3 35  1  0
  4  5  1  0
  4  6  1  0
  4 36  1  6
  5 37  1  0
  6  7  1  0
  6 38  1  0
  6 39  1  0
  7  8  1  0
  7 40  1  0
  7 41  1  0
  8 16  1  0
  8  9  1  1
  8 10  1  0
  9 42  1  0
  9 43  1  0
  9 44  1  0
 10 11  1  0
 10 45  1  6
 11 12  1  0
 11 46  1  0
 11 47  1  0
 12 13  2  0
 12 14  1  0
 14 28  1  0
 14 15  1  6
 14 16  1  0
 15 48  1  0
 15 49  1  0
 15 50  1  0
 16 17  1  0
 16 51  1  6
 17 18  1  0
 17 52  1  0
 17 53  1  0
 18 19  1  0
 18 54  1  0
 18 55  1  0
 19 28  1  0
 19 20  1  0
 19 56  1  1
 20 26  1  0
 20 21  1  0
 20 57  1  1
 21 22  1  0
 21 58  1  0
 21 59  1  0
 22 23  2  0
 22 24  1  0
 24 25  1  0
 24 26  1  0
 24 60  1  1
 25 61  1  0
 26 27  1  0
 26 62  1  6
 27 28  1  0
 27 63  1  0
 27 64  1  0
 28 29  1  6
 29 65  1  0
 29 66  1  0
 29 67  1  0
M  END
>  <i_m_ct_stereo_status>  (98) 
1

>  <s_m_source_file>  (98) 
/var/tmp/pbs.5076255.sched01/tmpvv81v907/0tx7qkblw.sdf

>  <i_m_source_file_index>  (98) 
42

>  <i_lp_mmshare_version>  (98) 
48012

>  <i_f3d_flags>  (98) 
0

>  <s_epik_input>  (98) 
W0NIMl0xW0NIMl1bQ0BIXShbT0hdKUMoW0NIM10pKFtDSDNdKVtDQEBIXShbQ0BdMTJbQ0gzXSlbQ0gyXUMoPU8pW0NAQF0zKFtDSDNdKVtDQEBIXTJbQ0gyXVtDSDJdW0NASF00W0NAQEhdNVtDQEBIXShbQ0BIXShbT0hdKUMoPU8pW0NIMl01KVtDSDJdW0NAQF0zNFtDSDNd

>  <s_epik_cmdline>  (98) 
J2VwaWtfcHl0aG9uJywgJy1waHQnLCAnMi4wJywgJy1waCcsICc3LjAnLCAnLXRuJywgJzgnLCAnLW1hJywgJzIwMCcsICctaW1hZScsICc8aW5maWxlLm1hZT4nLCAnLW9tYWUnLCAnPG91dGZpbGUubWFlPic=

>  <r_lp_tautomer_probability>  (98) 
1

>  <r_epik_Ionization_Penalty>  (98) 
1.65599e-06

>  <r_epik_Ionization_Penalty_Charging>  (98) 
0

>  <r_epik_Ionization_Penalty_Neutral>  (98) 
1.65599e-06

>  <r_epik_State_Penalty>  (98) 
-0

>  <r_epik_Charging_Adjusted_Penalty>  (98) 
0

>  <i_epik_Tot_Q>  (98) 
0

>  <i_epik_Tot_abs_Q>  (98) 
0

>  <s_lp_Force_Field>  (98) 
OPLS3e

>  <r_lp_Energy>  (98) 
71.9649

>  <b_lp_Chiralities_Consistent>  (98) 
1

>  <s_lp_Variant>  (98) 
21:0-1

>  <s_i_glide_gridfile>  (98) 
pfpi4k_grid

>  <i_i_glide_lignum>  (98) 
42

>  <i_i_glide_rotatable_bonds>  (98) 
2

>  <r_i_docking_score>  (98) 
-4.22293

>  <r_i_glide_ligand_efficiency>  (98) 
-0.145618

>  <r_i_glide_ligand_efficiency_sa>  (98) 
-0.447386

>  <r_i_glide_ligand_efficiency_ln>  (98) 
-0.966945

>  <r_i_glide_gscore>  (98) 
-4.22293

>  <r_i_glide_lipo>  (98) 
-0.503877

>  <r_i_glide_hbond>  (98) 
-0.57177

>  <r_i_glide_metal>  (98) 
-0

>  <r_i_glide_rewards>  (98) 
-0.664317

>  <r_i_glide_evdw>  (98) 
-23.2029

>  <r_i_glide_ecoul>  (98) 
-8.48572

>  <r_i_glide_erotb>  (98) 
0

>  <r_i_glide_esite>  (98) 
-0.0499679

>  <r_i_glide_emodel>  (98) 
-40.6541

>  <r_i_glide_energy>  (98) 
-31.6886

>  <r_i_glide_einternal>  (98) 
2.32763

>  <r_i_glide_intrahb_reward>  (98) 
-0

>  <i_i_glide_confnum>  (98) 
2

>  <i_i_glide_posenum>  (98) 
31

>  <r_i_glide_eff_state_penalty>  (98) 
0

>  <ligand_id>  (98) 
21

>  <original_smiles>  (98) 
CC1(C)C(O)CCC2(C)C1CC(=O)C1(C)C2CCC2C3CC(=O)C(O)C3CC21C

>  <smiles>  (98) 
[H]OC1([H])C(=O)C([H])([H])C2([H])C1([H])C([H])([H])C1(C([H])([H])[H])C2([H])C([H])([H])C([H])([H])C2([H])C1(C([H])([H])[H])C(=O)C([H])([H])C1([H])C(C([H])([H])[H])(C([H])([H])[H])C([H])(O[H])C([H])([H])C([H])([H])C21C([H])([H])[H]

$$$$
21:0:1
     RDKit          3D

 67 71  0  0  1  0  0  0  0  0999 V2000
    3.2724   -3.6026   -0.4418 C   0  0  0  0  0  0  0  0  0  0  0  0
    4.5927   -3.6508    0.3682 C   0  0  0  0  0  0  0  0  0  0  0  0
    5.7544   -3.8083   -0.6446 C   0  0  0  0  0  0  0  0  0  0  0  0
    4.8360   -2.3178    1.1336 C   0  0  1  0  0  0  0  0  0  0  0  0
    4.6896   -1.1874    0.2892 O   0  0  0  0  0  0  0  0  0  0  0  0
    3.9260   -2.1442    2.3546 C   0  0  0  0  0  0  0  0  0  0  0  0
    4.0177   -3.3476    3.3143 C   0  0  0  0  0  0  0  0  0  0  0  0
    3.7377   -4.7412    2.6627 C   0  0  1  0  0  0  0  0  0  0  0  0
    2.2279   -4.7886    2.2974 C   0  0  0  0  0  0  0  0  0  0  0  0
    4.6514   -4.8409    1.3971 C   0  0  1  0  0  0  0  0  0  0  0  0
    4.5424   -6.2434    0.7655 C   0  0  0  0  0  0  0  0  0  0  0  0
    5.0782   -7.3121    1.7082 C   0  0  0  0  0  0  0  0  0  0  0  0
    5.9034   -8.1165    1.2807 O   0  0  0  0  0  0  0  0  0  0  0  0
    4.5724   -7.3515    3.1741 C   0  0  1  0  0  0  0  0  0  0  0  0
    5.8125   -7.7675    4.0402 C   0  0  0  0  0  0  0  0  0  0  0  0
    4.1946   -5.8900    3.6742 C   0  0  2  0  0  0  0  0  0  0  0  0
    3.4799   -5.9553    5.0465 C   0  0  0  0  0  0  0  0  0  0  0  0
    2.2963   -6.9172    5.1004 C   0  0  0  0  0  0  0  0  0  0  0  0
    2.6260   -8.3674    4.6829 C   0  0  1  0  0  0  0  0  0  0  0  0
    1.3497   -9.2322    4.4491 C   0  0  1  0  0  0  0  0  0  0  0  0
    0.0452   -8.8013    5.1549 C   0  0  0  0  0  0  0  0  0  0  0  0
   -0.7058   -8.0573    4.0708 C   0  0  0  0  0  0  0  0  0  0  0  0
   -1.4568   -7.0977    4.2580 O   0  0  0  0  0  0  0  0  0  0  0  0
   -0.3487   -8.6416    2.7196 C   0  0  1  0  0  0  0  0  0  0  0  0
   -0.4804   -7.6996    1.6692 O   0  0  0  0  0  0  0  0  0  0  0  0
    1.0813   -9.1966    2.9241 C   0  0  1  0  0  0  0  0  0  0  0  0
    2.2642   -8.3963    2.3275 C   0  0  0  0  0  0  0  0  0  0  0  0
    3.4247   -8.4614    3.3482 C   0  0  1  0  0  0  0  0  0  0  0  0
    4.0241   -9.9009    3.2383 C   0  0  0  0  0  0  0  0  0  0  0  0
    3.3881   -3.0260   -1.3636 H   0  0  0  0  0  0  0  0  0  0  0  0
    2.4580   -3.1282    0.1011 H   0  0  0  0  0  0  0  0  0  0  0  0
    2.9437   -4.6004   -0.7295 H   0  0  0  0  0  0  0  0  0  0  0  0
    6.7068   -3.9660   -0.1358 H   0  0  0  0  0  0  0  0  0  0  0  0
    5.8682   -2.9254   -1.2769 H   0  0  0  0  0  0  0  0  0  0  0  0
    5.5869   -4.6479   -1.3198 H   0  0  0  0  0  0  0  0  0  0  0  0
    5.8649   -2.3122    1.4947 H   0  0  0  0  0  0  0  0  0  0  0  0
    3.7846   -1.1259    0.0209 H   0  0  0  0  0  0  0  0  0  0  0  0
    4.2271   -1.2472    2.8937 H   0  0  0  0  0  0  0  0  0  0  0  0
    2.8994   -1.9587    2.0492 H   0  0  0  0  0  0  0  0  0  0  0  0
    5.0205   -3.3344    3.7439 H   0  0  0  0  0  0  0  0  0  0  0  0
    3.3332   -3.1716    4.1442 H   0  0  0  0  0  0  0  0  0  0  0  0
    2.0096   -5.4304    1.4491 H   0  0  0  0  0  0  0  0  0  0  0  0
    1.8339   -3.8150    2.0236 H   0  0  0  0  0  0  0  0  0  0  0  0
    1.5934   -5.0797    3.1234 H   0  0  0  0  0  0  0  0  0  0  0  0
    5.6693   -4.7814    1.7840 H   0  0  0  0  0  0  0  0  0  0  0  0
    3.5297   -6.4999    0.4722 H   0  0  0  0  0  0  0  0  0  0  0  0
    5.1445   -6.3080   -0.1383 H   0  0  0  0  0  0  0  0  0  0  0  0
    5.5678   -7.8951    5.0950 H   0  0  0  0  0  0  0  0  0  0  0  0
    6.6153   -7.0291    3.9830 H   0  0  0  0  0  0  0  0  0  0  0  0
    6.2787   -8.6967    3.7164 H   0  0  0  0  0  0  0  0  0  0  0  0
    5.1553   -5.4742    3.9757 H   0  0  0  0  0  0  0  0  0  0  0  0
    4.1943   -6.2785    5.8043 H   0  0  0  0  0  0  0  0  0  0  0  0
    3.1585   -4.9733    5.3825 H   0  0  0  0  0  0  0  0  0  0  0  0
    1.9302   -6.9229    6.1257 H   0  0  0  0  0  0  0  0  0  0  0  0
    1.4732   -6.5392    4.5131 H   0  0  0  0  0  0  0  0  0  0  0  0
    3.2123   -8.8019    5.4956 H   0  0  0  0  0  0  0  0  0  0  0  0
    1.5709  -10.2571    4.7384 H   0  0  0  0  0  0  0  0  0  0  0  0
   -0.5410   -9.6830    5.4111 H   0  0  0  0  0  0  0  0  0  0  0  0
    0.1768   -8.2189    6.0645 H   0  0  0  0  0  0  0  0  0  0  0  0
   -1.0433   -9.4607    2.5237 H   0  0  0  0  0  0  0  0  0  0  0  0
   -0.3498   -8.1737    0.8572 H   0  0  0  0  0  0  0  0  0  0  0  0
    1.1126  -10.2109    2.5245 H   0  0  0  0  0  0  0  0  0  0  0  0
    2.5446   -8.7797    1.3438 H   0  0  0  0  0  0  0  0  0  0  0  0
    1.9648   -7.3659    2.1949 H   0  0  0  0  0  0  0  0  0  0  0  0
    3.2686  -10.6823    3.2208 H   0  0  0  0  0  0  0  0  0  0  0  0
    4.6622  -10.1431    4.0872 H   0  0  0  0  0  0  0  0  0  0  0  0
    4.6067  -10.0423    2.3300 H   0  0  0  0  0  0  0  0  0  0  0  0
  1  2  1  0
  1 30  1  0
  1 31  1  0
  1 32  1  0
  2 10  1  0
  2  3  1  0
  2  4  1  0
  3 33  1  0
  3 34  1  0
  3 35  1  0
  4  5  1  0
  4  6  1  0
  4 36  1  1
  5 37  1  0
  6  7  1  0
  6 38  1  0
  6 39  1  0
  7  8  1  0
  7 40  1  0
  7 41  1  0
  8 16  1  0
  8  9  1  6
  8 10  1  0
  9 42  1  0
  9 43  1  0
  9 44  1  0
 10 11  1  0
 10 45  1  1
 11 12  1  0
 11 46  1  0
 11 47  1  0
 12 13  2  0
 12 14  1  0
 14 28  1  0
 14 15  1  1
 14 16  1  0
 15 48  1  0
 15 49  1  0
 15 50  1  0
 16 17  1  0
 16 51  1  1
 17 18  1  0
 17 52  1  0
 17 53  1  0
 18 19  1  0
 18 54  1  0
 18 55  1  0
 19 28  1  0
 19 20  1  0
 19 56  1  1
 20 26  1  0
 20 21  1  0
 20 57  1  1
 21 22  1  0
 21 58  1  0
 21 59  1  0
 22 23  2  0
 22 24  1  0
 24 25  1  0
 24 26  1  0
 24 60  1  6
 25 61  1  0
 26 27  1  0
 26 62  1  6
 27 28  1  0
 27 63  1  0
 27 64  1  0
 28 29  1  1
 29 65  1  0
 29 66  1  0
 29 67  1  0
M  END
>  <i_m_ct_stereo_status>  (99) 
1

>  <s_m_source_file>  (99) 
/var/tmp/pbs.5076255.sched01/tmpvv81v907/0tx7qkblw.sdf

>  <i_m_source_file_index>  (99) 
42

>  <i_lp_mmshare_version>  (99) 
48012

>  <i_f3d_flags>  (99) 
0

>  <s_epik_input>  (99) 
W0NIMl0xW0NIMl1bQ0BIXShbT0hdKUMoW0NIM10pKFtDSDNdKVtDQEBIXShbQ0BdMTJbQ0gzXSlbQ0gyXUMoPU8pW0NAQF0zKFtDSDNdKVtDQEBIXTJbQ0gyXVtDSDJdW0NASF00W0NAQEhdNVtDQEBIXShbQ0BIXShbT0hdKUMoPU8pW0NIMl01KVtDSDJdW0NAQF0zNFtDSDNd

>  <s_epik_cmdline>  (99) 
J2VwaWtfcHl0aG9uJywgJy1waHQnLCAnMi4wJywgJy1waCcsICc3LjAnLCAnLXRuJywgJzgnLCAnLW1hJywgJzIwMCcsICctaW1hZScsICc8aW5maWxlLm1hZT4nLCAnLW9tYWUnLCAnPG91dGZpbGUubWFlPic=

>  <r_lp_tautomer_probability>  (99) 
1

>  <r_epik_Ionization_Penalty>  (99) 
1.65599e-06

>  <r_epik_Ionization_Penalty_Charging>  (99) 
0

>  <r_epik_Ionization_Penalty_Neutral>  (99) 
1.65599e-06

>  <r_epik_State_Penalty>  (99) 
-0

>  <r_epik_Charging_Adjusted_Penalty>  (99) 
0

>  <i_epik_Tot_Q>  (99) 
0

>  <i_epik_Tot_abs_Q>  (99) 
0

>  <s_lp_Force_Field>  (99) 
OPLS3e

>  <r_lp_Energy>  (99) 
71.9649

>  <b_lp_Chiralities_Consistent>  (99) 
1

>  <s_lp_Variant>  (99) 
21:0-1

>  <s_i_glide_gridfile>  (99) 
pfpi4k_grid

>  <i_i_glide_lignum>  (99) 
42

>  <i_i_glide_rotatable_bonds>  (99) 
2

>  <r_i_docking_score>  (99) 
-3.58849

>  <r_i_glide_ligand_efficiency>  (99) 
-0.123741

>  <r_i_glide_ligand_efficiency_sa>  (99) 
-0.380172

>  <r_i_glide_ligand_efficiency_ln>  (99) 
-0.821673

>  <r_i_glide_gscore>  (99) 
-3.58849

>  <r_i_glide_lipo>  (99) 
-0.268827

>  <r_i_glide_hbond>  (99) 
0

>  <r_i_glide_metal>  (99) 
-0

>  <r_i_glide_rewards>  (99) 
-0.750482

>  <r_i_glide_evdw>  (99) 
-29.8258

>  <r_i_glide_ecoul>  (99) 
-6.78283

>  <r_i_glide_erotb>  (99) 
0

>  <r_i_glide_esite>  (99) 
-0.0604668

>  <r_i_glide_emodel>  (99) 
-45.4312

>  <r_i_glide_energy>  (99) 
-36.6086

>  <r_i_glide_einternal>  (99) 
0.0298313

>  <r_i_glide_intrahb_reward>  (99) 
-0

>  <i_i_glide_confnum>  (99) 
2

>  <i_i_glide_posenum>  (99) 
25

>  <r_i_glide_eff_state_penalty>  (99) 
0

>  <ligand_id>  (99) 
21

>  <original_smiles>  (99) 
CC1(C)C(O)CCC2(C)C1CC(=O)C1(C)C2CCC2C3CC(=O)C(O)C3CC21C

>  <smiles>  (99) 
[H]OC1([H])C(=O)C([H])([H])C2([H])C1([H])C([H])([H])C1(C([H])([H])[H])C2([H])C([H])([H])C([H])([H])C2([H])C1(C([H])([H])[H])C(=O)C([H])([H])C1([H])C(C([H])([H])[H])(C([H])([H])[H])C([H])(O[H])C([H])([H])C([H])([H])C21C([H])([H])[H]

$$$$
21:0:2
     RDKit          3D

 67 71  0  0  1  0  0  0  0  0999 V2000
    4.1755   -1.6334    0.3864 C   0  0  0  0  0  0  0  0  0  0  0  0
    4.3621   -2.9456   -0.4231 C   0  0  0  0  0  0  0  0  0  0  0  0
    3.3869   -2.8841   -1.6291 C   0  0  0  0  0  0  0  0  0  0  0  0
    5.8015   -3.0598   -1.0029 C   0  0  1  0  0  0  0  0  0  0  0  0
    6.1826   -1.8622   -1.6487 O   0  0  0  0  0  0  0  0  0  0  0  0
    6.8647   -3.3899    0.0448 C   0  0  0  0  0  0  0  0  0  0  0  0
    6.5067   -4.6614    0.8380 C   0  0  0  0  0  0  0  0  0  0  0  0
    5.0969   -4.6442    1.5165 C   0  0  1  0  0  0  0  0  0  0  0  0
    5.1493   -3.5989    2.6682 C   0  0  0  0  0  0  0  0  0  0  0  0
    4.0656   -4.2478    0.4101 C   0  0  1  0  0  0  0  0  0  0  0  0
    2.6286   -4.3436    0.9596 C   0  0  0  0  0  0  0  0  0  0  0  0
    2.2661   -5.7795    1.3155 C   0  0  0  0  0  0  0  0  0  0  0  0
    1.2054   -6.2390    0.8923 O   0  0  0  0  0  0  0  0  0  0  0  0
    3.2327   -6.5976    2.2144 C   0  0  1  0  0  0  0  0  0  0  0  0
    3.1838   -8.0645    1.6675 C   0  0  0  0  0  0  0  0  0  0  0  0
    4.7354   -6.1240    1.9943 C   0  0  2  0  0  0  0  0  0  0  0  0
    5.6662   -6.7783    3.0440 C   0  0  0  0  0  0  0  0  0  0  0  0
    5.2056   -6.6142    4.4894 C   0  0  0  0  0  0  0  0  0  0  0  0
    3.7718   -7.1163    4.7684 C   0  0  1  0  0  0  0  0  0  0  0  0
    3.2277   -6.6523    6.1541 C   0  0  1  0  0  0  0  0  0  0  0  0
    4.2509   -6.2933    7.2542 C   0  0  0  0  0  0  0  0  0  0  0  0
    4.3231   -4.7837    7.1748 C   0  0  0  0  0  0  0  0  0  0  0  0
    5.3238   -4.1178    7.4320 O   0  0  0  0  0  0  0  0  0  0  0  0
    2.9802   -4.2343    6.7274 C   0  0  1  0  0  0  0  0  0  0  0  0
    3.0890   -2.9852    6.0652 O   0  0  0  0  0  0  0  0  0  0  0  0
    2.3857   -5.3812    5.8781 C   0  0  1  0  0  0  0  0  0  0  0  0
    2.3955   -5.2189    4.3408 C   0  0  0  0  0  0  0  0  0  0  0  0
    2.7239   -6.6028    3.7359 C   0  0  1  0  0  0  0  0  0  0  0  0
    1.4291   -7.4656    3.8842 C   0  0  0  0  0  0  0  0  0  0  0  0
    4.0443   -0.7705   -0.2715 H   0  0  0  0  0  0  0  0  0  0  0  0
    5.0359   -1.3980    1.0091 H   0  0  0  0  0  0  0  0  0  0  0  0
    3.2957   -1.6711    1.0289 H   0  0  0  0  0  0  0  0  0  0  0  0
    3.3801   -3.8257   -2.1808 H   0  0  0  0  0  0  0  0  0  0  0  0
    3.6480   -2.0934   -2.3338 H   0  0  0  0  0  0  0  0  0  0  0  0
    2.3621   -2.6746   -1.3173 H   0  0  0  0  0  0  0  0  0  0  0  0
    5.8123   -3.8557   -1.7487 H   0  0  0  0  0  0  0  0  0  0  0  0
    5.5247   -1.6900   -2.3036 H   0  0  0  0  0  0  0  0  0  0  0  0
    7.8179   -3.5464   -0.4582 H   0  0  0  0  0  0  0  0  0  0  0  0
    7.0281   -2.5426    0.7054 H   0  0  0  0  0  0  0  0  0  0  0  0
    6.5685   -5.4959    0.1364 H   0  0  0  0  0  0  0  0  0  0  0  0
    7.2895   -4.8283    1.5804 H   0  0  0  0  0  0  0  0  0  0  0  0
    4.1882   -3.1431    2.8869 H   0  0  0  0  0  0  0  0  0  0  0  0
    5.8105   -2.7654    2.4510 H   0  0  0  0  0  0  0  0  0  0  0  0
    5.5581   -3.9953    3.5871 H   0  0  0  0  0  0  0  0  0  0  0  0
    4.1370   -5.0383   -0.3386 H   0  0  0  0  0  0  0  0  0  0  0  0
    2.4696   -3.7055    1.8230 H   0  0  0  0  0  0  0  0  0  0  0  0
    1.9185   -4.0222    0.2023 H   0  0  0  0  0  0  0  0  0  0  0  0
    3.7717   -8.7617    2.2644 H   0  0  0  0  0  0  0  0  0  0  0  0
    3.5674   -8.1261    0.6475 H   0  0  0  0  0  0  0  0  0  0  0  0
    2.1770   -8.4765    1.6047 H   0  0  0  0  0  0  0  0  0  0  0  0
    5.0397   -6.6664    1.0993 H   0  0  0  0  0  0  0  0  0  0  0  0
    5.7312   -7.8482    2.8435 H   0  0  0  0  0  0  0  0  0  0  0  0
    6.6897   -6.4263    2.9530 H   0  0  0  0  0  0  0  0  0  0  0  0
    5.9001   -7.1725    5.1150 H   0  0  0  0  0  0  0  0  0  0  0  0
    5.3114   -5.5876    4.8061 H   0  0  0  0  0  0  0  0  0  0  0  0
    3.8122   -8.2072    4.7423 H   0  0  0  0  0  0  0  0  0  0  0  0
    2.5720   -7.4288    6.5417 H   0  0  0  0  0  0  0  0  0  0  0  0
    3.8503   -6.5493    8.2347 H   0  0  0  0  0  0  0  0  0  0  0  0
    5.2242   -6.7718    7.1594 H   0  0  0  0  0  0  0  0  0  0  0  0
    2.3837   -4.0871    7.6293 H   0  0  0  0  0  0  0  0  0  0  0  0
    2.2220   -2.6636    5.8636 H   0  0  0  0  0  0  0  0  0  0  0  0
    1.3605   -5.5516    6.2065 H   0  0  0  0  0  0  0  0  0  0  0  0
    1.4494   -4.8122    3.9791 H   0  0  0  0  0  0  0  0  0  0  0  0
    3.1709   -4.5173    4.0645 H   0  0  0  0  0  0  0  0  0  0  0  0
    0.9777   -7.3979    4.8699 H   0  0  0  0  0  0  0  0  0  0  0  0
    1.6274   -8.5268    3.7378 H   0  0  0  0  0  0  0  0  0  0  0  0
    0.6508   -7.1732    3.1829 H   0  0  0  0  0  0  0  0  0  0  0  0
  1  2  1  0
  1 30  1  0
  1 31  1  0
  1 32  1  0
  2 10  1  0
  2  3  1  0
  2  4  1  0
  3 33  1  0
  3 34  1  0
  3 35  1  0
  4  5  1  0
  4  6  1  0
  4 36  1  6
  5 37  1  0
  6  7  1  0
  6 38  1  0
  6 39  1  0
  7  8  1  0
  7 40  1  0
  7 41  1  0
  8 16  1  0
  8  9  1  1
  8 10  1  0
  9 42  1  0
  9 43  1  0
  9 44  1  0
 10 11  1  0
 10 45  1  6
 11 12  1  0
 11 46  1  0
 11 47  1  0
 12 13  2  0
 12 14  1  0
 14 28  1  0
 14 15  1  6
 14 16  1  0
 15 48  1  0
 15 49  1  0
 15 50  1  0
 16 17  1  0
 16 51  1  6
 17 18  1  0
 17 52  1  0
 17 53  1  0
 18 19  1  0
 18 54  1  0
 18 55  1  0
 19 28  1  0
 19 20  1  0
 19 56  1  1
 20 26  1  0
 20 21  1  0
 20 57  1  1
 21 22  1  0
 21 58  1  0
 21 59  1  0
 22 23  2  0
 22 24  1  0
 24 25  1  0
 24 26  1  0
 24 60  1  1
 25 61  1  0
 26 27  1  0
 26 62  1  1
 27 28  1  0
 27 63  1  0
 27 64  1  0
 28 29  1  6
 29 65  1  0
 29 66  1  0
 29 67  1  0
M  END
>  <i_m_ct_stereo_status>  (100) 
1

>  <s_m_source_file>  (100) 
/var/tmp/pbs.5076255.sched01/tmpvv81v907/0tx7qkblw.sdf

>  <i_m_source_file_index>  (100) 
42

>  <i_lp_mmshare_version>  (100) 
48012

>  <i_f3d_flags>  (100) 
0

>  <s_epik_input>  (100) 
W0NIMl0xW0NIMl1bQ0BIXShbT0hdKUMoW0NIM10pKFtDSDNdKVtDQEBIXShbQ0BdMTJbQ0gzXSlbQ0gyXUMoPU8pW0NAQF0zKFtDSDNdKVtDQEBIXTJbQ0gyXVtDSDJdW0NASF00W0NAQEhdNVtDQEBIXShbQ0BIXShbT0hdKUMoPU8pW0NIMl01KVtDSDJdW0NAQF0zNFtDSDNd

>  <s_epik_cmdline>  (100) 
J2VwaWtfcHl0aG9uJywgJy1waHQnLCAnMi4wJywgJy1waCcsICc3LjAnLCAnLXRuJywgJzgnLCAnLW1hJywgJzIwMCcsICctaW1hZScsICc8aW5maWxlLm1hZT4nLCAnLW9tYWUnLCAnPG91dGZpbGUubWFlPic=

>  <r_lp_tautomer_probability>  (100) 
1

>  <r_epik_Ionization_Penalty>  (100) 
1.65599e-06

>  <r_epik_Ionization_Penalty_Charging>  (100) 
0

>  <r_epik_Ionization_Penalty_Neutral>  (100) 
1.65599e-06

>  <r_epik_State_Penalty>  (100) 
-0

>  <r_epik_Charging_Adjusted_Penalty>  (100) 
0

>  <i_epik_Tot_Q>  (100) 
0

>  <i_epik_Tot_abs_Q>  (100) 
0

>  <s_lp_Force_Field>  (100) 
OPLS3e

>  <r_lp_Energy>  (100) 
71.9649

>  <b_lp_Chiralities_Consistent>  (100) 
1

>  <s_lp_Variant>  (100) 
21:0-1

>  <s_i_glide_gridfile>  (100) 
pfpi4k_grid

>  <i_i_glide_lignum>  (100) 
42

>  <i_i_glide_rotatable_bonds>  (100) 
2

>  <r_i_docking_score>  (100) 
-3.35557

>  <r_i_glide_ligand_efficiency>  (100) 
-0.115709

>  <r_i_glide_ligand_efficiency_sa>  (100) 
-0.355496

>  <r_i_glide_ligand_efficiency_ln>  (100) 
-0.768341

>  <r_i_glide_gscore>  (100) 
-3.35557

>  <r_i_glide_lipo>  (100) 
-0.429274

>  <r_i_glide_hbond>  (100) 
-0.292715

>  <r_i_glide_metal>  (100) 
-0

>  <r_i_glide_rewards>  (100) 
-0.664317

>  <r_i_glide_evdw>  (100) 
-23.73

>  <r_i_glide_ecoul>  (100) 
-5.02268

>  <r_i_glide_erotb>  (100) 
0

>  <r_i_glide_esite>  (100) 
-0.0293653

>  <r_i_glide_emodel>  (100) 
-36.876

>  <r_i_glide_energy>  (100) 
-28.7527

>  <r_i_glide_einternal>  (100) 
0.351565

>  <r_i_glide_intrahb_reward>  (100) 
-0

>  <i_i_glide_confnum>  (100) 
2

>  <i_i_glide_posenum>  (100) 
2

>  <r_i_glide_eff_state_penalty>  (100) 
0

>  <ligand_id>  (100) 
21

>  <original_smiles>  (100) 
CC1(C)C(O)CCC2(C)C1CC(=O)C1(C)C2CCC2C3CC(=O)C(O)C3CC21C

>  <smiles>  (100) 
[H]OC1([H])C(=O)C([H])([H])C2([H])C1([H])C([H])([H])C1(C([H])([H])[H])C2([H])C([H])([H])C([H])([H])C2([H])C1(C([H])([H])[H])C(=O)C([H])([H])C1([H])C(C([H])([H])[H])(C([H])([H])[H])C([H])(O[H])C([H])([H])C([H])([H])C21C([H])([H])[H]

$$$$
22:0:0
     RDKit          3D

 75 81  0  0  1  0  0  0  0  0999 V2000
    0.6640  -11.8033    3.4568 C   0  0  0  0  0  0  0  0  0  0  0  0
    1.5051  -10.9724    4.4263 C   0  0  0  0  0  0  0  0  0  0  0  0
    0.6210  -10.5359    5.6060 C   0  0  0  0  0  0  0  0  0  0  0  0
    2.5623  -11.7570    4.9428 O   0  0  0  0  0  0  0  0  0  0  0  0
    3.8357  -11.2478    4.3222 O   0  0  0  0  0  0  0  0  0  0  0  0
    3.7222   -9.8349    4.2308 C   0  0  1  0  0  0  0  0  0  0  0  0
    3.9896   -9.3047    5.6694 C   0  0  1  0  0  0  0  0  0  0  0  0
    5.4386   -9.5987    6.1511 C   0  0  0  0  0  0  0  0  0  0  0  0
    6.4506   -9.9084    5.0378 C   0  0  0  0  0  0  0  0  0  0  0  0
    6.1646   -9.1206    3.7551 C   0  0  1  0  0  0  0  0  0  0  0  0
    7.1360   -9.4570    2.7933 O   0  0  0  0  0  0  0  0  0  0  0  0
    4.7599   -9.4011    3.1657 C   0  0  2  0  0  0  0  0  0  0  0  0
    4.3034   -8.3134    2.1524 C   0  0  0  0  0  0  0  0  0  0  0  0
    4.1111   -6.8508    2.6440 C   0  0  2  0  0  0  0  0  0  0  0  0
    2.6469   -6.4773    3.0557 C   0  0  2  0  0  0  0  0  0  0  0  0
    2.5773   -4.9828    3.4990 C   0  0  0  0  0  0  0  0  0  0  0  0
    3.7239   -4.0771    3.0074 C   0  0  0  0  0  0  0  0  0  0  0  0
    4.1783   -4.3996    1.5702 C   0  0  1  0  0  0  0  0  0  0  0  0
    3.0295   -4.1814    0.5430 C   0  0  0  0  0  0  0  0  0  0  0  0
    5.4503   -3.6055    1.2221 C   0  0  0  0  0  0  0  0  0  0  0  0
    5.4037   -2.1981    0.9440 N   0  0  0  0  0  0  0  0  0  0  0  0
    4.2598   -1.4656    1.0737 N   0  0  0  0  0  0  0  0  0  0  0  0
    4.6129   -0.2653    0.6998 C   0  0  0  0  0  0  0  0  0  0  0  0
    5.9840   -0.2685    0.4027 C   0  0  0  0  0  0  0  0  0  0  0  0
    6.4714   -1.4762    0.5207 N   0  0  0  0  0  0  0  0  0  0  0  0
    6.5511   -4.3976    1.1656 C   0  0  0  0  0  0  0  0  0  0  0  0
    7.9681   -4.0825    0.8626 C   0  0  0  0  0  0  0  0  0  0  0  0
    8.8582   -4.9278    0.7701 O   0  0  0  0  0  0  0  0  0  0  0  0
    6.2184   -5.8295    1.5045 C   0  0  0  0  0  0  0  0  0  0  0  0
    4.6673   -5.8856    1.5347 C   0  0  1  0  0  0  0  0  0  0  0  0
    1.8020   -7.4016    4.0263 C   0  0  2  0  0  0  0  0  0  0  0  0
    0.3432   -6.8787    4.0115 C   0  0  0  0  0  0  0  0  0  0  0  0
    2.2139   -7.4230    5.5260 C   0  0  0  0  0  0  0  0  0  0  0  0
    3.6435   -7.8251    5.8888 C   0  0  0  0  0  0  0  0  0  0  0  0
    1.5291   -8.6754    3.4492 O   0  0  0  0  0  0  0  0  0  0  0  0
    2.2795   -9.8598    3.7038 C   0  0  2  0  0  0  0  0  0  0  0  0
   -0.1069  -11.1646    3.0300 H   0  0  0  0  0  0  0  0  0  0  0  0
    0.1992  -12.6381    3.9751 H   0  0  0  0  0  0  0  0  0  0  0  0
    1.2486  -12.2335    2.6481 H   0  0  0  0  0  0  0  0  0  0  0  0
   -0.1244   -9.7989    5.3186 H   0  0  0  0  0  0  0  0  0  0  0  0
    1.2131  -10.1628    6.4356 H   0  0  0  0  0  0  0  0  0  0  0  0
    0.0772  -11.3947    5.9980 H   0  0  0  0  0  0  0  0  0  0  0  0
    3.3495   -9.8552    6.3587 H   0  0  0  0  0  0  0  0  0  0  0  0
    5.8080   -8.7485    6.7241 H   0  0  0  0  0  0  0  0  0  0  0  0
    5.4286  -10.4326    6.8587 H   0  0  0  0  0  0  0  0  0  0  0  0
    7.4548   -9.6742    5.3949 H   0  0  0  0  0  0  0  0  0  0  0  0
    6.4379  -10.9782    4.8302 H   0  0  0  0  0  0  0  0  0  0  0  0
    6.2915   -8.0655    3.9764 H   0  0  0  0  0  0  0  0  0  0  0  0
    7.0214  -10.3688    2.5618 H   0  0  0  0  0  0  0  0  0  0  0  0
    4.8646  -10.2949    2.5454 H   0  0  0  0  0  0  0  0  0  0  0  0
    5.0728   -8.3211    1.3830 H   0  0  0  0  0  0  0  0  0  0  0  0
    3.4142   -8.6279    1.6088 H   0  0  0  0  0  0  0  0  0  0  0  0
    4.7366   -6.6712    3.5033 H   0  0  0  0  0  0  0  0  0  0  0  0
    2.1121   -6.5347    2.1116 H   0  0  0  0  0  0  0  0  0  0  0  0
    1.6388   -4.5555    3.1437 H   0  0  0  0  0  0  0  0  0  0  0  0
    2.5440   -4.8901    4.5821 H   0  0  0  0  0  0  0  0  0  0  0  0
    3.4175   -3.0315    3.0896 H   0  0  0  0  0  0  0  0  0  0  0  0
    4.5746   -4.1898    3.6863 H   0  0  0  0  0  0  0  0  0  0  0  0
    2.2254   -4.8990    0.6632 H   0  0  0  0  0  0  0  0  0  0  0  0
    3.3986   -4.2841   -0.4762 H   0  0  0  0  0  0  0  0  0  0  0  0
    2.5557   -3.2034    0.6203 H   0  0  0  0  0  0  0  0  0  0  0  0
    3.9016    0.5420    0.6263 H   0  0  0  0  0  0  0  0  0  0  0  0
    6.6163    0.5396    0.0779 H   0  0  0  0  0  0  0  0  0  0  0  0
    8.2155   -3.0343    0.7057 H   0  0  0  0  0  0  0  0  0  0  0  0
    6.6390   -6.5261    0.7774 H   0  0  0  0  0  0  0  0  0  0  0  0
    6.6555   -6.0582    2.4770 H   0  0  0  0  0  0  0  0  0  0  0  0
    4.3465   -6.2897    0.5751 H   0  0  0  0  0  0  0  0  0  0  0  0
    0.2326   -5.9004    4.4886 H   0  0  0  0  0  0  0  0  0  0  0  0
   -0.3177   -7.5686    4.5463 H   0  0  0  0  0  0  0  0  0  0  0  0
   -0.0358   -6.8031    2.9884 H   0  0  0  0  0  0  0  0  0  0  0  0
    2.0554   -6.4381    5.9613 H   0  0  0  0  0  0  0  0  0  0  0  0
    1.5165   -8.0385    6.0871 H   0  0  0  0  0  0  0  0  0  0  0  0
    3.7575   -7.6250    6.9557 H   0  0  0  0  0  0  0  0  0  0  0  0
    4.3684   -7.1647    5.4328 H   0  0  0  0  0  0  0  0  0  0  0  0
    2.3822  -10.2579    2.6941 H   0  0  0  0  0  0  0  0  0  0  0  0
  1  2  1  0
  1 37  1  0
  1 38  1  0
  1 39  1  0
  2 36  1  0
  2  3  1  0
  2  4  1  0
  3 40  1  0
  3 41  1  0
  3 42  1  0
  4  5  1  0
  6  5  1  1
  6 12  1  0
  6 36  1  0
  6  7  1  0
  7 34  1  0
  7  8  1  0
  7 43  1  1
  8  9  1  0
  8 44  1  0
  8 45  1  0
  9 10  1  0
  9 46  1  0
  9 47  1  0
 10 11  1  0
 10 12  1  0
 10 48  1  1
 11 49  1  0
 12 13  1  0
 12 50  1  6
 13 14  1  0
 13 51  1  0
 13 52  1  0
 14 30  1  0
 14 15  1  0
 14 53  1  1
 15 16  1  0
 15 31  1  0
 15 54  1  6
 16 17  1  0
 16 55  1  0
 16 56  1  0
 17 18  1  0
 17 57  1  0
 17 58  1  0
 18 30  1  0
 18 19  1  6
 18 20  1  0
 19 59  1  0
 19 60  1  0
 19 61  1  0
 20 21  1  0
 20 26  2  0
 21 25  1  0
 21 22  1  0
 22 23  2  0
 23 24  1  0
 23 62  1  0
 24 25  2  0
 24 63  1  0
 26 27  1  0
 26 29  1  0
 27 28  2  0
 27 64  1  0
 29 30  1  0
 29 65  1  0
 29 66  1  0
 30 67  1  6
 31 32  1  1
 31 33  1  0
 31 35  1  0
 32 68  1  0
 32 69  1  0
 32 70  1  0
 33 34  1  0
 33 71  1  0
 33 72  1  0
 34 73  1  0
 34 74  1  0
 35 36  1  0
 36 75  1  6
M  END
>  <i_m_ct_stereo_status>  (101) 
1

>  <s_m_source_file>  (101) 
/var/tmp/pbs.5076255.sched01/tmpvv81v907/0tx7qkblw.sdf

>  <i_m_source_file_index>  (101) 
43

>  <i_lp_mmshare_version>  (101) 
48012

>  <i_f3d_flags>  (101) 
0

>  <s_epik_input>  (101) 
W0NAQF0xMjNbQ0BIXTRbQ0gyXVtDSDJdW0NAQEhdKFtPSF0pW0NAQEhdMltDSDJdW0NAQEhdNVtDQEBIXShbQ0BdKFtDSDNdKShbQ0gyXVtDSDJdNClPW0NAQEhdM0MoW0NIM10pKFtDSDNdKU9PMSlbQ0gyXVtDSDJdW0NAXTYoW0NIM10pW0NASF01W0NIMl1DKFtDSF09Tyk9QzZuN25bY0hdW2NIXW43

>  <s_epik_cmdline>  (101) 
J2VwaWtfcHl0aG9uJywgJy1waHQnLCAnMi4wJywgJy1waCcsICc3LjAnLCAnLXRuJywgJzgnLCAnLW1hJywgJzIwMCcsICctaW1hZScsICc8aW5maWxlLm1hZT4nLCAnLW9tYWUnLCAnPG91dGZpbGUubWFlPic=

>  <r_lp_tautomer_probability>  (101) 
1

>  <r_epik_Ionization_Penalty>  (101) 
2.73514e-07

>  <r_epik_Ionization_Penalty_Charging>  (101) 
0

>  <r_epik_Ionization_Penalty_Neutral>  (101) 
2.73514e-07

>  <r_epik_State_Penalty>  (101) 
-0

>  <r_epik_Charging_Adjusted_Penalty>  (101) 
0

>  <i_epik_Tot_Q>  (101) 
0

>  <i_epik_Tot_abs_Q>  (101) 
0

>  <s_lp_Force_Field>  (101) 
OPLS3e

>  <r_lp_Energy>  (101) 
72.4284

>  <b_lp_Chiralities_Consistent>  (101) 
1

>  <s_lp_Variant>  (101) 
22:0-1

>  <s_i_glide_gridfile>  (101) 
pfpi4k_grid

>  <i_i_glide_lignum>  (101) 
43

>  <i_i_glide_rotatable_bonds>  (101) 
3

>  <r_i_docking_score>  (101) 
-2.25918

>  <r_i_glide_ligand_efficiency>  (101) 
-0.0627551

>  <r_i_glide_ligand_efficiency_sa>  (101) 
-0.207213

>  <r_i_glide_ligand_efficiency_ln>  (101) 
-0.492893

>  <r_i_glide_gscore>  (101) 
-2.25918

>  <r_i_glide_lipo>  (101) 
-0.592502

>  <r_i_glide_hbond>  (101) 
0

>  <r_i_glide_metal>  (101) 
-0

>  <r_i_glide_rewards>  (101) 
-0.297277

>  <r_i_glide_evdw>  (101) 
-26.5474

>  <r_i_glide_ecoul>  (101) 
-0.829458

>  <r_i_glide_erotb>  (101) 
0.0823821

>  <r_i_glide_esite>  (101) 
0

>  <r_i_glide_emodel>  (101) 
-30.6821

>  <r_i_glide_energy>  (101) 
-27.3768

>  <r_i_glide_einternal>  (101) 
0.213427

>  <r_i_glide_intrahb_reward>  (101) 
-0

>  <i_i_glide_confnum>  (101) 
4

>  <i_i_glide_posenum>  (101) 
8

>  <r_i_glide_eff_state_penalty>  (101) 
0

>  <ligand_id>  (101) 
22

>  <original_smiles>  (101) 
CC1(C)OOC23C4CCC(O)C2CC2C(CCC5(C)C(n6nccn6)=C(C=O)CC25)C(C)(CC4)OC13

>  <smiles>  (101) 
[H]OC1([H])C([H])([H])C([H])([H])C2([H])C([H])([H])C([H])([H])C3(C([H])([H])[H])OC4([H])C(C([H])([H])[H])(C([H])([H])[H])OOC42C1([H])C([H])([H])C1([H])C3([H])C([H])([H])C([H])([H])C2(C([H])([H])[H])C(n3nc([H])c([H])n3)=C(C([H])=O)C([H])([H])C12[H]

$$$$
22:0:1
     RDKit          3D

 75 81  0  0  1  0  0  0  0  0999 V2000
    1.9950   -9.0384    8.1912 C   0  0  0  0  0  0  0  0  0  0  0  0
    2.4744   -7.5686    8.1804 C   0  0  0  0  0  0  0  0  0  0  0  0
    1.3907   -6.6669    8.7997 C   0  0  0  0  0  0  0  0  0  0  0  0
    3.6217   -7.4092    8.9958 O   0  0  0  0  0  0  0  0  0  0  0  0
    4.7966   -7.1890    8.0745 O   0  0  0  0  0  0  0  0  0  0  0  0
    4.3495   -6.3648    7.0030 C   0  0  1  0  0  0  0  0  0  0  0  0
    4.3020   -4.9215    7.5866 C   0  0  1  0  0  0  0  0  0  0  0  0
    5.7094   -4.3878    7.9766 C   0  0  0  0  0  0  0  0  0  0  0  0
    6.8968   -5.1131    7.3227 C   0  0  0  0  0  0  0  0  0  0  0  0
    6.5837   -5.5926    5.9014 C   0  0  1  0  0  0  0  0  0  0  0  0
    7.7259   -6.2487    5.3877 O   0  0  0  0  0  0  0  0  0  0  0  0
    5.3696   -6.5619    5.8420 C   0  0  2  0  0  0  0  0  0  0  0  0
    4.7758   -6.6909    4.4090 C   0  0  0  0  0  0  0  0  0  0  0  0
    4.1618   -5.4370    3.7241 C   0  0  2  0  0  0  0  0  0  0  0  0
    2.6125   -5.2809    3.8965 C   0  0  2  0  0  0  0  0  0  0  0  0
    2.1115   -4.0083    3.1436 C   0  0  0  0  0  0  0  0  0  0  0  0
    3.0371   -3.4622    2.0390 C   0  0  0  0  0  0  0  0  0  0  0  0
    3.7304   -4.5707    1.2229 C   0  0  1  0  0  0  0  0  0  0  0  0
    2.6951   -5.4544    0.4772 C   0  0  0  0  0  0  0  0  0  0  0  0
    4.7926   -3.9714    0.2744 C   0  0  0  0  0  0  0  0  0  0  0  0
    4.4379   -3.2730   -0.9336 N   0  0  0  0  0  0  0  0  0  0  0  0
    3.1434   -2.9863   -1.2425 N   0  0  0  0  0  0  0  0  0  0  0  0
    3.2214   -2.3796   -2.3987 C   0  0  0  0  0  0  0  0  0  0  0  0
    4.5732   -2.2762   -2.7816 C   0  0  0  0  0  0  0  0  0  0  0  0
    5.3266   -2.8398   -1.8722 N   0  0  0  0  0  0  0  0  0  0  0  0
    6.0529   -4.2356    0.6986 C   0  0  0  0  0  0  0  0  0  0  0  0
    7.3648   -3.8606    0.1181 C   0  0  0  0  0  0  0  0  0  0  0  0
    8.4478   -4.1954    0.6007 O   0  0  0  0  0  0  0  0  0  0  0  0
    6.0526   -5.0279    1.9834 C   0  0  0  0  0  0  0  0  0  0  0  0
    4.5774   -5.4471    2.2062 C   0  0  1  0  0  0  0  0  0  0  0  0
    1.9170   -5.4161    5.3142 C   0  0  2  0  0  0  0  0  0  0  0  0
    0.3862   -5.4697    5.0776 C   0  0  0  0  0  0  0  0  0  0  0  0
    2.1357   -4.2573    6.3263 C   0  0  0  0  0  0  0  0  0  0  0  0
    3.5677   -3.8899    6.7188 C   0  0  0  0  0  0  0  0  0  0  0  0
    2.0403   -6.7278    5.8621 O   0  0  0  0  0  0  0  0  0  0  0  0
    3.0283   -7.1345    6.8057 C   0  0  2  0  0  0  0  0  0  0  0  0
    1.1312   -9.1749    7.5407 H   0  0  0  0  0  0  0  0  0  0  0  0
    1.6974   -9.3552    9.1888 H   0  0  0  0  0  0  0  0  0  0  0  0
    2.7659   -9.7300    7.8536 H   0  0  0  0  0  0  0  0  0  0  0  0
    0.5263   -6.5741    8.1448 H   0  0  0  0  0  0  0  0  0  0  0  0
    1.7681   -5.6732    9.0232 H   0  0  0  0  0  0  0  0  0  0  0  0
    1.0459   -7.0797    9.7474 H   0  0  0  0  0  0  0  0  0  0  0  0
    3.7472   -4.9532    8.5221 H   0  0  0  0  0  0  0  0  0  0  0  0
    5.7775   -3.3249    7.7433 H   0  0  0  0  0  0  0  0  0  0  0  0
    5.8322   -4.4449    9.0608 H   0  0  0  0  0  0  0  0  0  0  0  0
    7.7601   -4.4452    7.3088 H   0  0  0  0  0  0  0  0  0  0  0  0
    7.1781   -5.9641    7.9420 H   0  0  0  0  0  0  0  0  0  0  0  0
    6.4137   -4.7165    5.2801 H   0  0  0  0  0  0  0  0  0  0  0  0
    8.4429   -5.6301    5.3284 H   0  0  0  0  0  0  0  0  0  0  0  0
    5.7795   -7.5570    6.0345 H   0  0  0  0  0  0  0  0  0  0  0  0
    5.6073   -7.0442    3.8011 H   0  0  0  0  0  0  0  0  0  0  0  0
    4.0673   -7.5160    4.3462 H   0  0  0  0  0  0  0  0  0  0  0  0
    4.6177   -4.5468    4.1296 H   0  0  0  0  0  0  0  0  0  0  0  0
    2.2249   -6.1308    3.3367 H   0  0  0  0  0  0  0  0  0  0  0  0
    1.1426   -4.2309    2.6981 H   0  0  0  0  0  0  0  0  0  0  0  0
    1.9275   -3.1839    3.8284 H   0  0  0  0  0  0  0  0  0  0  0  0
    2.4682   -2.7973    1.3865 H   0  0  0  0  0  0  0  0  0  0  0  0
    3.7996   -2.8335    2.5054 H   0  0  0  0  0  0  0  0  0  0  0  0
    2.0745   -6.0453    1.1448 H   0  0  0  0  0  0  0  0  0  0  0  0
    3.2056   -6.1459   -0.1918 H   0  0  0  0  0  0  0  0  0  0  0  0
    2.0026   -4.8762   -0.1314 H   0  0  0  0  0  0  0  0  0  0  0  0
    2.3321   -2.0355   -2.9050 H   0  0  0  0  0  0  0  0  0  0  0  0
    5.0018   -1.8148   -3.6574 H   0  0  0  0  0  0  0  0  0  0  0  0
    7.3544   -3.2687   -0.7918 H   0  0  0  0  0  0  0  0  0  0  0  0
    6.7187   -5.8911    1.9318 H   0  0  0  0  0  0  0  0  0  0  0  0
    6.4064   -4.3781    2.7814 H   0  0  0  0  0  0  0  0  0  0  0  0
    4.4909   -6.4759    1.8561 H   0  0  0  0  0  0  0  0  0  0  0  0
   -0.0262   -4.5222    4.7226 H   0  0  0  0  0  0  0  0  0  0  0  0
   -0.1439   -5.7157    6.0011 H   0  0  0  0  0  0  0  0  0  0  0  0
    0.1234   -6.2421    4.3500 H   0  0  0  0  0  0  0  0  0  0  0  0
    1.6829   -3.3468    5.9355 H   0  0  0  0  0  0  0  0  0  0  0  0
    1.5542   -4.4435    7.2247 H   0  0  0  0  0  0  0  0  0  0  0  0
    3.4991   -2.9703    7.3012 H   0  0  0  0  0  0  0  0  0  0  0  0
    4.1508   -3.5969    5.8562 H   0  0  0  0  0  0  0  0  0  0  0  0
    3.3494   -8.0794    6.3674 H   0  0  0  0  0  0  0  0  0  0  0  0
  1  2  1  0
  1 37  1  0
  1 38  1  0
  1 39  1  0
  2 36  1  0
  2  3  1  0
  2  4  1  0
  3 40  1  0
  3 41  1  0
  3 42  1  0
  4  5  1  0
  6  5  1  1
  6 12  1  0
  6 36  1  0
  6  7  1  0
  7 34  1  0
  7  8  1  0
  7 43  1  1
  8  9  1  0
  8 44  1  0
  8 45  1  0
  9 10  1  0
  9 46  1  0
  9 47  1  0
 10 11  1  0
 10 12  1  0
 10 48  1  6
 11 49  1  0
 12 13  1  0
 12 50  1  1
 13 14  1  0
 13 51  1  0
 13 52  1  0
 14 30  1  0
 14 15  1  0
 14 53  1  1
 15 16  1  0
 15 31  1  0
 15 54  1  6
 16 17  1  0
 16 55  1  0
 16 56  1  0
 17 18  1  0
 17 57  1  0
 17 58  1  0
 18 30  1  0
 18 19  1  6
 18 20  1  0
 19 59  1  0
 19 60  1  0
 19 61  1  0
 20 21  1  0
 20 26  2  0
 21 25  1  0
 21 22  1  0
 22 23  2  0
 23 24  1  0
 23 62  1  0
 24 25  2  0
 24 63  1  0
 26 27  1  0
 26 29  1  0
 27 28  2  0
 27 64  1  0
 29 30  1  0
 29 65  1  0
 29 66  1  0
 30 67  1  6
 31 32  1  6
 31 33  1  0
 31 35  1  0
 32 68  1  0
 32 69  1  0
 32 70  1  0
 33 34  1  0
 33 71  1  0
 33 72  1  0
 34 73  1  0
 34 74  1  0
 35 36  1  0
 36 75  1  6
M  END
>  <i_m_ct_stereo_status>  (102) 
1

>  <s_m_source_file>  (102) 
/var/tmp/pbs.5076255.sched01/tmpvv81v907/0tx7qkblw.sdf

>  <i_m_source_file_index>  (102) 
43

>  <i_lp_mmshare_version>  (102) 
48012

>  <i_f3d_flags>  (102) 
0

>  <s_epik_input>  (102) 
W0NAQF0xMjNbQ0BIXTRbQ0gyXVtDSDJdW0NAQEhdKFtPSF0pW0NAQEhdMltDSDJdW0NAQEhdNVtDQEBIXShbQ0BdKFtDSDNdKShbQ0gyXVtDSDJdNClPW0NAQEhdM0MoW0NIM10pKFtDSDNdKU9PMSlbQ0gyXVtDSDJdW0NAXTYoW0NIM10pW0NASF01W0NIMl1DKFtDSF09Tyk9QzZuN25bY0hdW2NIXW43

>  <s_epik_cmdline>  (102) 
J2VwaWtfcHl0aG9uJywgJy1waHQnLCAnMi4wJywgJy1waCcsICc3LjAnLCAnLXRuJywgJzgnLCAnLW1hJywgJzIwMCcsICctaW1hZScsICc8aW5maWxlLm1hZT4nLCAnLW9tYWUnLCAnPG91dGZpbGUubWFlPic=

>  <r_lp_tautomer_probability>  (102) 
1

>  <r_epik_Ionization_Penalty>  (102) 
2.73514e-07

>  <r_epik_Ionization_Penalty_Charging>  (102) 
0

>  <r_epik_Ionization_Penalty_Neutral>  (102) 
2.73514e-07

>  <r_epik_State_Penalty>  (102) 
-0

>  <r_epik_Charging_Adjusted_Penalty>  (102) 
0

>  <i_epik_Tot_Q>  (102) 
0

>  <i_epik_Tot_abs_Q>  (102) 
0

>  <s_lp_Force_Field>  (102) 
OPLS3e

>  <r_lp_Energy>  (102) 
72.4284

>  <b_lp_Chiralities_Consistent>  (102) 
1

>  <s_lp_Variant>  (102) 
22:0-1

>  <s_i_glide_gridfile>  (102) 
pfpi4k_grid

>  <i_i_glide_lignum>  (102) 
43

>  <i_i_glide_rotatable_bonds>  (102) 
3

>  <r_i_docking_score>  (102) 
-1.80259

>  <r_i_glide_ligand_efficiency>  (102) 
-0.0500718

>  <r_i_glide_ligand_efficiency_sa>  (102) 
-0.165334

>  <r_i_glide_ligand_efficiency_ln>  (102) 
-0.393275

>  <r_i_glide_gscore>  (102) 
-1.80259

>  <r_i_glide_lipo>  (102) 
-0.312281

>  <r_i_glide_hbond>  (102) 
0

>  <r_i_glide_metal>  (102) 
-0

>  <r_i_glide_rewards>  (102) 
-0.240273

>  <r_i_glide_evdw>  (102) 
-28.3355

>  <r_i_glide_ecoul>  (102) 
0.56242

>  <r_i_glide_erotb>  (102) 
0.0823821

>  <r_i_glide_esite>  (102) 
0

>  <r_i_glide_emodel>  (102) 
-30.2619

>  <r_i_glide_energy>  (102) 
-27.7731

>  <r_i_glide_einternal>  (102) 
0.365117

>  <r_i_glide_intrahb_reward>  (102) 
-0

>  <i_i_glide_confnum>  (102) 
2

>  <i_i_glide_posenum>  (102) 
19

>  <r_i_glide_eff_state_penalty>  (102) 
0

>  <ligand_id>  (102) 
22

>  <original_smiles>  (102) 
CC1(C)OOC23C4CCC(O)C2CC2C(CCC5(C)C(n6nccn6)=C(C=O)CC25)C(C)(CC4)OC13

>  <smiles>  (102) 
[H]OC1([H])C([H])([H])C([H])([H])C2([H])C([H])([H])C([H])([H])C3(C([H])([H])[H])OC4([H])C(C([H])([H])[H])(C([H])([H])[H])OOC42C1([H])C([H])([H])C1([H])C3([H])C([H])([H])C([H])([H])C2(C([H])([H])[H])C(n3nc([H])c([H])n3)=C(C([H])=O)C([H])([H])C12[H]

$$$$
22:0:2
     RDKit          3D

 75 81  0  0  1  0  0  0  0  0999 V2000
    1.4566   -6.7950    9.0286 C   0  0  0  0  0  0  0  0  0  0  0  0
    2.0682   -5.4081    8.7276 C   0  0  0  0  0  0  0  0  0  0  0  0
    1.0783   -4.3053    9.1454 C   0  0  0  0  0  0  0  0  0  0  0  0
    3.2348   -5.1968    9.5020 O   0  0  0  0  0  0  0  0  0  0  0  0
    4.4128   -5.2732    8.5631 O   0  0  0  0  0  0  0  0  0  0  0  0
    4.0298   -4.6422    7.3456 C   0  0  1  0  0  0  0  0  0  0  0  0
    4.1216   -3.1125    7.6267 C   0  0  1  0  0  0  0  0  0  0  0  0
    5.5760   -2.6430    7.9104 C   0  0  0  0  0  0  0  0  0  0  0  0
    6.6832   -3.5916    7.4238 C   0  0  0  0  0  0  0  0  0  0  0  0
    6.3081   -4.3183    6.1276 C   0  0  1  0  0  0  0  0  0  0  0  0
    7.3744   -5.1761    5.7715 O   0  0  0  0  0  0  0  0  0  0  0  0
    5.0114   -5.1622    6.2547 C   0  0  2  0  0  0  0  0  0  0  0  0
    4.3937   -5.5210    4.8718 C   0  0  0  0  0  0  0  0  0  0  0  0
    3.8906   -4.3799    3.9429 C   0  0  2  0  0  0  0  0  0  0  0  0
    2.3667   -4.0482    4.0723 C   0  0  2  0  0  0  0  0  0  0  0  0
    1.9781   -2.9108    3.0766 C   0  0  0  0  0  0  0  0  0  0  0  0
    2.9302   -2.6921    1.8850 C   0  0  0  0  0  0  0  0  0  0  0  0
    3.5132   -4.0023    1.3138 C   0  0  1  0  0  0  0  0  0  0  0  0
    2.4100   -4.9353    0.7496 C   0  0  0  0  0  0  0  0  0  0  0  0
    4.6104   -3.6956    0.2728 C   0  0  0  0  0  0  0  0  0  0  0  0
    4.3050   -3.2164   -1.0524 N   0  0  0  0  0  0  0  0  0  0  0  0
    3.0273   -2.9792   -1.4586 N   0  0  0  0  0  0  0  0  0  0  0  0
    3.1549   -2.5952   -2.7028 C   0  0  0  0  0  0  0  0  0  0  0  0
    4.5218   -2.5697   -3.0415 C   0  0  0  0  0  0  0  0  0  0  0  0
    5.2322   -2.9598   -2.0144 N   0  0  0  0  0  0  0  0  0  0  0  0
    5.8458   -3.9807    0.7516 C   0  0  0  0  0  0  0  0  0  0  0  0
    7.1789   -3.8588    0.1172 C   0  0  0  0  0  0  0  0  0  0  0  0
    8.2335   -4.1696    0.6736 O   0  0  0  0  0  0  0  0  0  0  0  0
    5.7887   -4.4933    2.1700 C   0  0  0  0  0  0  0  0  0  0  0  0
    4.2861   -4.7329    2.4610 C   0  0  1  0  0  0  0  0  0  0  0  0
    1.6834   -3.8319    5.4859 C   0  0  2  0  0  0  0  0  0  0  0  0
    0.1555   -3.7913    5.2579 C   0  0  0  0  0  0  0  0  0  0  0  0
    2.0133   -2.5181    6.2447 C   0  0  0  0  0  0  0  0  0  0  0  0
    3.4759   -2.2120    6.5647 C   0  0  0  0  0  0  0  0  0  0  0  0
    1.6870   -5.0130    6.2863 O   0  0  0  0  0  0  0  0  0  0  0  0
    2.6436   -5.3123    7.2981 C   0  0  2  0  0  0  0  0  0  0  0  0
    0.5771   -6.9761    8.4113 H   0  0  0  0  0  0  0  0  0  0  0  0
    1.1438   -6.8748   10.0678 H   0  0  0  0  0  0  0  0  0  0  0  0
    2.1600   -7.6055    8.8417 H   0  0  0  0  0  0  0  0  0  0  0  0
    0.2182   -4.2675    8.4796 H   0  0  0  0  0  0  0  0  0  0  0  0
    1.5474   -3.3259    9.1669 H   0  0  0  0  0  0  0  0  0  0  0  0
    0.7079   -4.4855   10.1542 H   0  0  0  0  0  0  0  0  0  0  0  0
    3.5770   -2.9047    8.5457 H   0  0  0  0  0  0  0  0  0  0  0  0
    5.7382   -1.6593    7.4688 H   0  0  0  0  0  0  0  0  0  0  0  0
    5.7062   -2.4927    8.9848 H   0  0  0  0  0  0  0  0  0  0  0  0
    7.6038   -3.0226    7.2815 H   0  0  0  0  0  0  0  0  0  0  0  0
    6.8937   -4.3223    8.2038 H   0  0  0  0  0  0  0  0  0  0  0  0
    6.2087   -3.5747    5.3403 H   0  0  0  0  0  0  0  0  0  0  0  0
    8.1444   -4.6577    5.5758 H   0  0  0  0  0  0  0  0  0  0  0  0
    5.3311   -6.1318    6.6455 H   0  0  0  0  0  0  0  0  0  0  0  0
    5.1830   -6.0628    4.3531 H   0  0  0  0  0  0  0  0  0  0  0  0
    3.6125   -6.2734    4.9701 H   0  0  0  0  0  0  0  0  0  0  0  0
    4.4281   -3.4711    4.1653 H   0  0  0  0  0  0  0  0  0  0  0  0
    1.8938   -4.9521    3.6912 H   0  0  0  0  0  0  0  0  0  0  0  0
    0.9899   -3.1272    2.6791 H   0  0  0  0  0  0  0  0  0  0  0  0
    1.8779   -1.9517    3.5794 H   0  0  0  0  0  0  0  0  0  0  0  0
    2.4154   -2.1223    1.1081 H   0  0  0  0  0  0  0  0  0  0  0  0
    3.7512   -2.0526    2.2188 H   0  0  0  0  0  0  0  0  0  0  0  0
    1.7440   -5.3112    1.5222 H   0  0  0  0  0  0  0  0  0  0  0  0
    2.8396   -5.7930    0.2342 H   0  0  0  0  0  0  0  0  0  0  0  0
    1.7779   -4.4237    0.0322 H   0  0  0  0  0  0  0  0  0  0  0  0
    2.2867   -2.3479   -3.2960 H   0  0  0  0  0  0  0  0  0  0  0  0
    5.0015   -2.2791   -3.9592 H   0  0  0  0  0  0  0  0  0  0  0  0
    7.2119   -3.4797   -0.8987 H   0  0  0  0  0  0  0  0  0  0  0  0
    6.3733   -5.4050    2.3003 H   0  0  0  0  0  0  0  0  0  0  0  0
    6.2098   -3.7291    2.8221 H   0  0  0  0  0  0  0  0  0  0  0  0
    4.1033   -5.7997    2.3258 H   0  0  0  0  0  0  0  0  0  0  0  0
   -0.1757   -2.9036    4.7130 H   0  0  0  0  0  0  0  0  0  0  0  0
   -0.3877   -3.7987    6.2061 H   0  0  0  0  0  0  0  0  0  0  0  0
   -0.1810   -4.6668    4.6968 H   0  0  0  0  0  0  0  0  0  0  0  0
    1.6393   -1.6684    5.6745 H   0  0  0  0  0  0  0  0  0  0  0  0
    1.4265   -2.4667    7.1574 H   0  0  0  0  0  0  0  0  0  0  0  0
    3.4972   -1.1917    6.9494 H   0  0  0  0  0  0  0  0  0  0  0  0
    4.0719   -2.1540    5.6637 H   0  0  0  0  0  0  0  0  0  0  0  0
    2.8714   -6.3511    7.0589 H   0  0  0  0  0  0  0  0  0  0  0  0
  1  2  1  0
  1 37  1  0
  1 38  1  0
  1 39  1  0
  2 36  1  0
  2  3  1  0
  2  4  1  0
  3 40  1  0
  3 41  1  0
  3 42  1  0
  4  5  1  0
  6  5  1  1
  6 12  1  0
  6 36  1  0
  6  7  1  0
  7 34  1  0
  7  8  1  0
  7 43  1  1
  8  9  1  0
  8 44  1  0
  8 45  1  0
  9 10  1  0
  9 46  1  0
  9 47  1  0
 10 11  1  0
 10 12  1  0
 10 48  1  6
 11 49  1  0
 12 13  1  0
 12 50  1  1
 13 14  1  0
 13 51  1  0
 13 52  1  0
 14 30  1  0
 14 15  1  0
 14 53  1  1
 15 16  1  0
 15 31  1  0
 15 54  1  6
 16 17  1  0
 16 55  1  0
 16 56  1  0
 17 18  1  0
 17 57  1  0
 17 58  1  0
 18 30  1  0
 18 19  1  6
 18 20  1  0
 19 59  1  0
 19 60  1  0
 19 61  1  0
 20 21  1  0
 20 26  2  0
 21 25  1  0
 21 22  1  0
 22 23  2  0
 23 24  1  0
 23 62  1  0
 24 25  2  0
 24 63  1  0
 26 27  1  0
 26 29  1  0
 27 28  2  0
 27 64  1  0
 29 30  1  0
 29 65  1  0
 29 66  1  0
 30 67  1  6
 31 32  1  6
 31 33  1  0
 31 35  1  0
 32 68  1  0
 32 69  1  0
 32 70  1  0
 33 34  1  0
 33 71  1  0
 33 72  1  0
 34 73  1  0
 34 74  1  0
 35 36  1  0
 36 75  1  6
M  END
>  <i_m_ct_stereo_status>  (103) 
1

>  <s_m_source_file>  (103) 
/var/tmp/pbs.5076255.sched01/tmpvv81v907/0tx7qkblw.sdf

>  <i_m_source_file_index>  (103) 
43

>  <i_lp_mmshare_version>  (103) 
48012

>  <i_f3d_flags>  (103) 
0

>  <s_epik_input>  (103) 
W0NAQF0xMjNbQ0BIXTRbQ0gyXVtDSDJdW0NAQEhdKFtPSF0pW0NAQEhdMltDSDJdW0NAQEhdNVtDQEBIXShbQ0BdKFtDSDNdKShbQ0gyXVtDSDJdNClPW0NAQEhdM0MoW0NIM10pKFtDSDNdKU9PMSlbQ0gyXVtDSDJdW0NAXTYoW0NIM10pW0NASF01W0NIMl1DKFtDSF09Tyk9QzZuN25bY0hdW2NIXW43

>  <s_epik_cmdline>  (103) 
J2VwaWtfcHl0aG9uJywgJy1waHQnLCAnMi4wJywgJy1waCcsICc3LjAnLCAnLXRuJywgJzgnLCAnLW1hJywgJzIwMCcsICctaW1hZScsICc8aW5maWxlLm1hZT4nLCAnLW9tYWUnLCAnPG91dGZpbGUubWFlPic=

>  <r_lp_tautomer_probability>  (103) 
1

>  <r_epik_Ionization_Penalty>  (103) 
2.73514e-07

>  <r_epik_Ionization_Penalty_Charging>  (103) 
0

>  <r_epik_Ionization_Penalty_Neutral>  (103) 
2.73514e-07

>  <r_epik_State_Penalty>  (103) 
-0

>  <r_epik_Charging_Adjusted_Penalty>  (103) 
0

>  <i_epik_Tot_Q>  (103) 
0

>  <i_epik_Tot_abs_Q>  (103) 
0

>  <s_lp_Force_Field>  (103) 
OPLS3e

>  <r_lp_Energy>  (103) 
72.4284

>  <b_lp_Chiralities_Consistent>  (103) 
1

>  <s_lp_Variant>  (103) 
22:0-1

>  <s_i_glide_gridfile>  (103) 
pfpi4k_grid

>  <i_i_glide_lignum>  (103) 
43

>  <i_i_glide_rotatable_bonds>  (103) 
3

>  <r_i_docking_score>  (103) 
-1.55602

>  <r_i_glide_ligand_efficiency>  (103) 
-0.0432227

>  <r_i_glide_ligand_efficiency_sa>  (103) 
-0.142718

>  <r_i_glide_ligand_efficiency_ln>  (103) 
-0.339481

>  <r_i_glide_gscore>  (103) 
-1.55602

>  <r_i_glide_lipo>  (103) 
-0.288086

>  <r_i_glide_hbond>  (103) 
0

>  <r_i_glide_metal>  (103) 
-0

>  <r_i_glide_rewards>  (103) 
-0.194845

>  <r_i_glide_evdw>  (103) 
-27.4636

>  <r_i_glide_ecoul>  (103) 
1.45144

>  <r_i_glide_erotb>  (103) 
0.0823821

>  <r_i_glide_esite>  (103) 
0

>  <r_i_glide_emodel>  (103) 
-27.9593

>  <r_i_glide_energy>  (103) 
-26.0122

>  <r_i_glide_einternal>  (103) 
0.501265

>  <r_i_glide_intrahb_reward>  (103) 
-0

>  <i_i_glide_confnum>  (103) 
1

>  <i_i_glide_posenum>  (103) 
2

>  <r_i_glide_eff_state_penalty>  (103) 
0

>  <ligand_id>  (103) 
22

>  <original_smiles>  (103) 
CC1(C)OOC23C4CCC(O)C2CC2C(CCC5(C)C(n6nccn6)=C(C=O)CC25)C(C)(CC4)OC13

>  <smiles>  (103) 
[H]OC1([H])C([H])([H])C([H])([H])C2([H])C([H])([H])C([H])([H])C3(C([H])([H])[H])OC4([H])C(C([H])([H])[H])(C([H])([H])[H])OOC42C1([H])C([H])([H])C1([H])C3([H])C([H])([H])C([H])([H])C2(C([H])([H])[H])C(n3nc([H])c([H])n3)=C(C([H])=O)C([H])([H])C12[H]

$$$$
23:0:0
     RDKit          3D

 67 73  0  0  1  0  0  0  0  0999 V2000
    3.1312   -2.9164   -1.4006 C   0  0  0  0  0  0  0  0  0  0  0  0
    4.1798   -3.8894   -0.8431 C   0  0  0  0  0  0  0  0  0  0  0  0
    3.5801   -4.9320    0.1157 C   0  0  0  0  0  0  0  0  0  0  0  0
    2.6436   -4.6150    0.8434 O   0  0  0  0  0  0  0  0  0  0  0  0
    4.1945   -6.2776    0.1018 C   0  0  0  0  0  0  0  0  0  0  0  0
    3.8410   -7.3122    0.8972 C   0  0  0  0  0  0  0  0  0  0  0  0
    2.8032   -7.4170    1.9657 C   0  0  2  0  0  0  0  0  0  0  0  0
    3.2369   -6.9489    3.3474 C   0  0  0  0  0  0  0  0  0  0  0  0
    2.2171   -7.1691    4.5137 C   0  0  2  0  0  0  0  0  0  0  0  0
    2.7969   -7.3898    5.9999 C   0  0  1  0  0  0  0  0  0  0  0  0
    4.3454   -7.2250    6.0356 C   0  0  0  0  0  0  0  0  0  0  0  0
    2.2628   -6.2375    6.9323 C   0  0  0  0  0  0  0  0  0  0  0  0
    1.9740   -6.7802    8.3008 C   0  0  2  0  0  0  0  0  0  0  0  0
    0.7344   -7.6198    8.0766 C   0  0  1  0  0  0  0  0  0  0  0  0
    1.2978   -8.9571    7.6806 C   0  0  1  0  0  0  0  0  0  0  0  0
    0.2273   -9.8533    7.5088 O   0  0  0  0  0  0  0  0  0  0  0  0
    2.3373   -8.8832    6.4666 C   0  0  2  0  0  0  0  0  0  0  0  0
    3.5173   -9.7638    6.9968 C   0  0  0  0  0  0  0  0  0  0  0  0
    1.8544   -9.4471    5.1072 C   0  0  1  0  0  0  0  0  0  0  0  0
    0.8641  -10.4583    4.8607 O   0  0  0  0  0  0  0  0  0  0  0  0
    1.4735  -10.4558    3.5336 C   0  0  1  0  0  0  0  0  0  0  0  0
    1.0188   -9.0974    3.0065 C   0  0  2  0  0  0  0  0  0  0  0  0
    1.7878   -8.5217    1.8362 C   0  0  1  0  0  0  0  0  0  0  0  0
    1.4625   -7.1520    1.5412 O   0  0  0  0  0  0  0  0  0  0  0  0
    1.2025   -8.3211    4.3176 C   0  0  2  0  0  0  0  0  0  0  0  0
   -0.2149   -7.8567    4.7738 C   0  0  0  0  0  0  0  0  0  0  0  0
    2.7921  -10.3912    4.2777 C   0  0  1  0  0  0  0  0  0  0  0  0
    3.9226   -9.8999    3.5896 O   0  0  0  0  0  0  0  0  0  0  0  0
    0.8277   -6.6888    9.2645 C   0  0  0  0  0  0  0  0  0  0  0  0
    0.9012   -7.3059   10.6511 C   0  0  0  0  0  0  0  0  0  0  0  0
    0.0372   -5.3886    9.2952 C   0  0  0  0  0  0  0  0  0  0  0  0
    3.5898   -2.1846   -2.0645 H   0  0  0  0  0  0  0  0  0  0  0  0
    2.6314   -2.3662   -0.6040 H   0  0  0  0  0  0  0  0  0  0  0  0
    2.3698   -3.4488   -1.9703 H   0  0  0  0  0  0  0  0  0  0  0  0
    4.6806   -4.3953   -1.6694 H   0  0  0  0  0  0  0  0  0  0  0  0
    4.9464   -3.3337   -0.3036 H   0  0  0  0  0  0  0  0  0  0  0  0
    4.9908   -6.4334   -0.6119 H   0  0  0  0  0  0  0  0  0  0  0  0
    4.3997   -8.2239    0.7478 H   0  0  0  0  0  0  0  0  0  0  0  0
    4.1978   -7.4204    3.5351 H   0  0  0  0  0  0  0  0  0  0  0  0
    3.4631   -5.8846    3.2834 H   0  0  0  0  0  0  0  0  0  0  0  0
    1.6476   -6.2382    4.4834 H   0  0  0  0  0  0  0  0  0  0  0  0
    4.7386   -7.2916    7.0503 H   0  0  0  0  0  0  0  0  0  0  0  0
    4.6504   -6.2521    5.6504 H   0  0  0  0  0  0  0  0  0  0  0  0
    4.8775   -7.9742    5.4505 H   0  0  0  0  0  0  0  0  0  0  0  0
    2.9866   -5.4313    7.0314 H   0  0  0  0  0  0  0  0  0  0  0  0
    1.3617   -5.7676    6.5362 H   0  0  0  0  0  0  0  0  0  0  0  0
    2.8584   -7.2208    8.7626 H   0  0  0  0  0  0  0  0  0  0  0  0
   -0.0530   -7.2871    7.4155 H   0  0  0  0  0  0  0  0  0  0  0  0
    1.7958   -9.3395    8.5703 H   0  0  0  0  0  0  0  0  0  0  0  0
    0.5841  -10.7473    7.4253 H   0  0  0  0  0  0  0  0  0  0  0  0
    3.1685  -10.7731    7.2291 H   0  0  0  0  0  0  0  0  0  0  0  0
    3.9487   -9.3630    7.9170 H   0  0  0  0  0  0  0  0  0  0  0  0
    4.3399   -9.8887    6.2931 H   0  0  0  0  0  0  0  0  0  0  0  0
    1.2916  -11.3538    2.9473 H   0  0  0  0  0  0  0  0  0  0  0  0
   -0.0287   -9.1800    2.7026 H   0  0  0  0  0  0  0  0  0  0  0  0
    1.8451   -9.1664    0.9621 H   0  0  0  0  0  0  0  0  0  0  0  0
   -0.7771   -8.6294    5.2999 H   0  0  0  0  0  0  0  0  0  0  0  0
   -0.8175   -7.5645    3.9121 H   0  0  0  0  0  0  0  0  0  0  0  0
   -0.1969   -6.9634    5.3868 H   0  0  0  0  0  0  0  0  0  0  0  0
    3.0433  -11.3295    4.7773 H   0  0  0  0  0  0  0  0  0  0  0  0
    4.1269  -10.5288    2.9116 H   0  0  0  0  0  0  0  0  0  0  0  0
   -0.0980   -7.5435   11.0189 H   0  0  0  0  0  0  0  0  0  0  0  0
    1.3835   -6.6261   11.3548 H   0  0  0  0  0  0  0  0  0  0  0  0
    1.4757   -8.2311   10.6235 H   0  0  0  0  0  0  0  0  0  0  0  0
   -0.9821   -5.5517    9.6427 H   0  0  0  0  0  0  0  0  0  0  0  0
   -0.0136   -4.9558    8.2961 H   0  0  0  0  0  0  0  0  0  0  0  0
    0.5172   -4.6642    9.9553 H   0  0  0  0  0  0  0  0  0  0  0  0
  1  2  1  0
  1 32  1  0
  1 33  1  0
  1 34  1  0
  2  3  1  0
  2 35  1  0
  2 36  1  0
  3  4  2  0
  3  5  1  0
  5  6  2  3
  5 37  1  0
  6  7  1  0
  6 38  1  0
  7 23  1  0
  7 24  1  6
  7  8  1  0
  8  9  1  0
  8 39  1  0
  8 40  1  0
  9 25  1  0
  9 10  1  0
  9 41  1  1
 10 17  1  0
 10 11  1  6
 10 12  1  0
 11 42  1  0
 11 43  1  0
 11 44  1  0
 12 13  1  0
 12 45  1  0
 12 46  1  0
 13 29  1  0
 13 14  1  0
 13 47  1  1
 14 15  1  0
 14 29  1  0
 14 48  1  6
 15 16  1  0
 15 17  1  0
 15 49  1  1
 16 50  1  0
 17 18  1  1
 17 19  1  0
 18 51  1  0
 18 52  1  0
 18 53  1  0
 19 25  1  0
 19 27  1  0
 19 20  1  1
 20 21  1  0
 21 22  1  0
 21 27  1  0
 21 54  1  6
 22 23  1  0
 22 25  1  0
 22 55  1  6
 23 24  1  0
 23 56  1  6
 25 26  1  1
 26 57  1  0
 26 58  1  0
 26 59  1  0
 27 28  1  0
 27 60  1  1
 28 61  1  0
 29 30  1  0
 29 31  1  0
 30 62  1  0
 30 63  1  0
 30 64  1  0
 31 65  1  0
 31 66  1  0
 31 67  1  0
M  END
>  <i_m_ct_stereo_status>  (104) 
1

>  <s_m_source_file>  (104) 
/var/tmp/pbs.5076255.sched01/tmpvv81v907/0tx7qkblw.sdf

>  <i_m_source_file_index>  (104) 
44

>  <i_lp_mmshare_version>  (104) 
48012

>  <i_f3d_flags>  (104) 
0

>  <s_epik_input>  (104) 
W0NIM11bQ0gyXUMoPU8pL1tDSF09W0NIXS9bQ0BdKE8xKShbQ0gyXTIpW0NASF0xW0NAQEhdKFtDQEhdKE8zKVtDQEhdNFtPSF0pW0NAXTUoW0NIM10pW0NASF0yW0NAXShbQ0gzXSkoW0NAQF02KFtDQF0zNDUpW0NIM10pW0NIMl1bQ0BASF03W0NAQEhdKFtDQEhdNltPSF0pQzcoW0NIM10pW0NIM10=

>  <s_epik_cmdline>  (104) 
J2VwaWtfcHl0aG9uJywgJy1waHQnLCAnMi4wJywgJy1waCcsICc3LjAnLCAnLXRuJywgJzgnLCAnLW1hJywgJzIwMCcsICctaW1hZScsICc8aW5maWxlLm1hZT4nLCAnLW9tYWUnLCAnPG91dGZpbGUubWFlPic=

>  <r_lp_tautomer_probability>  (104) 
1

>  <r_epik_Ionization_Penalty>  (104) 
4.03722e-07

>  <r_epik_Ionization_Penalty_Charging>  (104) 
0

>  <r_epik_Ionization_Penalty_Neutral>  (104) 
4.03722e-07

>  <r_epik_State_Penalty>  (104) 
-0

>  <r_epik_Charging_Adjusted_Penalty>  (104) 
0

>  <i_epik_Tot_Q>  (104) 
0

>  <i_epik_Tot_abs_Q>  (104) 
0

>  <s_lp_Force_Field>  (104) 
OPLS3e

>  <r_lp_Energy>  (104) 
140.634

>  <b_lp_Chiralities_Consistent>  (104) 
1

>  <s_lp_Variant>  (104) 
23:0-1

>  <s_i_glide_gridfile>  (104) 
pfpi4k_grid

>  <i_i_glide_lignum>  (104) 
44

>  <i_i_glide_rotatable_bonds>  (104) 
5

>  <r_i_docking_score>  (104) 
-2.4737

>  <r_i_glide_ligand_efficiency>  (104) 
-0.0797969

>  <r_i_glide_ligand_efficiency_sa>  (104) 
-0.250673

>  <r_i_glide_ligand_efficiency_ln>  (104) 
-0.557896

>  <r_i_glide_gscore>  (104) 
-2.4737

>  <r_i_glide_lipo>  (104) 
-0.261244

>  <r_i_glide_hbond>  (104) 
0

>  <r_i_glide_metal>  (104) 
-0

>  <r_i_glide_rewards>  (104) 
-0.487084

>  <r_i_glide_evdw>  (104) 
-20.9538

>  <r_i_glide_ecoul>  (104) 
-5.83021

>  <r_i_glide_erotb>  (104) 
0.216316

>  <r_i_glide_esite>  (104) 
-0.0194731

>  <r_i_glide_emodel>  (104) 
-30.1805

>  <r_i_glide_energy>  (104) 
-26.784

>  <r_i_glide_einternal>  (104) 
2.72727

>  <r_i_glide_intrahb_reward>  (104) 
-0

>  <i_i_glide_confnum>  (104) 
3

>  <i_i_glide_posenum>  (104) 
1

>  <r_i_glide_eff_state_penalty>  (104) 
0

>  <ligand_id>  (104) 
23

>  <original_smiles>  (104) 
CCC(=O)C=CC12CC3C4(C)CC5C(C(O)C4(C)C46OC(C(C1O2)C34C)C6O)C5(C)C

>  <smiles>  (104) 
[H]OC1([H])C2([H])OC13C1(C([H])([H])[H])C2([H])C2([H])OC2(C([H])=C([H])C(=O)C([H])([H])C([H])([H])[H])C([H])([H])C1([H])C1(C([H])([H])[H])C([H])([H])C2([H])C([H])(C([H])(O[H])C31C([H])([H])[H])C2(C([H])([H])[H])C([H])([H])[H]

$$$$
23:0:1
     RDKit          3D

 67 73  0  0  1  0  0  0  0  0999 V2000
    5.0959   -3.0300   -0.9331 C   0  0  0  0  0  0  0  0  0  0  0  0
    3.6141   -3.4366   -0.8912 C   0  0  0  0  0  0  0  0  0  0  0  0
    3.3077   -4.4414    0.2261 C   0  0  0  0  0  0  0  0  0  0  0  0
    2.6129   -4.0760    1.1710 O   0  0  0  0  0  0  0  0  0  0  0  0
    3.8778   -5.8012    0.1055 C   0  0  0  0  0  0  0  0  0  0  0  0
    3.5641   -6.8586    0.8808 C   0  0  0  0  0  0  0  0  0  0  0  0
    2.5935   -7.0035    2.0074 C   0  0  2  0  0  0  0  0  0  0  0  0
    3.1503   -6.7181    3.3932 C   0  0  0  0  0  0  0  0  0  0  0  0
    2.1982   -6.9973    4.6024 C   0  0  2  0  0  0  0  0  0  0  0  0
    2.8588   -7.4108    6.0113 C   0  0  1  0  0  0  0  0  0  0  0  0
    4.4136   -7.3512    5.9504 C   0  0  0  0  0  0  0  0  0  0  0  0
    2.4707   -6.3329    7.0932 C   0  0  0  0  0  0  0  0  0  0  0  0
    2.2344   -6.9978    8.4165 C   0  0  2  0  0  0  0  0  0  0  0  0
    0.9259   -7.7284    8.1981 C   0  0  1  0  0  0  0  0  0  0  0  0
    1.3597   -9.0503    7.6296 C   0  0  1  0  0  0  0  0  0  0  0  0
    0.2247   -9.8565    7.4476 O   0  0  0  0  0  0  0  0  0  0  0  0
    2.3256   -8.9134    6.3569 C   0  0  2  0  0  0  0  0  0  0  0  0
    3.4716   -9.9200    6.7065 C   0  0  0  0  0  0  0  0  0  0  0  0
    1.7160   -9.2977    4.9855 C   0  0  1  0  0  0  0  0  0  0  0  0
    0.6392  -10.2094    4.7104 O   0  0  0  0  0  0  0  0  0  0  0  0
    1.1601  -10.1059    3.3493 C   0  0  1  0  0  0  0  0  0  0  0  0
    0.7705   -8.6722    2.9985 C   0  0  2  0  0  0  0  0  0  0  0  0
    1.4958   -8.0242    1.8398 C   0  0  1  0  0  0  0  0  0  0  0  0
    1.2477   -6.6118    1.7083 O   0  0  0  0  0  0  0  0  0  0  0  0
    1.0958   -8.0553    4.3650 C   0  0  2  0  0  0  0  0  0  0  0  0
   -0.2514   -7.5521    4.9671 C   0  0  0  0  0  0  0  0  0  0  0  0
    2.5251  -10.2065    3.9959 C   0  0  1  0  0  0  0  0  0  0  0  0
    3.6408   -9.7205    3.2792 O   0  0  0  0  0  0  0  0  0  0  0  0
    1.1633   -6.9388    9.4654 C   0  0  0  0  0  0  0  0  0  0  0  0
    1.2859   -7.7028   10.7727 C   0  0  0  0  0  0  0  0  0  0  0  0
    0.4640   -5.6066    9.6871 C   0  0  0  0  0  0  0  0  0  0  0  0
    5.2717   -2.3044   -1.7270 H   0  0  0  0  0  0  0  0  0  0  0  0
    5.7443   -3.8848   -1.1259 H   0  0  0  0  0  0  0  0  0  0  0  0
    5.4052   -2.5758    0.0084 H   0  0  0  0  0  0  0  0  0  0  0  0
    2.9948   -2.5499   -0.7416 H   0  0  0  0  0  0  0  0  0  0  0  0
    3.3154   -3.8597   -1.8512 H   0  0  0  0  0  0  0  0  0  0  0  0
    4.6117   -5.9459   -0.6791 H   0  0  0  0  0  0  0  0  0  0  0  0
    4.1022   -7.7688    0.6594 H   0  0  0  0  0  0  0  0  0  0  0  0
    4.0860   -7.2697    3.4590 H   0  0  0  0  0  0  0  0  0  0  0  0
    3.4501   -5.6696    3.4209 H   0  0  0  0  0  0  0  0  0  0  0  0
    1.6967   -6.0329    4.7079 H   0  0  0  0  0  0  0  0  0  0  0  0
    4.8668   -7.5508    6.9222 H   0  0  0  0  0  0  0  0  0  0  0  0
    4.7609   -6.3645    5.6449 H   0  0  0  0  0  0  0  0  0  0  0  0
    4.8510   -8.0667    5.2549 H   0  0  0  0  0  0  0  0  0  0  0  0
    3.2556   -5.5908    7.2201 H   0  0  0  0  0  0  0  0  0  0  0  0
    1.5814   -5.7664    6.8134 H   0  0  0  0  0  0  0  0  0  0  0  0
    3.1134   -7.5412    8.7639 H   0  0  0  0  0  0  0  0  0  0  0  0
    0.1217   -7.2778    7.6347 H   0  0  0  0  0  0  0  0  0  0  0  0
    1.8912   -9.5560    8.4373 H   0  0  0  0  0  0  0  0  0  0  0  0
    0.5267  -10.7645    7.3309 H   0  0  0  0  0  0  0  0  0  0  0  0
    3.0677  -10.9239    6.8598 H   0  0  0  0  0  0  0  0  0  0  0  0
    3.9894   -9.6482    7.6285 H   0  0  0  0  0  0  0  0  0  0  0  0
    4.2348  -10.0213    5.9362 H   0  0  0  0  0  0  0  0  0  0  0  0
    0.8741  -10.9213    2.6894 H   0  0  0  0  0  0  0  0  0  0  0  0
   -0.2991   -8.6557    2.7675 H   0  0  0  0  0  0  0  0  0  0  0  0
    1.4530   -8.5755    0.9058 H   0  0  0  0  0  0  0  0  0  0  0  0
   -0.8272   -8.3441    5.4480 H   0  0  0  0  0  0  0  0  0  0  0  0
   -0.8885   -7.1305    4.1865 H   0  0  0  0  0  0  0  0  0  0  0  0
   -0.1309   -6.7334    5.6678 H   0  0  0  0  0  0  0  0  0  0  0  0
    2.7406  -11.2056    4.3806 H   0  0  0  0  0  0  0  0  0  0  0  0
    3.8068  -10.3335    2.5763 H   0  0  0  0  0  0  0  0  0  0  0  0
    0.2978   -7.9122   11.1851 H   0  0  0  0  0  0  0  0  0  0  0  0
    1.8601   -7.1331   11.5051 H   0  0  0  0  0  0  0  0  0  0  0  0
    1.7898   -8.6547   10.6093 H   0  0  0  0  0  0  0  0  0  0  0  0
   -0.5405   -5.7517   10.0866 H   0  0  0  0  0  0  0  0  0  0  0  0
    0.3808   -5.0642    8.7461 H   0  0  0  0  0  0  0  0  0  0  0  0
    1.0330   -4.9874   10.3820 H   0  0  0  0  0  0  0  0  0  0  0  0
  1  2  1  0
  1 32  1  0
  1 33  1  0
  1 34  1  0
  2  3  1  0
  2 35  1  0
  2 36  1  0
  3  4  2  0
  3  5  1  0
  5  6  2  3
  5 37  1  0
  6  7  1  0
  6 38  1  0
  7 23  1  0
  7 24  1  6
  7  8  1  0
  8  9  1  0
  8 39  1  0
  8 40  1  0
  9 25  1  0
  9 10  1  0
  9 41  1  1
 10 17  1  0
 10 11  1  6
 10 12  1  0
 11 42  1  0
 11 43  1  0
 11 44  1  0
 12 13  1  0
 12 45  1  0
 12 46  1  0
 13 29  1  0
 13 14  1  0
 13 47  1  1
 14 15  1  0
 14 29  1  0
 14 48  1  6
 15 16  1  0
 15 17  1  0
 15 49  1  1
 16 50  1  0
 17 18  1  1
 17 19  1  0
 18 51  1  0
 18 52  1  0
 18 53  1  0
 19 25  1  0
 19 27  1  0
 19 20  1  1
 20 21  1  0
 21 22  1  0
 21 27  1  0
 21 54  1  6
 22 23  1  0
 22 25  1  0
 22 55  1  6
 23 24  1  0
 23 56  1  6
 25 26  1  1
 26 57  1  0
 26 58  1  0
 26 59  1  0
 27 28  1  0
 27 60  1  1
 28 61  1  0
 29 30  1  0
 29 31  1  0
 30 62  1  0
 30 63  1  0
 30 64  1  0
 31 65  1  0
 31 66  1  0
 31 67  1  0
M  END
>  <i_m_ct_stereo_status>  (105) 
1

>  <s_m_source_file>  (105) 
/var/tmp/pbs.5076255.sched01/tmpvv81v907/0tx7qkblw.sdf

>  <i_m_source_file_index>  (105) 
44

>  <i_lp_mmshare_version>  (105) 
48012

>  <i_f3d_flags>  (105) 
0

>  <s_epik_input>  (105) 
W0NIM11bQ0gyXUMoPU8pL1tDSF09W0NIXS9bQ0BdKE8xKShbQ0gyXTIpW0NASF0xW0NAQEhdKFtDQEhdKE8zKVtDQEhdNFtPSF0pW0NAXTUoW0NIM10pW0NASF0yW0NAXShbQ0gzXSkoW0NAQF02KFtDQF0zNDUpW0NIM10pW0NIMl1bQ0BASF03W0NAQEhdKFtDQEhdNltPSF0pQzcoW0NIM10pW0NIM10=

>  <s_epik_cmdline>  (105) 
J2VwaWtfcHl0aG9uJywgJy1waHQnLCAnMi4wJywgJy1waCcsICc3LjAnLCAnLXRuJywgJzgnLCAnLW1hJywgJzIwMCcsICctaW1hZScsICc8aW5maWxlLm1hZT4nLCAnLW9tYWUnLCAnPG91dGZpbGUubWFlPic=

>  <r_lp_tautomer_probability>  (105) 
1

>  <r_epik_Ionization_Penalty>  (105) 
4.03722e-07

>  <r_epik_Ionization_Penalty_Charging>  (105) 
0

>  <r_epik_Ionization_Penalty_Neutral>  (105) 
4.03722e-07

>  <r_epik_State_Penalty>  (105) 
-0

>  <r_epik_Charging_Adjusted_Penalty>  (105) 
0

>  <i_epik_Tot_Q>  (105) 
0

>  <i_epik_Tot_abs_Q>  (105) 
0

>  <s_lp_Force_Field>  (105) 
OPLS3e

>  <r_lp_Energy>  (105) 
140.634

>  <b_lp_Chiralities_Consistent>  (105) 
1

>  <s_lp_Variant>  (105) 
23:0-1

>  <s_i_glide_gridfile>  (105) 
pfpi4k_grid

>  <i_i_glide_lignum>  (105) 
44

>  <i_i_glide_rotatable_bonds>  (105) 
5

>  <r_i_docking_score>  (105) 
-2.39491

>  <r_i_glide_ligand_efficiency>  (105) 
-0.0772553

>  <r_i_glide_ligand_efficiency_sa>  (105) 
-0.242688

>  <r_i_glide_ligand_efficiency_ln>  (105) 
-0.540127

>  <r_i_glide_gscore>  (105) 
-2.39491

>  <r_i_glide_lipo>  (105) 
-0.227324

>  <r_i_glide_hbond>  (105) 
0

>  <r_i_glide_metal>  (105) 
-0

>  <r_i_glide_rewards>  (105) 
-0.487084

>  <r_i_glide_evdw>  (105) 
-20.1621

>  <r_i_glide_ecoul>  (105) 
-5.82053

>  <r_i_glide_erotb>  (105) 
0.216316

>  <r_i_glide_esite>  (105) 
-0.0156359

>  <r_i_glide_emodel>  (105) 
-28.9365

>  <r_i_glide_energy>  (105) 
-25.9827

>  <r_i_glide_einternal>  (105) 
3.17071

>  <r_i_glide_intrahb_reward>  (105) 
-0

>  <i_i_glide_confnum>  (105) 
3

>  <i_i_glide_posenum>  (105) 
19

>  <r_i_glide_eff_state_penalty>  (105) 
0

>  <ligand_id>  (105) 
23

>  <original_smiles>  (105) 
CCC(=O)C=CC12CC3C4(C)CC5C(C(O)C4(C)C46OC(C(C1O2)C34C)C6O)C5(C)C

>  <smiles>  (105) 
[H]OC1([H])C2([H])OC13C1(C([H])([H])[H])C2([H])C2([H])OC2(C([H])=C([H])C(=O)C([H])([H])C([H])([H])[H])C([H])([H])C1([H])C1(C([H])([H])[H])C([H])([H])C2([H])C([H])(C([H])(O[H])C31C([H])([H])[H])C2(C([H])([H])[H])C([H])([H])[H]

$$$$
23:0:2
     RDKit          3D

 67 73  0  0  1  0  0  0  0  0999 V2000
    6.2322   -0.8010    0.6486 C   0  0  0  0  0  0  0  0  0  0  0  0
    6.5762   -2.2285    0.2015 C   0  0  0  0  0  0  0  0  0  0  0  0
    5.8087   -3.3010    0.9921 C   0  0  0  0  0  0  0  0  0  0  0  0
    5.2683   -3.0002    2.0556 O   0  0  0  0  0  0  0  0  0  0  0  0
    5.8173   -4.6685    0.4433 C   0  0  0  0  0  0  0  0  0  0  0  0
    4.9631   -5.6608    0.7870 C   0  0  0  0  0  0  0  0  0  0  0  0
    3.8114   -5.6895    1.7352 C   0  0  2  0  0  0  0  0  0  0  0  0
    4.0849   -6.3502    3.0797 C   0  0  0  0  0  0  0  0  0  0  0  0
    2.8616   -6.5197    4.0408 C   0  0  2  0  0  0  0  0  0  0  0  0
    2.8563   -7.7563    5.0707 C   0  0  1  0  0  0  0  0  0  0  0  0
    4.1955   -8.5491    5.0038 C   0  0  0  0  0  0  0  0  0  0  0  0
    2.8089   -7.1954    6.5404 C   0  0  0  0  0  0  0  0  0  0  0  0
    1.9568   -8.0864    7.3947 C   0  0  2  0  0  0  0  0  0  0  0  0
    0.5540   -7.8030    6.8920 C   0  0  1  0  0  0  0  0  0  0  0  0
    0.3944   -8.7758    5.7563 C   0  0  1  0  0  0  0  0  0  0  0  0
   -0.9147   -8.6590    5.2270 O   0  0  0  0  0  0  0  0  0  0  0  0
    1.5760   -8.6951    4.6796 C   0  0  2  0  0  0  0  0  0  0  0  0
    1.9454  -10.2029    4.4825 C   0  0  0  0  0  0  0  0  0  0  0  0
    1.2127   -8.0791    3.3076 C   0  0  1  0  0  0  0  0  0  0  0  0
   -0.0734   -8.0183    2.6567 O   0  0  0  0  0  0  0  0  0  0  0  0
    0.7503   -7.6950    1.4955 C   0  0  1  0  0  0  0  0  0  0  0  0
    1.2343   -6.3074    1.8772 C   0  0  2  0  0  0  0  0  0  0  0  0
    2.4338   -5.7721    1.1350 C   0  0  1  0  0  0  0  0  0  0  0  0
    2.9418   -4.5535    1.6987 O   0  0  0  0  0  0  0  0  0  0  0  0
    1.4742   -6.5830    3.3639 C   0  0  2  0  0  0  0  0  0  0  0  0
    0.4564   -5.7120    4.1645 C   0  0  0  0  0  0  0  0  0  0  0  0
    1.6725   -8.7857    1.9884 C   0  0  1  0  0  0  0  0  0  0  0  0
    3.0138   -8.7586    1.5423 O   0  0  0  0  0  0  0  0  0  0  0  0
    0.8454   -7.8719    8.3758 C   0  0  0  0  0  0  0  0  0  0  0  0
    0.2545   -9.0237    9.1619 C   0  0  0  0  0  0  0  0  0  0  0  0
    0.8719   -6.6084    9.2209 C   0  0  0  0  0  0  0  0  0  0  0  0
    6.7916   -0.0554    0.0841 H   0  0  0  0  0  0  0  0  0  0  0  0
    6.4739   -0.6560    1.6993 H   0  0  0  0  0  0  0  0  0  0  0  0
    5.1740   -0.5878    0.5087 H   0  0  0  0  0  0  0  0  0  0  0  0
    6.3648   -2.3472   -0.8623 H   0  0  0  0  0  0  0  0  0  0  0  0
    7.6440   -2.4070    0.3338 H   0  0  0  0  0  0  0  0  0  0  0  0
    6.5800   -4.8839   -0.2907 H   0  0  0  0  0  0  0  0  0  0  0  0
    5.1315   -6.6040    0.2921 H   0  0  0  0  0  0  0  0  0  0  0  0
    4.5734   -7.2953    2.8546 H   0  0  0  0  0  0  0  0  0  0  0  0
    4.8472   -5.7595    3.5881 H   0  0  0  0  0  0  0  0  0  0  0  0
    2.8957   -5.5809    4.5993 H   0  0  0  0  0  0  0  0  0  0  0  0
    4.2351   -9.3383    5.7538 H   0  0  0  0  0  0  0  0  0  0  0  0
    5.0496   -7.8991    5.1923 H   0  0  0  0  0  0  0  0  0  0  0  0
    4.3725   -9.0285    4.0425 H   0  0  0  0  0  0  0  0  0  0  0  0
    3.8007   -7.1451    6.9832 H   0  0  0  0  0  0  0  0  0  0  0  0
    2.4210   -6.1764    6.5855 H   0  0  0  0  0  0  0  0  0  0  0  0
    2.3363   -9.1095    7.4242 H   0  0  0  0  0  0  0  0  0  0  0  0
    0.2482   -6.7997    6.6288 H   0  0  0  0  0  0  0  0  0  0  0  0
    0.3904   -9.7633    6.2183 H   0  0  0  0  0  0  0  0  0  0  0  0
   -1.3022   -9.5341    5.1690 H   0  0  0  0  0  0  0  0  0  0  0  0
    1.0718  -10.7724    4.1547 H   0  0  0  0  0  0  0  0  0  0  0  0
    2.2862  -10.6670    5.4118 H   0  0  0  0  0  0  0  0  0  0  0  0
    2.7201  -10.3891    3.7387 H   0  0  0  0  0  0  0  0  0  0  0  0
    0.2747   -7.8522    0.5321 H   0  0  0  0  0  0  0  0  0  0  0  0
    0.4153   -5.6129    1.7237 H   0  0  0  0  0  0  0  0  0  0  0  0
    2.3438   -5.7546    0.0505 H   0  0  0  0  0  0  0  0  0  0  0  0
   -0.5361   -6.1585    4.2426 H   0  0  0  0  0  0  0  0  0  0  0  0
    0.3336   -4.7337    3.6952 H   0  0  0  0  0  0  0  0  0  0  0  0
    0.7970   -5.4675    5.1643 H   0  0  0  0  0  0  0  0  0  0  0  0
    1.2537   -9.7825    1.8370 H   0  0  0  0  0  0  0  0  0  0  0  0
    3.3706   -9.6311    1.6394 H   0  0  0  0  0  0  0  0  0  0  0  0
   -0.7693   -8.7881    9.4491 H   0  0  0  0  0  0  0  0  0  0  0  0
    0.8373   -9.2280   10.0614 H   0  0  0  0  0  0  0  0  0  0  0  0
    0.2436   -9.9197    8.5429 H   0  0  0  0  0  0  0  0  0  0  0  0
   -0.1345   -6.3193    9.5250 H   0  0  0  0  0  0  0  0  0  0  0  0
    1.3031   -5.7858    8.6520 H   0  0  0  0  0  0  0  0  0  0  0  0
    1.4831   -6.7566   10.1124 H   0  0  0  0  0  0  0  0  0  0  0  0
  1  2  1  0
  1 32  1  0
  1 33  1  0
  1 34  1  0
  2  3  1  0
  2 35  1  0
  2 36  1  0
  3  4  2  0
  3  5  1  0
  5  6  2  3
  5 37  1  0
  6  7  1  0
  6 38  1  0
  7 23  1  0
  7 24  1  1
  7  8  1  0
  8  9  1  0
  8 39  1  0
  8 40  1  0
  9 25  1  0
  9 10  1  0
  9 41  1  1
 10 17  1  0
 10 11  1  1
 10 12  1  0
 11 42  1  0
 11 43  1  0
 11 44  1  0
 12 13  1  0
 12 45  1  0
 12 46  1  0
 13 29  1  0
 13 14  1  0
 13 47  1  6
 14 15  1  0
 14 29  1  0
 14 48  1  1
 15 16  1  0
 15 17  1  0
 15 49  1  1
 16 50  1  0
 17 18  1  6
 17 19  1  0
 18 51  1  0
 18 52  1  0
 18 53  1  0
 19 25  1  0
 19 27  1  0
 19 20  1  6
 20 21  1  0
 21 22  1  0
 21 27  1  0
 21 54  1  6
 22 23  1  0
 22 25  1  0
 22 55  1  1
 23 24  1  0
 23 56  1  6
 25 26  1  1
 26 57  1  0
 26 58  1  0
 26 59  1  0
 27 28  1  0
 27 60  1  1
 28 61  1  0
 29 30  1  0
 29 31  1  0
 30 62  1  0
 30 63  1  0
 30 64  1  0
 31 65  1  0
 31 66  1  0
 31 67  1  0
M  END
>  <i_m_ct_stereo_status>  (106) 
1

>  <s_m_source_file>  (106) 
/var/tmp/pbs.5076255.sched01/tmpvv81v907/0tx7qkblw.sdf

>  <i_m_source_file_index>  (106) 
44

>  <i_lp_mmshare_version>  (106) 
48012

>  <i_f3d_flags>  (106) 
0

>  <s_epik_input>  (106) 
W0NIM11bQ0gyXUMoPU8pL1tDSF09W0NIXS9bQ0BdKE8xKShbQ0gyXTIpW0NASF0xW0NAQEhdKFtDQEhdKE8zKVtDQEhdNFtPSF0pW0NAXTUoW0NIM10pW0NASF0yW0NAXShbQ0gzXSkoW0NAQF02KFtDQF0zNDUpW0NIM10pW0NIMl1bQ0BASF03W0NAQEhdKFtDQEhdNltPSF0pQzcoW0NIM10pW0NIM10=

>  <s_epik_cmdline>  (106) 
J2VwaWtfcHl0aG9uJywgJy1waHQnLCAnMi4wJywgJy1waCcsICc3LjAnLCAnLXRuJywgJzgnLCAnLW1hJywgJzIwMCcsICctaW1hZScsICc8aW5maWxlLm1hZT4nLCAnLW9tYWUnLCAnPG91dGZpbGUubWFlPic=

>  <r_lp_tautomer_probability>  (106) 
1

>  <r_epik_Ionization_Penalty>  (106) 
4.03722e-07

>  <r_epik_Ionization_Penalty_Charging>  (106) 
0

>  <r_epik_Ionization_Penalty_Neutral>  (106) 
4.03722e-07

>  <r_epik_State_Penalty>  (106) 
-0

>  <r_epik_Charging_Adjusted_Penalty>  (106) 
0

>  <i_epik_Tot_Q>  (106) 
0

>  <i_epik_Tot_abs_Q>  (106) 
0

>  <s_lp_Force_Field>  (106) 
OPLS3e

>  <r_lp_Energy>  (106) 
140.634

>  <b_lp_Chiralities_Consistent>  (106) 
1

>  <s_lp_Variant>  (106) 
23:0-1

>  <s_i_glide_gridfile>  (106) 
pfpi4k_grid

>  <i_i_glide_lignum>  (106) 
44

>  <i_i_glide_rotatable_bonds>  (106) 
5

>  <r_i_docking_score>  (106) 
-2.3781

>  <r_i_glide_ligand_efficiency>  (106) 
-0.0767128

>  <r_i_glide_ligand_efficiency_sa>  (106) 
-0.240984

>  <r_i_glide_ligand_efficiency_ln>  (106) 
-0.536334

>  <r_i_glide_gscore>  (106) 
-2.3781

>  <r_i_glide_lipo>  (106) 
-0.325184

>  <r_i_glide_hbond>  (106) 
0

>  <r_i_glide_metal>  (106) 
-0

>  <r_i_glide_rewards>  (106) 
-0.583376

>  <r_i_glide_evdw>  (106) 
-20.5686

>  <r_i_glide_ecoul>  (106) 
-4.38282

>  <r_i_glide_erotb>  (106) 
0.216316

>  <r_i_glide_esite>  (106) 
0

>  <r_i_glide_emodel>  (106) 
-27.3295

>  <r_i_glide_energy>  (106) 
-24.9514

>  <r_i_glide_einternal>  (106) 
3.89864

>  <r_i_glide_intrahb_reward>  (106) 
-0

>  <i_i_glide_confnum>  (106) 
3

>  <i_i_glide_posenum>  (106) 
11

>  <r_i_glide_eff_state_penalty>  (106) 
0

>  <ligand_id>  (106) 
23

>  <original_smiles>  (106) 
CCC(=O)C=CC12CC3C4(C)CC5C(C(O)C4(C)C46OC(C(C1O2)C34C)C6O)C5(C)C

>  <smiles>  (106) 
[H]OC1([H])C2([H])OC13C1(C([H])([H])[H])C2([H])C2([H])OC2(C([H])=C([H])C(=O)C([H])([H])C([H])([H])[H])C([H])([H])C1([H])C1(C([H])([H])[H])C([H])([H])C2([H])C([H])(C([H])(O[H])C31C([H])([H])[H])C2(C([H])([H])[H])C([H])([H])[H]

$$$$
24:4:0
     RDKit          3D

 78 85  0  0  1  0  0  0  0  0999 V2000
    4.0581   -7.3982    7.2845 C   0  0  0  0  0  0  0  0  0  0  0  0
    3.5149   -6.9287    5.9161 C   0  0  2  0  0  0  0  0  0  0  0  0
    3.9033   -5.4617    5.6648 C   0  0  0  0  0  0  0  0  0  0  0  0
    2.9343   -4.9299    4.6266 C   0  0  1  0  0  0  0  0  0  0  0  0
    3.1504   -5.0748    3.0841 C   0  0  1  0  0  0  0  0  0  0  0  0
    2.6000   -3.8931    2.2319 C   0  0  0  0  0  0  0  0  0  0  0  0
    3.5283   -2.7209    1.9853 C   0  0  0  0  0  0  0  0  0  0  0  0
    4.3566   -2.7136    0.9338 C   0  0  0  0  0  0  0  0  0  0  0  0
    5.4530   -2.0903    0.1615 C   0  0  2  0  0  0  0  0  0  0  0  0
    6.7981   -1.9142    0.8484 C   0  0  0  0  0  0  0  0  0  0  0  0
    5.0660   -0.9026   -0.7061 C   0  0  0  0  0  0  0  0  0  0  0  0
    4.5240   -1.3057   -2.0890 C   0  0  0  0  0  0  0  0  0  0  0  0
    3.4290   -2.3778   -1.9754 C   0  0  1  0  0  0  0  0  0  0  0  0
    2.8931   -2.6322   -3.2596 O   0  0  0  0  0  0  0  0  0  0  0  0
    3.9905   -3.6969   -1.4083 C   0  0  0  0  0  0  0  0  0  0  0  0
    4.8630   -3.5262   -0.1713 C   0  0  2  0  0  0  0  0  0  0  0  0
    5.5705   -4.8224    0.2256 C   0  0  0  0  0  0  0  0  0  0  0  0
    4.7646   -5.8114    1.1104 C   0  0  0  0  0  0  0  0  0  0  0  0
    4.5854   -5.4810    2.6204 C   0  0  1  0  0  0  0  0  0  0  0  0
    5.5786   -4.5859    3.0800 O   0  0  0  0  0  0  0  0  0  0  0  0
    2.1269   -6.2376    3.1603 C   0  0  2  0  0  0  0  0  0  0  0  0
    1.0310   -6.4898    2.1478 C   0  0  0  0  0  0  0  0  0  0  0  0
    0.4985   -7.8462    2.5717 C   0  0  0  0  0  0  0  0  0  0  0  0
    1.6592   -8.4500    3.4063 C   0  0  2  0  0  0  0  0  0  0  0  0
    2.0083   -9.8727    2.9279 C   0  0  0  0  0  0  0  0  0  0  0  0
    1.2033  -10.9208    3.6948 C   0  0  0  0  0  0  0  0  0  0  0  0
    0.6271  -11.8252    3.0994 O   0  0  0  0  0  0  0  0  0  0  0  0
    1.1804  -10.7842    5.0546 O   0  0  0  0  0  0  0  0  0  0  0  0
    1.8811   -9.7130    5.6417 C   0  0  1  0  0  0  0  0  0  0  0  0
    3.2741   -9.9432    5.6047 O   0  0  0  0  0  0  0  0  0  0  0  0
    1.4452   -8.3699    4.9603 C   0  0  1  0  0  0  0  0  0  0  0  0
    1.9655   -7.0343    5.6453 C   0  0  1  0  0  0  0  0  0  0  0  0
    1.2007   -6.8167    6.9782 C   0  0  0  0  0  0  0  0  0  0  0  0
    1.7338   -5.8760    4.6166 C   0  0  1  0  0  0  0  0  0  0  0  0
    0.3636   -5.1906    4.7913 C   0  0  0  0  0  0  0  0  0  0  0  0
    2.7132   -7.5375    3.1273 O   0  0  0  0  0  0  0  0  0  0  0  0
    3.7450   -6.7412    8.0966 H   0  0  0  0  0  0  0  0  0  0  0  0
    5.1492   -7.3940    7.2753 H   0  0  0  0  0  0  0  0  0  0  0  0
    3.7424   -8.4066    7.5426 H   0  0  0  0  0  0  0  0  0  0  0  0
    4.0362   -7.5077    5.1560 H   0  0  0  0  0  0  0  0  0  0  0  0
    3.7697   -4.8931    6.5855 H   0  0  0  0  0  0  0  0  0  0  0  0
    4.9535   -5.3508    5.4047 H   0  0  0  0  0  0  0  0  0  0  0  0
    2.6366   -3.9038    4.8521 H   0  0  0  0  0  0  0  0  0  0  0  0
    2.2981   -4.2623    1.2492 H   0  0  0  0  0  0  0  0  0  0  0  0
    1.6891   -3.4844    2.6692 H   0  0  0  0  0  0  0  0  0  0  0  0
    3.4967   -1.8929    2.6749 H   0  0  0  0  0  0  0  0  0  0  0  0
    7.6057   -2.0656    0.1320 H   0  0  0  0  0  0  0  0  0  0  0  0
    6.9229   -2.6359    1.6534 H   0  0  0  0  0  0  0  0  0  0  0  0
    6.8911   -0.9192    1.2809 H   0  0  0  0  0  0  0  0  0  0  0  0
    4.3217   -0.3062   -0.1779 H   0  0  0  0  0  0  0  0  0  0  0  0
    5.9276   -0.2562   -0.8368 H   0  0  0  0  0  0  0  0  0  0  0  0
    4.1253   -0.4209   -2.5888 H   0  0  0  0  0  0  0  0  0  0  0  0
    5.3340   -1.6782   -2.7162 H   0  0  0  0  0  0  0  0  0  0  0  0
    2.6275   -2.0057   -1.3362 H   0  0  0  0  0  0  0  0  0  0  0  0
    2.1293   -3.1867   -3.1602 H   0  0  0  0  0  0  0  0  0  0  0  0
    3.1663   -4.3604   -1.1523 H   0  0  0  0  0  0  0  0  0  0  0  0
    4.5857   -4.1877   -2.1799 H   0  0  0  0  0  0  0  0  0  0  0  0
    5.8258   -5.3455   -0.6921 H   0  0  0  0  0  0  0  0  0  0  0  0
    6.5279   -4.5982    0.6953 H   0  0  0  0  0  0  0  0  0  0  0  0
    3.8076   -6.0447    0.6466 H   0  0  0  0  0  0  0  0  0  0  0  0
    5.3192   -6.7498    1.0786 H   0  0  0  0  0  0  0  0  0  0  0  0
    4.8451   -6.3982    3.1483 H   0  0  0  0  0  0  0  0  0  0  0  0
    5.4201   -3.7414    2.6818 H   0  0  0  0  0  0  0  0  0  0  0  0
    0.2541   -5.7294    2.1356 H   0  0  0  0  0  0  0  0  0  0  0  0
    1.4538   -6.5547    1.1433 H   0  0  0  0  0  0  0  0  0  0  0  0
   -0.4178   -7.7542    3.1524 H   0  0  0  0  0  0  0  0  0  0  0  0
    0.2516   -8.4392    1.6920 H   0  0  0  0  0  0  0  0  0  0  0  0
    1.8155   -9.9908    1.8625 H   0  0  0  0  0  0  0  0  0  0  0  0
    3.0653  -10.0809    3.0736 H   0  0  0  0  0  0  0  0  0  0  0  0
    1.6025   -9.7019    6.7004 H   0  0  0  0  0  0  0  0  0  0  0  0
    3.4415  -10.7402    6.0872 H   0  0  0  0  0  0  0  0  0  0  0  0
    0.3626   -8.3705    5.0971 H   0  0  0  0  0  0  0  0  0  0  0  0
    0.1168   -6.8198    6.8500 H   0  0  0  0  0  0  0  0  0  0  0  0
    1.4847   -5.8705    7.4410 H   0  0  0  0  0  0  0  0  0  0  0  0
    1.4233   -7.6090    7.6940 H   0  0  0  0  0  0  0  0  0  0  0  0
   -0.4624   -5.8990    4.7057 H   0  0  0  0  0  0  0  0  0  0  0  0
    0.2116   -4.4223    4.0361 H   0  0  0  0  0  0  0  0  0  0  0  0
    0.2727   -4.6771    5.7499 H   0  0  0  0  0  0  0  0  0  0  0  0
  1  2  1  0
  1 37  1  0
  1 38  1  0
  1 39  1  0
  2 32  1  0
  2  3  1  0
  2 40  1  6
  3  4  1  0
  3 41  1  0
  3 42  1  0
  4 34  1  0
  4  5  1  0
  4 43  1  6
  5 19  1  0
  5  6  1  6
  5 21  1  0
  6  7  1  0
  6 44  1  0
  6 45  1  0
  7  8  2  3
  7 46  1  0
  8 16  1  0
  8  9  1  0
  9 16  1  0
  9 10  1  1
  9 11  1  0
 10 47  1  0
 10 48  1  0
 10 49  1  0
 11 12  1  0
 11 50  1  0
 11 51  1  0
 12 13  1  0
 12 52  1  0
 12 53  1  0
 13 14  1  0
 13 15  1  0
 13 54  1  1
 14 55  1  0
 16 15  1  6
 15 56  1  0
 15 57  1  0
 16 17  1  0
 17 18  1  0
 17 58  1  0
 17 59  1  0
 18 19  1  0
 18 60  1  0
 18 61  1  0
 19 20  1  0
 19 62  1  1
 20 63  1  0
 21 34  1  0
 21 36  1  0
 21 22  1  6
 22 23  1  0
 22 64  1  0
 22 65  1  0
 24 23  1  6
 23 66  1  0
 23 67  1  0
 24 31  1  0
 24 25  1  0
 24 36  1  0
 25 26  1  0
 25 68  1  0
 25 69  1  0
 26 27  2  0
 26 28  1  0
 28 29  1  0
 29 30  1  0
 29 31  1  0
 29 70  1  1
 30 71  1  0
 31 32  1  0
 31 72  1  6
 32 33  1  1
 32 34  1  0
 33 73  1  0
 33 74  1  0
 33 75  1  0
 34 35  1  6
 35 76  1  0
 35 77  1  0
 35 78  1  0
M  END
>  <i_m_ct_stereo_status>  (107) 
1

>  <s_m_source_file>  (107) 
/var/tmp/pbs.5076255.sched01/tmpyrjfudeo/454urwji6r.sdf

>  <i_m_source_file_index>  (107) 
4

>  <i_lp_mmshare_version>  (107) 
48012

>  <i_f3d_flags>  (107) 
0

>  <s_epik_input>  (107) 
W09IXVtDQEBIXTFPQyg9TylbQ0gyXVtDQEBdKE8yKShbQ0gyXVtDSDJdMylbQ0BASF0xW0NAQF00KFtDSDNdKVtDQEhdKFtDSDNdKVtDSDJdW0NAQEhdNVtDQEBdNChbQ0gzXSlbQ0BAXTIzW0NAQF01NltDSDJdL1tDSF09Qy83QzgoW0NIMl1bQ0gyXVtDQEhdNltPSF0pQzcoW0NIM10pW0NIMl1bQ0gyXVtDQEBIXShbT0hdKVtDSDJdOA==

>  <s_epik_cmdline>  (107) 
J2VwaWtfcHl0aG9uJywgJy1waHQnLCAnMi4wJywgJy1waCcsICc3LjAnLCAnLXRuJywgJzgnLCAnLW1hJywgJzIwMCcsICctaW1hZScsICc8aW5maWxlLm1hZT4nLCAnLW9tYWUnLCAnPG91dGZpbGUubWFlPic=

>  <r_lp_tautomer_probability>  (107) 
1

>  <r_epik_Ionization_Penalty>  (107) 
4.17891e-06

>  <r_epik_Ionization_Penalty_Charging>  (107) 
0

>  <r_epik_Ionization_Penalty_Neutral>  (107) 
4.17891e-06

>  <r_epik_State_Penalty>  (107) 
-0

>  <r_epik_Charging_Adjusted_Penalty>  (107) 
0

>  <i_epik_Tot_Q>  (107) 
0

>  <i_epik_Tot_abs_Q>  (107) 
0

>  <s_epik_Chemistry_Notes>  (107) 
This compound has an ester and may undergo hydrolysis at high or low pH. This compound contains an acetal/aminal-like group ( X-CH(R)-Y where X, Y are N, S, or O) that may be acid/base labile, releasing an aldehyde.

>  <s_lp_Force_Field>  (107) 
OPLS3e

>  <r_lp_Energy>  (107) 
79.5661

>  <b_lp_Chiralities_Consistent>  (107) 
1

>  <s_lp_Variant>  (107) 
24:0-5

>  <s_i_glide_gridfile>  (107) 
pfpi4k_grid

>  <i_i_glide_lignum>  (107) 
4

>  <i_i_glide_rotatable_bonds>  (107) 
3

>  <r_i_docking_score>  (107) 
-2.4138

>  <r_i_glide_ligand_efficiency>  (107) 
-0.06705

>  <r_i_glide_ligand_efficiency_sa>  (107) 
-0.221394

>  <r_i_glide_ligand_efficiency_ln>  (107) 
-0.526626

>  <r_i_glide_gscore>  (107) 
-2.4138

>  <r_i_glide_lipo>  (107) 
-0.294868

>  <r_i_glide_hbond>  (107) 
0

>  <r_i_glide_metal>  (107) 
-0

>  <r_i_glide_rewards>  (107) 
-0.217801

>  <r_i_glide_evdw>  (107) 
-27.6996

>  <r_i_glide_ecoul>  (107) 
-3.09037

>  <r_i_glide_erotb>  (107) 
0

>  <r_i_glide_esite>  (107) 
-0.0525952

>  <r_i_glide_emodel>  (107) 
-34.5025

>  <r_i_glide_energy>  (107) 
-30.7899

>  <r_i_glide_einternal>  (107) 
0.742738

>  <r_i_glide_intrahb_reward>  (107) 
-0

>  <i_i_glide_confnum>  (107) 
1

>  <i_i_glide_posenum>  (107) 
21

>  <r_i_glide_eff_state_penalty>  (107) 
0

>  <ligand_id>  (107) 
24

>  <original_smiles>  (107) 
CC1CC2C3(CC=C4C5(C)CCC(O)CC45CCC3O)C34CCC5(CC(=O)OC(O)C5C1(C)C23C)O4

>  <smiles>  (107) 
[H]OC1([H])OC(=O)C([H])([H])C23OC4(C([H])([H])C2([H])[H])C2(C([H])([H])C([H])=C5C6(C([H])([H])[H])C([H])([H])C([H])([H])C([H])(O[H])C([H])([H])C56C([H])([H])C([H])([H])C2([H])O[H])C2([H])C([H])([H])C([H])(C([H])([H])[H])C(C([H])([H])[H])(C13[H])C24C([H])([H])[H]

$$$$
24:4:1
     RDKit          3D

 78 85  0  0  1  0  0  0  0  0999 V2000
    3.9255   -7.3982    7.3888 C   0  0  0  0  0  0  0  0  0  0  0  0
    3.4062   -6.9395    6.0074 C   0  0  2  0  0  0  0  0  0  0  0  0
    3.7851   -5.4700    5.7612 C   0  0  0  0  0  0  0  0  0  0  0  0
    2.8365   -4.9516    4.6950 C   0  0  1  0  0  0  0  0  0  0  0  0
    3.0849   -5.1016    3.1576 C   0  0  1  0  0  0  0  0  0  0  0  0
    2.5407   -3.9292    2.2894 C   0  0  0  0  0  0  0  0  0  0  0  0
    3.4618   -2.7497    2.0529 C   0  0  0  0  0  0  0  0  0  0  0  0
    4.3113   -2.7385    1.0176 C   0  0  0  0  0  0  0  0  0  0  0  0
    5.4184   -2.1063    0.2637 C   0  0  2  0  0  0  0  0  0  0  0  0
    6.7449   -1.9132    0.9776 C   0  0  0  0  0  0  0  0  0  0  0  0
    5.0418   -0.9209   -0.6152 C   0  0  0  0  0  0  0  0  0  0  0  0
    4.5309   -1.3396   -2.0058 C   0  0  0  0  0  0  0  0  0  0  0  0
    3.4426   -2.4206   -1.9070 C   0  0  1  0  0  0  0  0  0  0  0  0
    2.9246   -2.6672   -3.2001 O   0  0  0  0  0  0  0  0  0  0  0  0
    4.0046   -3.7373   -1.3299 C   0  0  0  0  0  0  0  0  0  0  0  0
    4.8488   -3.5528   -0.0728 C   0  0  2  0  0  0  0  0  0  0  0  0
    5.5642   -4.8379    0.3505 C   0  0  0  0  0  0  0  0  0  0  0  0
    4.7493   -5.8305    1.2212 C   0  0  0  0  0  0  0  0  0  0  0  0
    4.5331   -5.4955    2.7243 C   0  0  1  0  0  0  0  0  0  0  0  0
    5.5125   -4.6003    3.2119 O   0  0  0  0  0  0  0  0  0  0  0  0
    2.0709   -6.2736    3.2202 C   0  0  2  0  0  0  0  0  0  0  0  0
    0.9991   -6.5414    2.1836 C   0  0  0  0  0  0  0  0  0  0  0  0
    0.4710   -7.9004    2.6026 C   0  0  0  0  0  0  0  0  0  0  0  0
    1.6197   -8.4858    3.4665 C   0  0  2  0  0  0  0  0  0  0  0  0
    1.9958   -9.9037    2.9999 C   0  0  0  0  0  0  0  0  0  0  0  0
    1.1806  -10.9514    3.7522 C   0  0  0  0  0  0  0  0  0  0  0  0
    0.6126  -11.8501    3.1438 O   0  0  0  0  0  0  0  0  0  0  0  0
    1.1283  -10.8166    5.1115 O   0  0  0  0  0  0  0  0  0  0  0  0
    1.8056   -9.7385    5.7105 C   0  0  1  0  0  0  0  0  0  0  0  0
    3.2008   -9.9599    5.7008 O   0  0  0  0  0  0  0  0  0  0  0  0
    1.3716   -8.4033    5.0148 C   0  0  1  0  0  0  0  0  0  0  0  0
    1.8642   -7.0609    5.7040 C   0  0  1  0  0  0  0  0  0  0  0  0
    1.0702   -6.8436    7.0192 C   0  0  0  0  0  0  0  0  0  0  0  0
    1.6435   -5.9085    4.6661 C   0  0  1  0  0  0  0  0  0  0  0  0
    0.2622   -5.2381    4.8089 C   0  0  0  0  0  0  0  0  0  0  0  0
    2.6710   -7.5671    3.2061 O   0  0  0  0  0  0  0  0  0  0  0  0
    3.5876   -6.7420    8.1913 H   0  0  0  0  0  0  0  0  0  0  0  0
    5.0166   -7.3842    7.4024 H   0  0  0  0  0  0  0  0  0  0  0  0
    3.6136   -8.4089    7.6428 H   0  0  0  0  0  0  0  0  0  0  0  0
    3.9486   -7.5161    5.2612 H   0  0  0  0  0  0  0  0  0  0  0  0
    3.6217   -4.8990    6.6760 H   0  0  0  0  0  0  0  0  0  0  0  0
    4.8416   -5.3552    5.5339 H   0  0  0  0  0  0  0  0  0  0  0  0
    2.5225   -3.9285    4.9094 H   0  0  0  0  0  0  0  0  0  0  0  0
    2.2627   -4.3069    1.3037 H   0  0  0  0  0  0  0  0  0  0  0  0
    1.6179   -3.5273    2.7061 H   0  0  0  0  0  0  0  0  0  0  0  0
    3.4122   -1.9198    2.7394 H   0  0  0  0  0  0  0  0  0  0  0  0
    7.5721   -2.0593    0.2832 H   0  0  0  0  0  0  0  0  0  0  0  0
    6.8486   -2.6376    1.7821 H   0  0  0  0  0  0  0  0  0  0  0  0
    6.8193   -0.9183    1.4147 H   0  0  0  0  0  0  0  0  0  0  0  0
    4.2763   -0.3365   -0.1033 H   0  0  0  0  0  0  0  0  0  0  0  0
    5.8952   -0.2568   -0.7253 H   0  0  0  0  0  0  0  0  0  0  0  0
    4.1330   -0.4606   -2.5162 H   0  0  0  0  0  0  0  0  0  0  0  0
    5.3551   -1.7052   -2.6201 H   0  0  0  0  0  0  0  0  0  0  0  0
    2.6277   -2.0554   -1.2807 H   0  0  0  0  0  0  0  0  0  0  0  0
    2.1406   -3.1917   -3.1133 H   0  0  0  0  0  0  0  0  0  0  0  0
    3.1856   -4.4197   -1.1069 H   0  0  0  0  0  0  0  0  0  0  0  0
    4.6234   -4.2216   -2.0842 H   0  0  0  0  0  0  0  0  0  0  0  0
    5.8575   -5.3625   -0.5539 H   0  0  0  0  0  0  0  0  0  0  0  0
    6.5033   -4.5983    0.8471 H   0  0  0  0  0  0  0  0  0  0  0  0
    3.8035   -6.0753    0.7394 H   0  0  0  0  0  0  0  0  0  0  0  0
    5.3136   -6.7637    1.2076 H   0  0  0  0  0  0  0  0  0  0  0  0
    4.7853   -6.4106    3.2572 H   0  0  0  0  0  0  0  0  0  0  0  0
    5.4815   -4.6174    4.1555 H   0  0  0  0  0  0  0  0  0  0  0  0
    0.2132   -5.7901    2.1488 H   0  0  0  0  0  0  0  0  0  0  0  0
    1.4441   -6.6080    1.1889 H   0  0  0  0  0  0  0  0  0  0  0  0
   -0.4582   -7.8163    3.1636 H   0  0  0  0  0  0  0  0  0  0  0  0
    0.2484   -8.5015    1.7206 H   0  0  0  0  0  0  0  0  0  0  0  0
    1.8250  -10.0348    1.9328 H   0  0  0  0  0  0  0  0  0  0  0  0
    3.0502  -10.1066    3.1690 H   0  0  0  0  0  0  0  0  0  0  0  0
    1.5058   -9.7270    6.7625 H   0  0  0  0  0  0  0  0  0  0  0  0
    3.3599  -10.7656    6.1679 H   0  0  0  0  0  0  0  0  0  0  0  0
    0.2855   -8.4130    5.1263 H   0  0  0  0  0  0  0  0  0  0  0  0
   -0.0100   -6.8594    6.8680 H   0  0  0  0  0  0  0  0  0  0  0  0
    1.3346   -5.8931    7.4837 H   0  0  0  0  0  0  0  0  0  0  0  0
    1.2859   -7.6302    7.7426 H   0  0  0  0  0  0  0  0  0  0  0  0
   -0.5536   -5.9561    4.7046 H   0  0  0  0  0  0  0  0  0  0  0  0
    0.1181   -4.4708    4.0525 H   0  0  0  0  0  0  0  0  0  0  0  0
    0.1456   -4.7242    5.7643 H   0  0  0  0  0  0  0  0  0  0  0  0
  1  2  1  0
  1 37  1  0
  1 38  1  0
  1 39  1  0
  2 32  1  0
  2  3  1  0
  2 40  1  6
  3  4  1  0
  3 41  1  0
  3 42  1  0
  4 34  1  0
  4  5  1  0
  4 43  1  6
  5 19  1  0
  5  6  1  6
  5 21  1  0
  6  7  1  0
  6 44  1  0
  6 45  1  0
  7  8  2  3
  7 46  1  0
  8 16  1  0
  8  9  1  0
  9 16  1  0
  9 10  1  1
  9 11  1  0
 10 47  1  0
 10 48  1  0
 10 49  1  0
 11 12  1  0
 11 50  1  0
 11 51  1  0
 12 13  1  0
 12 52  1  0
 12 53  1  0
 13 14  1  0
 13 15  1  0
 13 54  1  1
 14 55  1  0
 16 15  1  6
 15 56  1  0
 15 57  1  0
 16 17  1  0
 17 18  1  0
 17 58  1  0
 17 59  1  0
 18 19  1  0
 18 60  1  0
 18 61  1  0
 19 20  1  0
 19 62  1  1
 20 63  1  0
 21 34  1  0
 21 36  1  0
 21 22  1  6
 22 23  1  0
 22 64  1  0
 22 65  1  0
 24 23  1  6
 23 66  1  0
 23 67  1  0
 24 31  1  0
 24 25  1  0
 24 36  1  0
 25 26  1  0
 25 68  1  0
 25 69  1  0
 26 27  2  0
 26 28  1  0
 28 29  1  0
 29 30  1  0
 29 31  1  0
 29 70  1  1
 30 71  1  0
 31 32  1  0
 31 72  1  6
 32 33  1  1
 32 34  1  0
 33 73  1  0
 33 74  1  0
 33 75  1  0
 34 35  1  6
 35 76  1  0
 35 77  1  0
 35 78  1  0
M  END
>  <i_m_ct_stereo_status>  (108) 
1

>  <s_m_source_file>  (108) 
/var/tmp/pbs.5076255.sched01/tmpyrjfudeo/454urwji6r.sdf

>  <i_m_source_file_index>  (108) 
4

>  <i_lp_mmshare_version>  (108) 
48012

>  <i_f3d_flags>  (108) 
0

>  <s_epik_input>  (108) 
W09IXVtDQEBIXTFPQyg9TylbQ0gyXVtDQEBdKE8yKShbQ0gyXVtDSDJdMylbQ0BASF0xW0NAQF00KFtDSDNdKVtDQEhdKFtDSDNdKVtDSDJdW0NAQEhdNVtDQEBdNChbQ0gzXSlbQ0BAXTIzW0NAQF01NltDSDJdL1tDSF09Qy83QzgoW0NIMl1bQ0gyXVtDQEhdNltPSF0pQzcoW0NIM10pW0NIMl1bQ0gyXVtDQEBIXShbT0hdKVtDSDJdOA==

>  <s_epik_cmdline>  (108) 
J2VwaWtfcHl0aG9uJywgJy1waHQnLCAnMi4wJywgJy1waCcsICc3LjAnLCAnLXRuJywgJzgnLCAnLW1hJywgJzIwMCcsICctaW1hZScsICc8aW5maWxlLm1hZT4nLCAnLW9tYWUnLCAnPG91dGZpbGUubWFlPic=

>  <r_lp_tautomer_probability>  (108) 
1

>  <r_epik_Ionization_Penalty>  (108) 
4.17891e-06

>  <r_epik_Ionization_Penalty_Charging>  (108) 
0

>  <r_epik_Ionization_Penalty_Neutral>  (108) 
4.17891e-06

>  <r_epik_State_Penalty>  (108) 
-0

>  <r_epik_Charging_Adjusted_Penalty>  (108) 
0

>  <i_epik_Tot_Q>  (108) 
0

>  <i_epik_Tot_abs_Q>  (108) 
0

>  <s_epik_Chemistry_Notes>  (108) 
This compound has an ester and may undergo hydrolysis at high or low pH. This compound contains an acetal/aminal-like group ( X-CH(R)-Y where X, Y are N, S, or O) that may be acid/base labile, releasing an aldehyde.

>  <s_lp_Force_Field>  (108) 
OPLS3e

>  <r_lp_Energy>  (108) 
79.5661

>  <b_lp_Chiralities_Consistent>  (108) 
1

>  <s_lp_Variant>  (108) 
24:0-5

>  <s_i_glide_gridfile>  (108) 
pfpi4k_grid

>  <i_i_glide_lignum>  (108) 
4

>  <i_i_glide_rotatable_bonds>  (108) 
3

>  <r_i_docking_score>  (108) 
-2.40702

>  <r_i_glide_ligand_efficiency>  (108) 
-0.0668616

>  <r_i_glide_ligand_efficiency_sa>  (108) 
-0.220772

>  <r_i_glide_ligand_efficiency_ln>  (108) 
-0.525146

>  <r_i_glide_gscore>  (108) 
-2.40702

>  <r_i_glide_lipo>  (108) 
-0.317797

>  <r_i_glide_hbond>  (108) 
0

>  <r_i_glide_metal>  (108) 
-0

>  <r_i_glide_rewards>  (108) 
-0.215681

>  <r_i_glide_evdw>  (108) 
-27.4602

>  <r_i_glide_ecoul>  (108) 
-2.95145

>  <r_i_glide_erotb>  (108) 
0

>  <r_i_glide_esite>  (108) 
-0.0578126

>  <r_i_glide_emodel>  (108) 
-33.8545

>  <r_i_glide_energy>  (108) 
-30.4117

>  <r_i_glide_einternal>  (108) 
1.20913

>  <r_i_glide_intrahb_reward>  (108) 
-0

>  <i_i_glide_confnum>  (108) 
2

>  <i_i_glide_posenum>  (108) 
31

>  <r_i_glide_eff_state_penalty>  (108) 
0

>  <ligand_id>  (108) 
24

>  <original_smiles>  (108) 
CC1CC2C3(CC=C4C5(C)CCC(O)CC45CCC3O)C34CCC5(CC(=O)OC(O)C5C1(C)C23C)O4

>  <smiles>  (108) 
[H]OC1([H])OC(=O)C([H])([H])C23OC4(C([H])([H])C2([H])[H])C2(C([H])([H])C([H])=C5C6(C([H])([H])[H])C([H])([H])C([H])([H])C([H])(O[H])C([H])([H])C56C([H])([H])C([H])([H])C2([H])O[H])C2([H])C([H])([H])C([H])(C([H])([H])[H])C(C([H])([H])[H])(C13[H])C24C([H])([H])[H]

$$$$
24:4:2
     RDKit          3D

 78 85  0  0  1  0  0  0  0  0999 V2000
    4.0241   -7.2818    7.3408 C   0  0  0  0  0  0  0  0  0  0  0  0
    3.4870   -6.8358    5.9623 C   0  0  2  0  0  0  0  0  0  0  0  0
    3.8718   -5.3714    5.6899 C   0  0  0  0  0  0  0  0  0  0  0  0
    2.9069   -4.8583    4.6370 C   0  0  1  0  0  0  0  0  0  0  0  0
    3.1310   -5.0272    3.0979 C   0  0  1  0  0  0  0  0  0  0  0  0
    2.5816   -3.8609    2.2245 C   0  0  0  0  0  0  0  0  0  0  0  0
    3.5067   -2.6898    1.9625 C   0  0  0  0  0  0  0  0  0  0  0  0
    4.3419   -2.6983    0.9172 C   0  0  0  0  0  0  0  0  0  0  0  0
    5.4403   -2.0836    0.1407 C   0  0  2  0  0  0  0  0  0  0  0  0
    6.7817   -1.8909    0.8316 C   0  0  0  0  0  0  0  0  0  0  0  0
    5.0536   -0.9080   -0.7475 C   0  0  0  0  0  0  0  0  0  0  0  0
    4.5201   -1.3371   -2.1271 C   0  0  0  0  0  0  0  0  0  0  0  0
    3.4288   -2.4086   -2.0008 C   0  0  1  0  0  0  0  0  0  0  0  0
    2.8984   -2.6767   -3.2838 O   0  0  0  0  0  0  0  0  0  0  0  0
    3.9913   -3.7178   -1.4103 C   0  0  0  0  0  0  0  0  0  0  0  0
    4.8587   -3.5257   -0.1734 C   0  0  2  0  0  0  0  0  0  0  0  0
    5.5682   -4.8132    0.2486 C   0  0  0  0  0  0  0  0  0  0  0  0
    4.7607   -5.7902    1.1458 C   0  0  0  0  0  0  0  0  0  0  0  0
    4.5700   -5.4337    2.6484 C   0  0  1  0  0  0  0  0  0  0  0  0
    5.5604   -4.5317    3.1016 O   0  0  0  0  0  0  0  0  0  0  0  0
    2.1124   -6.1943    3.1894 C   0  0  2  0  0  0  0  0  0  0  0  0
    1.0221   -6.4636    2.1746 C   0  0  0  0  0  0  0  0  0  0  0  0
    0.4905   -7.8144    2.6167 C   0  0  0  0  0  0  0  0  0  0  0  0
    1.6475   -8.4019    3.4680 C   0  0  2  0  0  0  0  0  0  0  0  0
    2.0039   -9.8303    3.0116 C   0  0  0  0  0  0  0  0  0  0  0  0
    1.2038  -10.8729    3.7928 C   0  0  0  0  0  0  0  0  0  0  0  0
    0.6442  -11.7993    3.2143 O   0  0  0  0  0  0  0  0  0  0  0  0
    1.1651  -10.7085    5.1509 O   0  0  0  0  0  0  0  0  0  0  0  0
    1.8602   -9.6280    5.7241 C   0  0  1  0  0  0  0  0  0  0  0  0
    3.2549   -9.8570    5.6957 O   0  0  0  0  0  0  0  0  0  0  0  0
    1.4267   -8.2982    5.0193 C   0  0  1  0  0  0  0  0  0  0  0  0
    1.9392   -6.9504    5.6855 C   0  0  1  0  0  0  0  0  0  0  0  0
    1.1665   -6.7136    7.0104 C   0  0  0  0  0  0  0  0  0  0  0  0
    1.7098   -5.8088    4.6377 C   0  0  1  0  0  0  0  0  0  0  0  0
    0.3365   -5.1247    4.7944 C   0  0  0  0  0  0  0  0  0  0  0  0
    2.7018   -7.4937    3.1782 O   0  0  0  0  0  0  0  0  0  0  0  0
    3.7047   -6.6128    8.1407 H   0  0  0  0  0  0  0  0  0  0  0  0
    5.1151   -7.2746    7.3373 H   0  0  0  0  0  0  0  0  0  0  0  0
    3.7097   -8.2870    7.6132 H   0  0  0  0  0  0  0  0  0  0  0  0
    4.0137   -7.4253    5.2139 H   0  0  0  0  0  0  0  0  0  0  0  0
    3.7313   -4.7885    6.6009 H   0  0  0  0  0  0  0  0  0  0  0  0
    4.9231   -5.2606    5.4343 H   0  0  0  0  0  0  0  0  0  0  0  0
    2.6065   -3.8296    4.8457 H   0  0  0  0  0  0  0  0  0  0  0  0
    2.2868   -4.2472    1.2469 H   0  0  0  0  0  0  0  0  0  0  0  0
    1.6686   -3.4487    2.6516 H   0  0  0  0  0  0  0  0  0  0  0  0
    3.4749   -1.8536    2.6417 H   0  0  0  0  0  0  0  0  0  0  0  0
    7.5956   -2.0531    0.1245 H   0  0  0  0  0  0  0  0  0  0  0  0
    6.8986   -2.5991    1.6501 H   0  0  0  0  0  0  0  0  0  0  0  0
    6.8704   -0.8897    1.2510 H   0  0  0  0  0  0  0  0  0  0  0  0
    4.3004   -0.3096   -0.2313 H   0  0  0  0  0  0  0  0  0  0  0  0
    5.9102   -0.2569   -0.8827 H   0  0  0  0  0  0  0  0  0  0  0  0
    4.1234   -0.4604   -2.6426 H   0  0  0  0  0  0  0  0  0  0  0  0
    5.3359   -1.7164   -2.7431 H   0  0  0  0  0  0  0  0  0  0  0  0
    2.6238   -2.0295   -1.3703 H   0  0  0  0  0  0  0  0  0  0  0  0
    2.1502   -3.2496   -3.1824 H   0  0  0  0  0  0  0  0  0  0  0  0
    3.1702   -4.3808   -1.1423 H   0  0  0  0  0  0  0  0  0  0  0  0
    4.5912   -4.2202   -2.1704 H   0  0  0  0  0  0  0  0  0  0  0  0
    5.8318   -5.3504   -0.6583 H   0  0  0  0  0  0  0  0  0  0  0  0
    6.5211   -4.5758    0.7193 H   0  0  0  0  0  0  0  0  0  0  0  0
    3.8058   -6.0324    0.6822 H   0  0  0  0  0  0  0  0  0  0  0  0
    5.3147   -6.7295    1.1303 H   0  0  0  0  0  0  0  0  0  0  0  0
    4.8266   -6.3414    3.1925 H   0  0  0  0  0  0  0  0  0  0  0  0
    6.4074   -4.9262    2.9569 H   0  0  0  0  0  0  0  0  0  0  0  0
    0.2428   -5.7049    2.1468 H   0  0  0  0  0  0  0  0  0  0  0  0
    1.4499   -6.5428    1.1730 H   0  0  0  0  0  0  0  0  0  0  0  0
   -0.4288   -7.7159    3.1913 H   0  0  0  0  0  0  0  0  0  0  0  0
    0.2495   -8.4222    1.7454 H   0  0  0  0  0  0  0  0  0  0  0  0
    1.8162   -9.9682    1.9486 H   0  0  0  0  0  0  0  0  0  0  0  0
    3.0601  -10.0341    3.1670 H   0  0  0  0  0  0  0  0  0  0  0  0
    1.5774   -9.6009    6.7796 H   0  0  0  0  0  0  0  0  0  0  0  0
    3.4225  -10.6404    6.1957 H   0  0  0  0  0  0  0  0  0  0  0  0
    0.3427   -8.2990    5.1492 H   0  0  0  0  0  0  0  0  0  0  0  0
    0.0833   -6.7215    6.8765 H   0  0  0  0  0  0  0  0  0  0  0  0
    1.4454   -5.7594    7.4594 H   0  0  0  0  0  0  0  0  0  0  0  0
    1.3876   -7.4936    7.7396 H   0  0  0  0  0  0  0  0  0  0  0  0
   -0.4866   -5.8370    4.7147 H   0  0  0  0  0  0  0  0  0  0  0  0
    0.1883   -4.3678    4.0275 H   0  0  0  0  0  0  0  0  0  0  0  0
    0.2396   -4.5970    5.7444 H   0  0  0  0  0  0  0  0  0  0  0  0
  1  2  1  0
  1 37  1  0
  1 38  1  0
  1 39  1  0
  2 32  1  0
  2  3  1  0
  2 40  1  6
  3  4  1  0
  3 41  1  0
  3 42  1  0
  4 34  1  0
  4  5  1  0
  4 43  1  6
  5 19  1  0
  5  6  1  6
  5 21  1  0
  6  7  1  0
  6 44  1  0
  6 45  1  0
  7  8  2  3
  7 46  1  0
  8 16  1  0
  8  9  1  0
  9 16  1  0
  9 10  1  1
  9 11  1  0
 10 47  1  0
 10 48  1  0
 10 49  1  0
 11 12  1  0
 11 50  1  0
 11 51  1  0
 12 13  1  0
 12 52  1  0
 12 53  1  0
 13 14  1  0
 13 15  1  0
 13 54  1  1
 14 55  1  0
 16 15  1  6
 15 56  1  0
 15 57  1  0
 16 17  1  0
 17 18  1  0
 17 58  1  0
 17 59  1  0
 18 19  1  0
 18 60  1  0
 18 61  1  0
 19 20  1  0
 19 62  1  1
 20 63  1  0
 21 34  1  0
 21 36  1  0
 21 22  1  6
 22 23  1  0
 22 64  1  0
 22 65  1  0
 24 23  1  6
 23 66  1  0
 23 67  1  0
 24 31  1  0
 24 25  1  0
 24 36  1  0
 25 26  1  0
 25 68  1  0
 25 69  1  0
 26 27  2  0
 26 28  1  0
 28 29  1  0
 29 30  1  0
 29 31  1  0
 29 70  1  1
 30 71  1  0
 31 32  1  0
 31 72  1  6
 32 33  1  1
 32 34  1  0
 33 73  1  0
 33 74  1  0
 33 75  1  0
 34 35  1  6
 35 76  1  0
 35 77  1  0
 35 78  1  0
M  END
>  <i_m_ct_stereo_status>  (109) 
1

>  <s_m_source_file>  (109) 
/var/tmp/pbs.5076255.sched01/tmpyrjfudeo/454urwji6r.sdf

>  <i_m_source_file_index>  (109) 
4

>  <i_lp_mmshare_version>  (109) 
48012

>  <i_f3d_flags>  (109) 
0

>  <s_epik_input>  (109) 
W09IXVtDQEBIXTFPQyg9TylbQ0gyXVtDQEBdKE8yKShbQ0gyXVtDSDJdMylbQ0BASF0xW0NAQF00KFtDSDNdKVtDQEhdKFtDSDNdKVtDSDJdW0NAQEhdNVtDQEBdNChbQ0gzXSlbQ0BAXTIzW0NAQF01NltDSDJdL1tDSF09Qy83QzgoW0NIMl1bQ0gyXVtDQEhdNltPSF0pQzcoW0NIM10pW0NIMl1bQ0gyXVtDQEBIXShbT0hdKVtDSDJdOA==

>  <s_epik_cmdline>  (109) 
J2VwaWtfcHl0aG9uJywgJy1waHQnLCAnMi4wJywgJy1waCcsICc3LjAnLCAnLXRuJywgJzgnLCAnLW1hJywgJzIwMCcsICctaW1hZScsICc8aW5maWxlLm1hZT4nLCAnLW9tYWUnLCAnPG91dGZpbGUubWFlPic=

>  <r_lp_tautomer_probability>  (109) 
1

>  <r_epik_Ionization_Penalty>  (109) 
4.17891e-06

>  <r_epik_Ionization_Penalty_Charging>  (109) 
0

>  <r_epik_Ionization_Penalty_Neutral>  (109) 
4.17891e-06

>  <r_epik_State_Penalty>  (109) 
-0

>  <r_epik_Charging_Adjusted_Penalty>  (109) 
0

>  <i_epik_Tot_Q>  (109) 
0

>  <i_epik_Tot_abs_Q>  (109) 
0

>  <s_epik_Chemistry_Notes>  (109) 
This compound has an ester and may undergo hydrolysis at high or low pH. This compound contains an acetal/aminal-like group ( X-CH(R)-Y where X, Y are N, S, or O) that may be acid/base labile, releasing an aldehyde.

>  <s_lp_Force_Field>  (109) 
OPLS3e

>  <r_lp_Energy>  (109) 
79.5661

>  <b_lp_Chiralities_Consistent>  (109) 
1

>  <s_lp_Variant>  (109) 
24:0-5

>  <s_i_glide_gridfile>  (109) 
pfpi4k_grid

>  <i_i_glide_lignum>  (109) 
4

>  <i_i_glide_rotatable_bonds>  (109) 
3

>  <r_i_docking_score>  (109) 
-2.33034

>  <r_i_glide_ligand_efficiency>  (109) 
-0.0647318

>  <r_i_glide_ligand_efficiency_sa>  (109) 
-0.21374

>  <r_i_glide_ligand_efficiency_ln>  (109) 
-0.508418

>  <r_i_glide_gscore>  (109) 
-2.33034

>  <r_i_glide_lipo>  (109) 
-0.280731

>  <r_i_glide_hbond>  (109) 
0

>  <r_i_glide_metal>  (109) 
-0

>  <r_i_glide_rewards>  (109) 
-0.182842

>  <r_i_glide_evdw>  (109) 
-27.7035

>  <r_i_glide_ecoul>  (109) 
-2.86378

>  <r_i_glide_erotb>  (109) 
0

>  <r_i_glide_esite>  (109) 
-0.0520298

>  <r_i_glide_emodel>  (109) 
-33.9697

>  <r_i_glide_energy>  (109) 
-30.5673

>  <r_i_glide_einternal>  (109) 
1.06933

>  <r_i_glide_intrahb_reward>  (109) 
-0

>  <i_i_glide_confnum>  (109) 
1

>  <i_i_glide_posenum>  (109) 
32

>  <r_i_glide_eff_state_penalty>  (109) 
0

>  <ligand_id>  (109) 
24

>  <original_smiles>  (109) 
CC1CC2C3(CC=C4C5(C)CCC(O)CC45CCC3O)C34CCC5(CC(=O)OC(O)C5C1(C)C23C)O4

>  <smiles>  (109) 
[H]OC1([H])OC(=O)C([H])([H])C23OC4(C([H])([H])C2([H])[H])C2(C([H])([H])C([H])=C5C6(C([H])([H])[H])C([H])([H])C([H])([H])C([H])(O[H])C([H])([H])C56C([H])([H])C([H])([H])C2([H])O[H])C2([H])C([H])([H])C([H])(C([H])([H])[H])C(C([H])([H])[H])(C13[H])C24C([H])([H])[H]

$$$$
24:5:0
     RDKit          3D

 78 85  0  0  1  0  0  0  0  0999 V2000
    6.6618   -8.4055    2.4878 C   0  0  0  0  0  0  0  0  0  0  0  0
    5.4015   -7.6525    2.9624 C   0  0  2  0  0  0  0  0  0  0  0  0
    5.7057   -6.1488    3.0993 C   0  0  0  0  0  0  0  0  0  0  0  0
    4.6836   -5.5863    4.0674 C   0  0  1  0  0  0  0  0  0  0  0  0
    3.2932   -5.0334    3.6339 C   0  0  1  0  0  0  0  0  0  0  0  0
    2.7177   -3.8822    4.5116 C   0  0  0  0  0  0  0  0  0  0  0  0
    3.5387   -2.6165    4.6303 C   0  0  0  0  0  0  0  0  0  0  0  0
    3.4828   -1.6420    3.7167 C   0  0  0  0  0  0  0  0  0  0  0  0
    3.9785   -0.3515    3.2031 C   0  0  2  0  0  0  0  0  0  0  0  0
    5.4427   -0.2563    2.8195 C   0  0  0  0  0  0  0  0  0  0  0  0
    3.4602    0.8945    3.9135 C   0  0  0  0  0  0  0  0  0  0  0  0
    2.1009    1.3707    3.3681 C   0  0  0  0  0  0  0  0  0  0  0  0
    1.0837    0.2158    3.2855 C   0  0  1  0  0  0  0  0  0  0  0  0
   -0.1851    0.7205    2.9036 O   0  0  0  0  0  0  0  0  0  0  0  0
    1.5205   -0.8421    2.2593 C   0  0  0  0  0  0  0  0  0  0  0  0
    2.9721   -1.2791    2.3976 C   0  0  2  0  0  0  0  0  0  0  0  0
    3.4416   -2.1555    1.2334 C   0  0  0  0  0  0  0  0  0  0  0  0
    4.0929   -3.5111    1.6136 C   0  0  0  0  0  0  0  0  0  0  0  0
    3.0926   -4.5763    2.1436 C   0  0  1  0  0  0  0  0  0  0  0  0
    3.1626   -5.6548    1.2365 O   0  0  0  0  0  0  0  0  0  0  0  0
    2.7253   -6.4066    4.1023 C   0  0  2  0  0  0  0  0  0  0  0  0
    1.4249   -6.5811    4.8665 C   0  0  0  0  0  0  0  0  0  0  0  0
    1.2489   -8.0871    4.8846 C   0  0  0  0  0  0  0  0  0  0  0  0
    2.1673   -8.5781    3.7320 C   0  0  2  0  0  0  0  0  0  0  0  0
    1.4057   -9.5523    2.8120 C   0  0  0  0  0  0  0  0  0  0  0  0
    1.5739  -10.9991    3.2790 C   0  0  0  0  0  0  0  0  0  0  0  0
    0.6197  -11.7546    3.3236 O   0  0  0  0  0  0  0  0  0  0  0  0
    2.8485  -11.3997    3.5844 O   0  0  0  0  0  0  0  0  0  0  0  0
    3.8943  -10.4774    3.4365 C   0  0  1  0  0  0  0  0  0  0  0  0
    4.1692  -10.2435    2.0722 O   0  0  0  0  0  0  0  0  0  0  0  0
    3.5433   -9.1607    4.2095 C   0  0  1  0  0  0  0  0  0  0  0  0
    4.7126   -8.1019    4.3095 C   0  0  1  0  0  0  0  0  0  0  0  0
    5.7931   -8.6500    5.2755 C   0  0  0  0  0  0  0  0  0  0  0  0
    4.0618   -6.7697    4.8087 C   0  0  1  0  0  0  0  0  0  0  0  0
    4.0632   -6.6659    6.3494 C   0  0  0  0  0  0  0  0  0  0  0  0
    2.4666   -7.3541    3.0722 O   0  0  0  0  0  0  0  0  0  0  0  0
    7.5212   -8.2209    3.1362 H   0  0  0  0  0  0  0  0  0  0  0  0
    6.9435   -8.0722    1.4873 H   0  0  0  0  0  0  0  0  0  0  0  0
    6.5183   -9.4837    2.4377 H   0  0  0  0  0  0  0  0  0  0  0  0
    4.6709   -7.7341    2.1626 H   0  0  0  0  0  0  0  0  0  0  0  0
    6.6990   -6.0175    3.5255 H   0  0  0  0  0  0  0  0  0  0  0  0
    5.7322   -5.6454    2.1322 H   0  0  0  0  0  0  0  0  0  0  0  0
    5.1396   -4.8932    4.7710 H   0  0  0  0  0  0  0  0  0  0  0  0
    1.7168   -3.6113    4.1645 H   0  0  0  0  0  0  0  0  0  0  0  0
    2.5693   -4.2108    5.5362 H   0  0  0  0  0  0  0  0  0  0  0  0
    4.1623   -2.5089    5.4989 H   0  0  0  0  0  0  0  0  0  0  0  0
    5.5489    0.4493    2.0011 H   0  0  0  0  0  0  0  0  0  0  0  0
    5.8140   -1.2139    2.4633 H   0  0  0  0  0  0  0  0  0  0  0  0
    6.0553    0.0629    3.6646 H   0  0  0  0  0  0  0  0  0  0  0  0
    3.3734    0.6733    4.9778 H   0  0  0  0  0  0  0  0  0  0  0  0
    4.1884    1.7026    3.8278 H   0  0  0  0  0  0  0  0  0  0  0  0
    1.7113    2.1517    4.0226 H   0  0  0  0  0  0  0  0  0  0  0  0
    2.2307    1.8347    2.3871 H   0  0  0  0  0  0  0  0  0  0  0  0
    0.9780   -0.2380    4.2688 H   0  0  0  0  0  0  0  0  0  0  0  0
   -0.1024    1.1833    2.0843 H   0  0  0  0  0  0  0  0  0  0  0  0
    0.8722   -1.7214    2.3041 H   0  0  0  0  0  0  0  0  0  0  0  0
    1.4184   -0.4010    1.2736 H   0  0  0  0  0  0  0  0  0  0  0  0
    2.6217   -2.3240    0.5319 H   0  0  0  0  0  0  0  0  0  0  0  0
    4.1744   -1.5739    0.6788 H   0  0  0  0  0  0  0  0  0  0  0  0
    4.5654   -3.8878    0.7084 H   0  0  0  0  0  0  0  0  0  0  0  0
    4.9346   -3.3762    2.2950 H   0  0  0  0  0  0  0  0  0  0  0  0
    2.0785   -4.1966    2.0167 H   0  0  0  0  0  0  0  0  0  0  0  0
    2.7426   -6.3963    1.6505 H   0  0  0  0  0  0  0  0  0  0  0  0
    1.4304   -6.1694    5.8803 H   0  0  0  0  0  0  0  0  0  0  0  0
    0.6041   -6.1151    4.3229 H   0  0  0  0  0  0  0  0  0  0  0  0
    1.5459   -8.5159    5.8400 H   0  0  0  0  0  0  0  0  0  0  0  0
    0.2006   -8.3462    4.7444 H   0  0  0  0  0  0  0  0  0  0  0  0
    0.3480   -9.3161    2.7649 H   0  0  0  0  0  0  0  0  0  0  0  0
    1.7675   -9.4846    1.7915 H   0  0  0  0  0  0  0  0  0  0  0  0
    4.7848  -10.9451    3.8525 H   0  0  0  0  0  0  0  0  0  0  0  0
    4.2197  -11.0754    1.5752 H   0  0  0  0  0  0  0  0  0  0  0  0
    3.3544   -9.5199    5.2239 H   0  0  0  0  0  0  0  0  0  0  0  0
    5.3868   -8.9352    6.2462 H   0  0  0  0  0  0  0  0  0  0  0  0
    6.5749   -7.9084    5.4340 H   0  0  0  0  0  0  0  0  0  0  0  0
    6.2651   -9.5414    4.8679 H   0  0  0  0  0  0  0  0  0  0  0  0
    3.5395   -7.5009    6.8158 H   0  0  0  0  0  0  0  0  0  0  0  0
    3.5750   -5.7565    6.6889 H   0  0  0  0  0  0  0  0  0  0  0  0
    5.0747   -6.6221    6.7624 H   0  0  0  0  0  0  0  0  0  0  0  0
  1  2  1  0
  1 37  1  0
  1 38  1  0
  1 39  1  0
  2 32  1  0
  2  3  1  0
  2 40  1  6
  3  4  1  0
  3 41  1  0
  3 42  1  0
  4 34  1  0
  4  5  1  0
  4 43  1  1
  5 19  1  0
  5  6  1  1
  5 21  1  0
  6  7  1  0
  6 44  1  0
  6 45  1  0
  7  8  2  3
  7 46  1  0
  8 16  1  0
  8  9  1  0
  9 16  1  0
  9 10  1  6
  9 11  1  0
 10 47  1  0
 10 48  1  0
 10 49  1  0
 11 12  1  0
 11 50  1  0
 11 51  1  0
 12 13  1  0
 12 52  1  0
 12 53  1  0
 13 14  1  0
 13 15  1  0
 13 54  1  1
 14 55  1  0
 16 15  1  1
 15 56  1  0
 15 57  1  0
 16 17  1  0
 17 18  1  0
 17 58  1  0
 17 59  1  0
 18 19  1  0
 18 60  1  0
 18 61  1  0
 19 20  1  0
 19 62  1  1
 20 63  1  0
 21 34  1  0
 21 36  1  0
 21 22  1  1
 22 23  1  0
 22 64  1  0
 22 65  1  0
 24 23  1  1
 23 66  1  0
 23 67  1  0
 24 31  1  0
 24 25  1  0
 24 36  1  0
 25 26  1  0
 25 68  1  0
 25 69  1  0
 26 27  2  0
 26 28  1  0
 28 29  1  0
 29 30  1  0
 29 31  1  0
 29 70  1  1
 30 71  1  0
 31 32  1  0
 31 72  1  1
 32 33  1  1
 32 34  1  0
 33 73  1  0
 33 74  1  0
 33 75  1  0
 34 35  1  1
 35 76  1  0
 35 77  1  0
 35 78  1  0
M  END
>  <i_m_ct_stereo_status>  (110) 
1

>  <s_m_source_file>  (110) 
/var/tmp/pbs.5076255.sched01/tmpyrjfudeo/454urwji6r.sdf

>  <i_m_source_file_index>  (110) 
5

>  <i_lp_mmshare_version>  (110) 
48012

>  <i_f3d_flags>  (110) 
0

>  <s_epik_input>  (110) 
W09IXVtDQEBIXTFPQyg9TylbQ0gyXVtDQEBdKE8yKShbQ0gyXVtDSDJdMylbQ0BASF0xW0NAQF00KFtDSDNdKVtDQEhdKFtDSDNdKVtDSDJdW0NAQEhdNVtDQEBdNChbQ0gzXSlbQ0BAXTIzW0NAQF01NltDSDJdL1tDSF09Qy83QzgoW0NIMl1bQ0gyXVtDQEhdNltPSF0pQzcoW0NIM10pW0NIMl1bQ0gyXVtDQEBIXShbT0hdKVtDSDJdOA==

>  <s_epik_cmdline>  (110) 
J2VwaWtfcHl0aG9uJywgJy1waHQnLCAnMi4wJywgJy1waCcsICc3LjAnLCAnLXRuJywgJzgnLCAnLW1hJywgJzIwMCcsICctaW1hZScsICc8aW5maWxlLm1hZT4nLCAnLW9tYWUnLCAnPG91dGZpbGUubWFlPic=

>  <r_lp_tautomer_probability>  (110) 
1

>  <r_epik_Ionization_Penalty>  (110) 
4.17891e-06

>  <r_epik_Ionization_Penalty_Charging>  (110) 
0

>  <r_epik_Ionization_Penalty_Neutral>  (110) 
4.17891e-06

>  <r_epik_State_Penalty>  (110) 
-0

>  <r_epik_Charging_Adjusted_Penalty>  (110) 
0

>  <i_epik_Tot_Q>  (110) 
0

>  <i_epik_Tot_abs_Q>  (110) 
0

>  <s_epik_Chemistry_Notes>  (110) 
This compound has an ester and may undergo hydrolysis at high or low pH. This compound contains an acetal/aminal-like group ( X-CH(R)-Y where X, Y are N, S, or O) that may be acid/base labile, releasing an aldehyde.

>  <s_lp_Force_Field>  (110) 
OPLS3e

>  <r_lp_Energy>  (110) 
79.6229

>  <b_lp_Chiralities_Consistent>  (110) 
1

>  <s_lp_Variant>  (110) 
24:0-6

>  <s_i_glide_gridfile>  (110) 
pfpi4k_grid

>  <i_i_glide_lignum>  (110) 
5

>  <i_i_glide_rotatable_bonds>  (110) 
3

>  <r_i_docking_score>  (110) 
-2.73155

>  <r_i_glide_ligand_efficiency>  (110) 
-0.0758764

>  <r_i_glide_ligand_efficiency_sa>  (110) 
-0.250538

>  <r_i_glide_ligand_efficiency_ln>  (110) 
-0.59595

>  <r_i_glide_gscore>  (110) 
-2.73155

>  <r_i_glide_lipo>  (110) 
-0.258348

>  <r_i_glide_hbond>  (110) 
0

>  <r_i_glide_metal>  (110) 
-0

>  <r_i_glide_rewards>  (110) 
-0.722523

>  <r_i_glide_evdw>  (110) 
-20.835

>  <r_i_glide_ecoul>  (110) 
-4.57303

>  <r_i_glide_erotb>  (110) 
0

>  <r_i_glide_esite>  (110) 
-0.022972

>  <r_i_glide_emodel>  (110) 
-34.8394

>  <r_i_glide_energy>  (110) 
-25.4081

>  <r_i_glide_einternal>  (110) 
1.1392

>  <r_i_glide_intrahb_reward>  (110) 
-0.5

>  <i_i_glide_confnum>  (110) 
1

>  <i_i_glide_posenum>  (110) 
4

>  <r_i_glide_eff_state_penalty>  (110) 
0

>  <ligand_id>  (110) 
24

>  <original_smiles>  (110) 
CC1CC2C3(CC=C4C5(C)CCC(O)CC45CCC3O)C34CCC5(CC(=O)OC(O)C5C1(C)C23C)O4

>  <smiles>  (110) 
[H]OC1([H])OC(=O)C([H])([H])C23OC4(C([H])([H])C2([H])[H])C2(C([H])([H])C([H])=C5C6(C([H])([H])[H])C([H])([H])C([H])([H])C([H])(O[H])C([H])([H])C56C([H])([H])C([H])([H])C2([H])O[H])C2([H])C([H])([H])C([H])(C([H])([H])[H])C(C([H])([H])[H])(C13[H])C24C([H])([H])[H]

$$$$
24:5:1
     RDKit          3D

 78 85  0  0  1  0  0  0  0  0999 V2000
    5.8499   -0.6322    2.7150 C   0  0  0  0  0  0  0  0  0  0  0  0
    5.0904   -1.8916    2.2267 C   0  0  2  0  0  0  0  0  0  0  0  0
    4.8474   -2.9095    3.3726 C   0  0  0  0  0  0  0  0  0  0  0  0
    4.5765   -4.2523    2.7313 C   0  0  1  0  0  0  0  0  0  0  0  0
    3.1577   -4.7071    2.2647 C   0  0  1  0  0  0  0  0  0  0  0  0
    2.9009   -6.2401    2.3034 C   0  0  0  0  0  0  0  0  0  0  0  0
    3.0316   -6.9327    3.6404 C   0  0  0  0  0  0  0  0  0  0  0  0
    2.0423   -6.9451    4.5331 C   0  0  0  0  0  0  0  0  0  0  0  0
    1.5429   -7.3056    5.8792 C   0  0  2  0  0  0  0  0  0  0  0  0
    2.2305   -6.6967    7.0833 C   0  0  0  0  0  0  0  0  0  0  0  0
    1.1918   -8.7647    6.0824 C   0  0  0  0  0  0  0  0  0  0  0  0
   -0.2254   -9.1137    5.6107 C   0  0  0  0  0  0  0  0  0  0  0  0
   -0.5113   -8.5849    4.1882 C   0  0  1  0  0  0  0  0  0  0  0  0
   -1.7426   -9.0554    3.6715 O   0  0  0  0  0  0  0  0  0  0  0  0
   -0.5172   -7.0348    4.1749 C   0  0  0  0  0  0  0  0  0  0  0  0
    0.7046   -6.4215    4.8560 C   0  0  2  0  0  0  0  0  0  0  0  0
    0.6194   -4.9051    5.0004 C   0  0  0  0  0  0  0  0  0  0  0  0
    1.8217   -4.0887    4.4609 C   0  0  0  0  0  0  0  0  0  0  0  0
    1.9097   -4.0212    2.9136 C   0  0  1  0  0  0  0  0  0  0  0  0
    1.7846   -2.6515    2.5882 O   0  0  0  0  0  0  0  0  0  0  0  0
    3.5986   -4.2610    0.8432 C   0  0  2  0  0  0  0  0  0  0  0  0
    3.3139   -5.0445   -0.3891 C   0  0  0  0  0  0  0  0  0  0  0  0
    3.8001   -4.1211   -1.4954 C   0  0  0  0  0  0  0  0  0  0  0  0
    3.8033   -2.7516   -0.8130 C   0  0  2  0  0  0  0  0  0  0  0  0
    3.0514   -1.7255   -1.6741 C   0  0  0  0  0  0  0  0  0  0  0  0
    4.0064   -1.0368   -2.6466 C   0  0  0  0  0  0  0  0  0  0  0  0
    3.7389   -0.8638   -3.8320 O   0  0  0  0  0  0  0  0  0  0  0  0
    5.1853   -0.6250   -2.1111 O   0  0  0  0  0  0  0  0  0  0  0  0
    5.4142   -0.8133   -0.7419 C   0  0  1  0  0  0  0  0  0  0  0  0
    4.5664    0.0058    0.0390 O   0  0  0  0  0  0  0  0  0  0  0  0
    5.2364   -2.2949   -0.4215 C   0  0  1  0  0  0  0  0  0  0  0  0
    5.6735   -2.7318    1.0238 C   0  0  1  0  0  0  0  0  0  0  0  0
    7.1992   -2.7748    1.0409 C   0  0  0  0  0  0  0  0  0  0  0  0
    5.0793   -4.1533    1.2885 C   0  0  1  0  0  0  0  0  0  0  0  0
    6.0344   -5.2913    0.8326 C   0  0  0  0  0  0  0  0  0  0  0  0
    3.1003   -2.9960    0.3834 O   0  0  0  0  0  0  0  0  0  0  0  0
    6.8040   -0.9001    3.1434 H   0  0  0  0  0  0  0  0  0  0  0  0
    5.2755   -0.1314    3.5089 H   0  0  0  0  0  0  0  0  0  0  0  0
    6.1323    0.0615    1.9253 H   0  0  0  0  0  0  0  0  0  0  0  0
    4.0886   -1.5428    1.9467 H   0  0  0  0  0  0  0  0  0  0  0  0
    5.7432   -2.9852    3.9985 H   0  0  0  0  0  0  0  0  0  0  0  0
    4.0597   -2.5608    4.0392 H   0  0  0  0  0  0  0  0  0  0  0  0
    5.0892   -5.0710    3.2638 H   0  0  0  0  0  0  0  0  0  0  0  0
    1.9128   -6.4594    1.9056 H   0  0  0  0  0  0  0  0  0  0  0  0
    3.5887   -6.7756    1.6593 H   0  0  0  0  0  0  0  0  0  0  0  0
    3.9691   -7.4209    3.8668 H   0  0  0  0  0  0  0  0  0  0  0  0
    1.5172   -6.6074    7.9035 H   0  0  0  0  0  0  0  0  0  0  0  0
    2.6113   -5.7024    6.8500 H   0  0  0  0  0  0  0  0  0  0  0  0
    3.0662   -7.3153    7.4130 H   0  0  0  0  0  0  0  0  0  0  0  0
    1.9095   -9.3777    5.5401 H   0  0  0  0  0  0  0  0  0  0  0  0
    1.3026   -9.0372    7.1331 H   0  0  0  0  0  0  0  0  0  0  0  0
   -0.2535  -10.2002    5.6553 H   0  0  0  0  0  0  0  0  0  0  0  0
   -0.9578   -8.7366    6.3157 H   0  0  0  0  0  0  0  0  0  0  0  0
    0.2467   -8.9652    3.5123 H   0  0  0  0  0  0  0  0  0  0  0  0
   -1.9708   -9.8428    4.1851 H   0  0  0  0  0  0  0  0  0  0  0  0
   -0.5783   -6.6648    3.1497 H   0  0  0  0  0  0  0  0  0  0  0  0
   -1.3970   -6.6575    4.6949 H   0  0  0  0  0  0  0  0  0  0  0  0
   -0.2952   -4.5312    4.5452 H   0  0  0  0  0  0  0  0  0  0  0  0
    0.5300   -4.6962    6.0666 H   0  0  0  0  0  0  0  0  0  0  0  0
    1.6945   -3.0757    4.8405 H   0  0  0  0  0  0  0  0  0  0  0  0
    2.7660   -4.4104    4.8978 H   0  0  0  0  0  0  0  0  0  0  0  0
    1.0293   -4.4854    2.4869 H   0  0  0  0  0  0  0  0  0  0  0  0
    2.0251   -2.5706    1.6684 H   0  0  0  0  0  0  0  0  0  0  0  0
    3.8260   -6.0233   -0.4394 H   0  0  0  0  0  0  0  0  0  0  0  0
    2.2340   -5.2009   -0.4825 H   0  0  0  0  0  0  0  0  0  0  0  0
    4.7769   -4.4017   -1.8798 H   0  0  0  0  0  0  0  0  0  0  0  0
    3.1129   -4.0544   -2.3367 H   0  0  0  0  0  0  0  0  0  0  0  0
    2.2303   -2.1344   -2.2510 H   0  0  0  0  0  0  0  0  0  0  0  0
    2.6712   -0.9079   -1.0600 H   0  0  0  0  0  0  0  0  0  0  0  0
    6.4440   -0.5469   -0.4719 H   0  0  0  0  0  0  0  0  0  0  0  0
    4.8596    0.8974   -0.1137 H   0  0  0  0  0  0  0  0  0  0  0  0
    5.9016   -2.7871   -1.1205 H   0  0  0  0  0  0  0  0  0  0  0  0
    7.6690   -3.3275    0.2091 H   0  0  0  0  0  0  0  0  0  0  0  0
    7.3869   -3.2629    1.9876 H   0  0  0  0  0  0  0  0  0  0  0  0
    7.6269   -1.7715    1.0427 H   0  0  0  0  0  0  0  0  0  0  0  0
    6.3000   -5.1988   -0.2234 H   0  0  0  0  0  0  0  0  0  0  0  0
    5.5782   -6.2735    0.9706 H   0  0  0  0  0  0  0  0  0  0  0  0
    6.9594   -5.3225    1.4160 H   0  0  0  0  0  0  0  0  0  0  0  0
  1  2  1  0
  1 37  1  0
  1 38  1  0
  1 39  1  0
  2 32  1  0
  2  3  1  0
  2 40  1  6
  3  4  1  0
  3 41  1  0
  3 42  1  0
  4 34  1  0
  4  5  1  0
  4 43  1  1
  5 19  1  0
  5  6  1  6
  5 21  1  0
  6  7  1  0
  6 44  1  0
  6 45  1  0
  7  8  2  3
  7 46  1  0
  8 16  1  0
  8  9  1  0
  9 16  1  0
  9 10  1  1
  9 11  1  0
 10 47  1  0
 10 48  1  0
 10 49  1  0
 11 12  1  0
 11 50  1  0
 11 51  1  0
 12 13  1  0
 12 52  1  0
 12 53  1  0
 13 14  1  0
 13 15  1  0
 13 54  1  6
 14 55  1  0
 16 15  1  6
 15 56  1  0
 15 57  1  0
 16 17  1  0
 17 18  1  0
 17 58  1  0
 17 59  1  0
 18 19  1  0
 18 60  1  0
 18 61  1  0
 19 20  1  0
 19 62  1  6
 20 63  1  0
 21 34  1  0
 21 36  1  0
 21 22  1  6
 22 23  1  0
 22 64  1  0
 22 65  1  0
 24 23  1  6
 23 66  1  0
 23 67  1  0
 24 31  1  0
 24 25  1  0
 24 36  1  0
 25 26  1  0
 25 68  1  0
 25 69  1  0
 26 27  2  0
 26 28  1  0
 28 29  1  0
 29 30  1  0
 29 31  1  0
 29 70  1  6
 30 71  1  0
 31 32  1  0
 31 72  1  6
 32 33  1  6
 32 34  1  0
 33 73  1  0
 33 74  1  0
 33 75  1  0
 34 35  1  6
 35 76  1  0
 35 77  1  0
 35 78  1  0
M  END
>  <i_m_ct_stereo_status>  (111) 
1

>  <s_m_source_file>  (111) 
/var/tmp/pbs.5076255.sched01/tmpyrjfudeo/454urwji6r.sdf

>  <i_m_source_file_index>  (111) 
5

>  <i_lp_mmshare_version>  (111) 
48012

>  <i_f3d_flags>  (111) 
0

>  <s_epik_input>  (111) 
W09IXVtDQEBIXTFPQyg9TylbQ0gyXVtDQEBdKE8yKShbQ0gyXVtDSDJdMylbQ0BASF0xW0NAQF00KFtDSDNdKVtDQEhdKFtDSDNdKVtDSDJdW0NAQEhdNVtDQEBdNChbQ0gzXSlbQ0BAXTIzW0NAQF01NltDSDJdL1tDSF09Qy83QzgoW0NIMl1bQ0gyXVtDQEhdNltPSF0pQzcoW0NIM10pW0NIMl1bQ0gyXVtDQEBIXShbT0hdKVtDSDJdOA==

>  <s_epik_cmdline>  (111) 
J2VwaWtfcHl0aG9uJywgJy1waHQnLCAnMi4wJywgJy1waCcsICc3LjAnLCAnLXRuJywgJzgnLCAnLW1hJywgJzIwMCcsICctaW1hZScsICc8aW5maWxlLm1hZT4nLCAnLW9tYWUnLCAnPG91dGZpbGUubWFlPic=

>  <r_lp_tautomer_probability>  (111) 
1

>  <r_epik_Ionization_Penalty>  (111) 
4.17891e-06

>  <r_epik_Ionization_Penalty_Charging>  (111) 
0

>  <r_epik_Ionization_Penalty_Neutral>  (111) 
4.17891e-06

>  <r_epik_State_Penalty>  (111) 
-0

>  <r_epik_Charging_Adjusted_Penalty>  (111) 
0

>  <i_epik_Tot_Q>  (111) 
0

>  <i_epik_Tot_abs_Q>  (111) 
0

>  <s_epik_Chemistry_Notes>  (111) 
This compound has an ester and may undergo hydrolysis at high or low pH. This compound contains an acetal/aminal-like group ( X-CH(R)-Y where X, Y are N, S, or O) that may be acid/base labile, releasing an aldehyde.

>  <s_lp_Force_Field>  (111) 
OPLS3e

>  <r_lp_Energy>  (111) 
79.6229

>  <b_lp_Chiralities_Consistent>  (111) 
1

>  <s_lp_Variant>  (111) 
24:0-6

>  <s_i_glide_gridfile>  (111) 
pfpi4k_grid

>  <i_i_glide_lignum>  (111) 
5

>  <i_i_glide_rotatable_bonds>  (111) 
3

>  <r_i_docking_score>  (111) 
-2.71148

>  <r_i_glide_ligand_efficiency>  (111) 
-0.0753189

>  <r_i_glide_ligand_efficiency_sa>  (111) 
-0.248698

>  <r_i_glide_ligand_efficiency_ln>  (111) 
-0.591572

>  <r_i_glide_gscore>  (111) 
-2.71148

>  <r_i_glide_lipo>  (111) 
-0.471311

>  <r_i_glide_hbond>  (111) 
-0.15203

>  <r_i_glide_metal>  (111) 
-0

>  <r_i_glide_rewards>  (111) 
-0.509199

>  <r_i_glide_evdw>  (111) 
-6.05892

>  <r_i_glide_ecoul>  (111) 
-8.08291

>  <r_i_glide_erotb>  (111) 
0

>  <r_i_glide_esite>  (111) 
-0.0635571

>  <r_i_glide_emodel>  (111) 
-22.0314

>  <r_i_glide_energy>  (111) 
-14.1418

>  <r_i_glide_einternal>  (111) 
1.71124

>  <r_i_glide_intrahb_reward>  (111) 
-0.5

>  <i_i_glide_confnum>  (111) 
1

>  <i_i_glide_posenum>  (111) 
8

>  <r_i_glide_eff_state_penalty>  (111) 
0

>  <ligand_id>  (111) 
24

>  <original_smiles>  (111) 
CC1CC2C3(CC=C4C5(C)CCC(O)CC45CCC3O)C34CCC5(CC(=O)OC(O)C5C1(C)C23C)O4

>  <smiles>  (111) 
[H]OC1([H])OC(=O)C([H])([H])C23OC4(C([H])([H])C2([H])[H])C2(C([H])([H])C([H])=C5C6(C([H])([H])[H])C([H])([H])C([H])([H])C([H])(O[H])C([H])([H])C56C([H])([H])C([H])([H])C2([H])O[H])C2([H])C([H])([H])C([H])(C([H])([H])[H])C(C([H])([H])[H])(C13[H])C24C([H])([H])[H]

$$$$
24:5:2
     RDKit          3D

 78 85  0  0  1  0  0  0  0  0999 V2000
    6.2855   -8.3697    1.9391 C   0  0  0  0  0  0  0  0  0  0  0  0
    5.1165   -7.6174    2.6116 C   0  0  2  0  0  0  0  0  0  0  0  0
    5.4050   -6.1043    2.6239 C   0  0  0  0  0  0  0  0  0  0  0  0
    4.5722   -5.5148    3.7445 C   0  0  1  0  0  0  0  0  0  0  0  0
    3.1097   -5.0105    3.5563 C   0  0  1  0  0  0  0  0  0  0  0  0
    2.6782   -3.8320    4.4832 C   0  0  0  0  0  0  0  0  0  0  0  0
    3.4701   -2.5427    4.3894 C   0  0  0  0  0  0  0  0  0  0  0  0
    3.2226   -1.6179    3.4665 C   0  0  0  0  0  0  0  0  0  0  0  0
    3.5782   -0.3368    2.8112 C   0  0  2  0  0  0  0  0  0  0  0  0
    4.9382   -0.2283    2.1467 C   0  0  0  0  0  0  0  0  0  0  0  0
    3.1604    0.9249    3.5570 C   0  0  0  0  0  0  0  0  0  0  0  0
    1.7142    1.3573    3.2607 C   0  0  0  0  0  0  0  0  0  0  0  0
    0.7360    0.1838    3.4074 C   0  0  1  0  0  0  0  0  0  0  0  0
   -0.5910    0.6475    3.2671 O   0  0  0  0  0  0  0  0  0  0  0  0
    1.0091   -0.9053    2.3561 C   0  0  0  0  0  0  0  0  0  0  0  0
    2.4671   -1.3181    2.2424 C   0  0  2  0  0  0  0  0  0  0  0  0
    2.7368   -2.2412    1.0539 C   0  0  0  0  0  0  0  0  0  0  0  0
    3.4849   -3.5610    1.3622 C   0  0  0  0  0  0  0  0  0  0  0  0
    2.6269   -4.6241    2.1060 C   0  0  1  0  0  0  0  0  0  0  0  0
    2.5466   -5.7116    1.2087 O   0  0  0  0  0  0  0  0  0  0  0  0
    2.6742   -6.3712    4.1848 C   0  0  2  0  0  0  0  0  0  0  0  0
    1.5466   -6.5333    5.1890 C   0  0  0  0  0  0  0  0  0  0  0  0
    1.4130   -8.0421    5.3050 C   0  0  0  0  0  0  0  0  0  0  0  0
    2.1010   -8.5745    4.0216 C   0  0  2  0  0  0  0  0  0  0  0  0
    1.1999   -9.5904    3.2883 C   0  0  0  0  0  0  0  0  0  0  0  0
    1.4925  -11.0202    3.7579 C   0  0  0  0  0  0  0  0  0  0  0  0
    0.5870  -11.7944    4.0342 O   0  0  0  0  0  0  0  0  0  0  0  0
    2.8078  -11.3870    3.8291 O   0  0  0  0  0  0  0  0  0  0  0  0
    3.7813  -10.4453    3.4615 C   0  0  1  0  0  0  0  0  0  0  0  0
    3.7726  -10.2433    2.0705 O   0  0  0  0  0  0  0  0  0  0  0  0
    3.5591   -9.1083    4.2507 C   0  0  1  0  0  0  0  0  0  0  0  0
    4.7024   -8.0210    4.0825 C   0  0  1  0  0  0  0  0  0  0  0  0
    5.9623   -8.5022    4.8433 C   0  0  0  0  0  0  0  0  0  0  0  0
    4.1289   -6.6748    4.6381 C   0  0  1  0  0  0  0  0  0  0  0  0
    4.4182   -6.4970    6.1451 C   0  0  0  0  0  0  0  0  0  0  0  0
    2.2529   -7.3771    3.2687 O   0  0  0  0  0  0  0  0  0  0  0  0
    7.2439   -8.1406    2.4084 H   0  0  0  0  0  0  0  0  0  0  0  0
    6.3655   -8.0780    0.8916 H   0  0  0  0  0  0  0  0  0  0  0  0
    6.1616   -9.4498    1.9655 H   0  0  0  0  0  0  0  0  0  0  0  0
    4.2502   -7.7498    1.9689 H   0  0  0  0  0  0  0  0  0  0  0  0
    6.4584   -5.9370    2.8499 H   0  0  0  0  0  0  0  0  0  0  0  0
    5.2416   -5.6399    1.6518 H   0  0  0  0  0  0  0  0  0  0  0  0
    5.1379   -4.7792    4.3149 H   0  0  0  0  0  0  0  0  0  0  0  0
    1.6239   -3.5936    4.3220 H   0  0  0  0  0  0  0  0  0  0  0  0
    2.7314   -4.1161    5.5301 H   0  0  0  0  0  0  0  0  0  0  0  0
    4.2426   -2.3848    5.1256 H   0  0  0  0  0  0  0  0  0  0  0  0
    4.8724    0.4661    1.3083 H   0  0  0  0  0  0  0  0  0  0  0  0
    5.2609   -1.1898    1.7530 H   0  0  0  0  0  0  0  0  0  0  0  0
    5.6948    0.1235    2.8502 H   0  0  0  0  0  0  0  0  0  0  0  0
    3.2890    0.7564    4.6272 H   0  0  0  0  0  0  0  0  0  0  0  0
    3.8182    1.7489    3.2948 H   0  0  0  0  0  0  0  0  0  0  0  0
    1.4391    2.1594    3.9464 H   0  0  0  0  0  0  0  0  0  0  0  0
    1.6471    1.7812    2.2552 H   0  0  0  0  0  0  0  0  0  0  0  0
    0.8305   -0.2345    4.4083 H   0  0  0  0  0  0  0  0  0  0  0  0
   -0.6691    1.1059    2.4398 H   0  0  0  0  0  0  0  0  0  0  0  0
    0.4220   -1.7932    2.5882 H   0  0  0  0  0  0  0  0  0  0  0  0
    0.6941   -0.5383    1.3785 H   0  0  0  0  0  0  0  0  0  0  0  0
    1.8123   -2.4710    0.5345 H   0  0  0  0  0  0  0  0  0  0  0  0
    3.3268   -1.6704    0.3391 H   0  0  0  0  0  0  0  0  0  0  0  0
    3.7904   -3.9565    0.3928 H   0  0  0  0  0  0  0  0  0  0  0  0
    4.4341   -3.3802    1.8697 H   0  0  0  0  0  0  0  0  0  0  0  0
    1.6000   -4.2683    2.1626 H   0  0  0  0  0  0  0  0  0  0  0  0
    3.3918   -6.1368    1.1873 H   0  0  0  0  0  0  0  0  0  0  0  0
    1.7328   -6.0738    6.1607 H   0  0  0  0  0  0  0  0  0  0  0  0
    0.6261   -6.1046    4.7899 H   0  0  0  0  0  0  0  0  0  0  0  0
    1.8961   -8.4182    6.2062 H   0  0  0  0  0  0  0  0  0  0  0  0
    0.3624   -8.3225    5.3764 H   0  0  0  0  0  0  0  0  0  0  0  0
    0.1463   -9.3727    3.4359 H   0  0  0  0  0  0  0  0  0  0  0  0
    1.3655   -9.5490    2.2160 H   0  0  0  0  0  0  0  0  0  0  0  0
    4.7507  -10.8769    3.7143 H   0  0  0  0  0  0  0  0  0  0  0  0
    3.9109  -11.0676    1.5923 H   0  0  0  0  0  0  0  0  0  0  0  0
    3.5871   -9.4293    5.2947 H   0  0  0  0  0  0  0  0  0  0  0  0
    5.7557   -8.7494    5.8870 H   0  0  0  0  0  0  0  0  0  0  0  0
    6.7432   -7.7422    4.8221 H   0  0  0  0  0  0  0  0  0  0  0  0
    6.3739   -9.4061    4.3935 H   0  0  0  0  0  0  0  0  0  0  0  0
    4.0108   -7.3179    6.7375 H   0  0  0  0  0  0  0  0  0  0  0  0
    3.9804   -5.5814    6.5352 H   0  0  0  0  0  0  0  0  0  0  0  0
    5.4862   -6.4179    6.3579 H   0  0  0  0  0  0  0  0  0  0  0  0
  1  2  1  0
  1 37  1  0
  1 38  1  0
  1 39  1  0
  2 32  1  0
  2  3  1  0
  2 40  1  6
  3  4  1  0
  3 41  1  0
  3 42  1  0
  4 34  1  0
  4  5  1  0
  4 43  1  1
  5 19  1  0
  5  6  1  1
  5 21  1  0
  6  7  1  0
  6 44  1  0
  6 45  1  0
  7  8  2  3
  7 46  1  0
  8 16  1  0
  8  9  1  0
  9 16  1  0
  9 10  1  6
  9 11  1  0
 10 47  1  0
 10 48  1  0
 10 49  1  0
 11 12  1  0
 11 50  1  0
 11 51  1  0
 12 13  1  0
 12 52  1  0
 12 53  1  0
 13 14  1  0
 13 15  1  0
 13 54  1  1
 14 55  1  0
 16 15  1  1
 15 56  1  0
 15 57  1  0
 16 17  1  0
 17 18  1  0
 17 58  1  0
 17 59  1  0
 18 19  1  0
 18 60  1  0
 18 61  1  0
 19 20  1  0
 19 62  1  1
 20 63  1  0
 21 34  1  0
 21 36  1  0
 21 22  1  1
 22 23  1  0
 22 64  1  0
 22 65  1  0
 24 23  1  1
 23 66  1  0
 23 67  1  0
 24 31  1  0
 24 25  1  0
 24 36  1  0
 25 26  1  0
 25 68  1  0
 25 69  1  0
 26 27  2  0
 26 28  1  0
 28 29  1  0
 29 30  1  0
 29 31  1  0
 29 70  1  1
 30 71  1  0
 31 32  1  0
 31 72  1  1
 32 33  1  1
 32 34  1  0
 33 73  1  0
 33 74  1  0
 33 75  1  0
 34 35  1  1
 35 76  1  0
 35 77  1  0
 35 78  1  0
M  END
>  <i_m_ct_stereo_status>  (112) 
1

>  <s_m_source_file>  (112) 
/var/tmp/pbs.5076255.sched01/tmpyrjfudeo/454urwji6r.sdf

>  <i_m_source_file_index>  (112) 
5

>  <i_lp_mmshare_version>  (112) 
48012

>  <i_f3d_flags>  (112) 
0

>  <s_epik_input>  (112) 
W09IXVtDQEBIXTFPQyg9TylbQ0gyXVtDQEBdKE8yKShbQ0gyXVtDSDJdMylbQ0BASF0xW0NAQF00KFtDSDNdKVtDQEhdKFtDSDNdKVtDSDJdW0NAQEhdNVtDQEBdNChbQ0gzXSlbQ0BAXTIzW0NAQF01NltDSDJdL1tDSF09Qy83QzgoW0NIMl1bQ0gyXVtDQEhdNltPSF0pQzcoW0NIM10pW0NIMl1bQ0gyXVtDQEBIXShbT0hdKVtDSDJdOA==

>  <s_epik_cmdline>  (112) 
J2VwaWtfcHl0aG9uJywgJy1waHQnLCAnMi4wJywgJy1waCcsICc3LjAnLCAnLXRuJywgJzgnLCAnLW1hJywgJzIwMCcsICctaW1hZScsICc8aW5maWxlLm1hZT4nLCAnLW9tYWUnLCAnPG91dGZpbGUubWFlPic=

>  <r_lp_tautomer_probability>  (112) 
1

>  <r_epik_Ionization_Penalty>  (112) 
4.17891e-06

>  <r_epik_Ionization_Penalty_Charging>  (112) 
0

>  <r_epik_Ionization_Penalty_Neutral>  (112) 
4.17891e-06

>  <r_epik_State_Penalty>  (112) 
-0

>  <r_epik_Charging_Adjusted_Penalty>  (112) 
0

>  <i_epik_Tot_Q>  (112) 
0

>  <i_epik_Tot_abs_Q>  (112) 
0

>  <s_epik_Chemistry_Notes>  (112) 
This compound has an ester and may undergo hydrolysis at high or low pH. This compound contains an acetal/aminal-like group ( X-CH(R)-Y where X, Y are N, S, or O) that may be acid/base labile, releasing an aldehyde.

>  <s_lp_Force_Field>  (112) 
OPLS3e

>  <r_lp_Energy>  (112) 
79.6229

>  <b_lp_Chiralities_Consistent>  (112) 
1

>  <s_lp_Variant>  (112) 
24:0-6

>  <s_i_glide_gridfile>  (112) 
pfpi4k_grid

>  <i_i_glide_lignum>  (112) 
5

>  <i_i_glide_rotatable_bonds>  (112) 
3

>  <r_i_docking_score>  (112) 
-2.31502

>  <r_i_glide_ligand_efficiency>  (112) 
-0.0643061

>  <r_i_glide_ligand_efficiency_sa>  (112) 
-0.212334

>  <r_i_glide_ligand_efficiency_ln>  (112) 
-0.505075

>  <r_i_glide_gscore>  (112) 
-2.31502

>  <r_i_glide_lipo>  (112) 
-0.237262

>  <r_i_glide_hbond>  (112) 
0

>  <r_i_glide_metal>  (112) 
-0

>  <r_i_glide_rewards>  (112) 
-0.168049

>  <r_i_glide_evdw>  (112) 
-21.394

>  <r_i_glide_ecoul>  (112) 
-5.45775

>  <r_i_glide_erotb>  (112) 
0

>  <r_i_glide_esite>  (112) 
-0.0213449

>  <r_i_glide_emodel>  (112) 
-30.8673

>  <r_i_glide_energy>  (112) 
-26.8518

>  <r_i_glide_einternal>  (112) 
0.48765

>  <r_i_glide_intrahb_reward>  (112) 
-0

>  <i_i_glide_confnum>  (112) 
2

>  <i_i_glide_posenum>  (112) 
7

>  <r_i_glide_eff_state_penalty>  (112) 
0

>  <ligand_id>  (112) 
24

>  <original_smiles>  (112) 
CC1CC2C3(CC=C4C5(C)CCC(O)CC45CCC3O)C34CCC5(CC(=O)OC(O)C5C1(C)C23C)O4

>  <smiles>  (112) 
[H]OC1([H])OC(=O)C([H])([H])C23OC4(C([H])([H])C2([H])[H])C2(C([H])([H])C([H])=C5C6(C([H])([H])[H])C([H])([H])C([H])([H])C([H])(O[H])C([H])([H])C56C([H])([H])C([H])([H])C2([H])O[H])C2([H])C([H])([H])C([H])(C([H])([H])[H])C(C([H])([H])[H])(C13[H])C24C([H])([H])[H]

$$$$
24:6:0
     RDKit          3D

 78 85  0  0  1  0  0  0  0  0999 V2000
    2.8790  -10.2497    2.0049 C   0  0  0  0  0  0  0  0  0  0  0  0
    2.7540   -8.8246    2.5553 C   0  0  2  0  0  0  0  0  0  0  0  0
    3.7365   -7.8713    1.8671 C   0  0  0  0  0  0  0  0  0  0  0  0
    3.8822   -6.6888    2.8033 C   0  0  1  0  0  0  0  0  0  0  0  0
    2.9524   -5.4398    2.7587 C   0  0  1  0  0  0  0  0  0  0  0  0
    3.5832   -4.0796    3.1714 C   0  0  0  0  0  0  0  0  0  0  0  0
    4.8356   -3.6563    2.4181 C   0  0  0  0  0  0  0  0  0  0  0  0
    4.8153   -2.9699    1.2728 C   0  0  0  0  0  0  0  0  0  0  0  0
    5.5927   -2.3882    0.2025 C   0  0  1  0  0  0  0  0  0  0  0  0
    6.5020   -1.2641    0.6981 C   0  0  0  0  0  0  0  0  0  0  0  0
    5.8969   -2.7836   -1.2161 C   0  0  0  0  0  0  0  0  0  0  0  0
    5.3708   -1.6588   -2.1542 C   0  0  0  0  0  0  0  0  0  0  0  0
    4.0812   -0.8728   -1.7111 C   0  0  1  0  0  0  0  0  0  0  0  0
    3.0148   -1.2296   -2.5525 O   0  0  0  0  0  0  0  0  0  0  0  0
    3.6578   -1.0094   -0.2171 C   0  0  0  0  0  0  0  0  0  0  0  0
    3.9647   -2.3987    0.2474 C   0  0  2  0  0  0  0  0  0  0  0  0
    3.0124   -3.4303   -0.3794 C   0  0  0  0  0  0  0  0  0  0  0  0
    3.0491   -4.8715    0.1771 C   0  0  0  0  0  0  0  0  0  0  0  0
    2.1814   -5.1299    1.4405 C   0  0  1  0  0  0  0  0  0  0  0  0
    1.2466   -6.1156    1.0471 O   0  0  0  0  0  0  0  0  0  0  0  0
    2.2020   -6.0721    3.9607 C   0  0  2  0  0  0  0  0  0  0  0  0
    1.6193   -5.3232    5.1465 C   0  0  0  0  0  0  0  0  0  0  0  0
    0.7562   -6.3755    5.8320 C   0  0  0  0  0  0  0  0  0  0  0  0
    0.6086   -7.4887    4.7741 C   0  0  2  0  0  0  0  0  0  0  0  0
   -0.8402   -7.9334    4.5172 C   0  0  0  0  0  0  0  0  0  0  0  0
   -0.9006   -9.0027    3.4479 C   0  0  0  0  0  0  0  0  0  0  0  0
   -1.7706   -8.8936    2.5918 O   0  0  0  0  0  0  0  0  0  0  0  0
   -0.0008  -10.0254    3.5801 O   0  0  0  0  0  0  0  0  0  0  0  0
    0.7795  -10.0416    4.7760 C   0  0  1  0  0  0  0  0  0  0  0  0
    1.5365  -11.2237    4.9154 O   0  0  0  0  0  0  0  0  0  0  0  0
    1.5866   -8.7001    4.9698 C   0  0  1  0  0  0  0  0  0  0  0  0
    2.9073   -8.5932    4.1104 C   0  0  1  0  0  0  0  0  0  0  0  0
    4.0403   -9.5171    4.6495 C   0  0  0  0  0  0  0  0  0  0  0  0
    3.3403   -7.0993    4.1737 C   0  0  1  0  0  0  0  0  0  0  0  0
    4.2629   -6.8064    5.3782 C   0  0  0  0  0  0  0  0  0  0  0  0
    1.0531   -6.8002    3.6170 O   0  0  0  0  0  0  0  0  0  0  0  0
    3.8727  -10.6675    2.1590 H   0  0  0  0  0  0  0  0  0  0  0  0
    2.7057  -10.2368    0.9280 H   0  0  0  0  0  0  0  0  0  0  0  0
    2.1475  -10.9262    2.4463 H   0  0  0  0  0  0  0  0  0  0  0  0
    1.7562   -8.5226    2.2543 H   0  0  0  0  0  0  0  0  0  0  0  0
    4.6985   -8.3589    1.7762 H   0  0  0  0  0  0  0  0  0  0  0  0
    3.4406   -7.6081    0.8589 H   0  0  0  0  0  0  0  0  0  0  0  0
    4.9059   -6.3462    2.8849 H   0  0  0  0  0  0  0  0  0  0  0  0
    2.8527   -3.2641    3.0933 H   0  0  0  0  0  0  0  0  0  0  0  0
    3.8649   -4.0783    4.2222 H   0  0  0  0  0  0  0  0  0  0  0  0
    5.7830   -3.9451    2.8676 H   0  0  0  0  0  0  0  0  0  0  0  0
    6.4872   -0.4116    0.0232 H   0  0  0  0  0  0  0  0  0  0  0  0
    7.5239   -1.6204    0.8050 H   0  0  0  0  0  0  0  0  0  0  0  0
    6.1613   -0.9049    1.6671 H   0  0  0  0  0  0  0  0  0  0  0  0
    6.9681   -2.9387   -1.3470 H   0  0  0  0  0  0  0  0  0  0  0  0
    5.4113   -3.7245   -1.4471 H   0  0  0  0  0  0  0  0  0  0  0  0
    6.1681   -0.9259   -2.2126 H   0  0  0  0  0  0  0  0  0  0  0  0
    5.2555   -2.0299   -3.1782 H   0  0  0  0  0  0  0  0  0  0  0  0
    4.2805    0.1732   -1.9405 H   0  0  0  0  0  0  0  0  0  0  0  0
    2.1966   -1.0343   -2.0788 H   0  0  0  0  0  0  0  0  0  0  0  0
    4.1754   -0.2948    0.3992 H   0  0  0  0  0  0  0  0  0  0  0  0
    2.6188   -0.7745   -0.0558 H   0  0  0  0  0  0  0  0  0  0  0  0
    1.9950   -3.0516   -0.3287 H   0  0  0  0  0  0  0  0  0  0  0  0
    3.2260   -3.4947   -1.4418 H   0  0  0  0  0  0  0  0  0  0  0  0
    2.6215   -5.4567   -0.6317 H   0  0  0  0  0  0  0  0  0  0  0  0
    4.0624   -5.2748    0.2664 H   0  0  0  0  0  0  0  0  0  0  0  0
    1.5683   -4.2537    1.6354 H   0  0  0  0  0  0  0  0  0  0  0  0
    1.6937   -6.9623    1.0568 H   0  0  0  0  0  0  0  0  0  0  0  0
    2.3665   -4.9127    5.8161 H   0  0  0  0  0  0  0  0  0  0  0  0
    1.0027   -4.5044    4.7929 H   0  0  0  0  0  0  0  0  0  0  0  0
    1.2276   -6.7373    6.7469 H   0  0  0  0  0  0  0  0  0  0  0  0
   -0.1967   -5.9391    6.1221 H   0  0  0  0  0  0  0  0  0  0  0  0
   -1.2842   -8.3274    5.4286 H   0  0  0  0  0  0  0  0  0  0  0  0
   -1.4510   -7.0731    4.2186 H   0  0  0  0  0  0  0  0  0  0  0  0
    0.0767  -10.1211    5.6117 H   0  0  0  0  0  0  0  0  0  0  0  0
    1.4087  -11.5889    5.8143 H   0  0  0  0  0  0  0  0  0  0  0  0
    1.8823   -8.7238    6.0196 H   0  0  0  0  0  0  0  0  0  0  0  0
    4.1613   -9.4351    5.7303 H   0  0  0  0  0  0  0  0  0  0  0  0
    4.9917   -9.2716    4.1729 H   0  0  0  0  0  0  0  0  0  0  0  0
    3.8614  -10.5678    4.4365 H   0  0  0  0  0  0  0  0  0  0  0  0
    3.7908   -7.0731    6.3288 H   0  0  0  0  0  0  0  0  0  0  0  0
    4.5159   -5.7500    5.4438 H   0  0  0  0  0  0  0  0  0  0  0  0
    5.2271   -7.3196    5.3203 H   0  0  0  0  0  0  0  0  0  0  0  0
  1  2  1  0
  1 37  1  0
  1 38  1  0
  1 39  1  0
  2 32  1  0
  2  3  1  0
  2 40  1  6
  3  4  1  0
  3 41  1  0
  3 42  1  0
  4 34  1  0
  4  5  1  0
  4 43  1  1
  5 19  1  0
  5  6  1  1
  5 21  1  0
  6  7  1  0
  6 44  1  0
  6 45  1  0
  7  8  2  3
  7 46  1  0
  8 16  1  0
  8  9  1  0
  9 16  1  0
  9 10  1  1
  9 11  1  0
 10 47  1  0
 10 48  1  0
 10 49  1  0
 11 12  1  0
 11 50  1  0
 11 51  1  0
 12 13  1  0
 12 52  1  0
 12 53  1  0
 13 14  1  0
 13 15  1  0
 13 54  1  6
 14 55  1  0
 16 15  1  1
 15 56  1  0
 15 57  1  0
 16 17  1  0
 17 18  1  0
 17 58  1  0
 17 59  1  0
 18 19  1  0
 18 60  1  0
 18 61  1  0
 19 20  1  0
 19 62  1  1
 20 63  1  0
 21 34  1  0
 21 36  1  0
 21 22  1  1
 22 23  1  0
 22 64  1  0
 22 65  1  0
 24 23  1  1
 23 66  1  0
 23 67  1  0
 24 31  1  0
 24 25  1  0
 24 36  1  0
 25 26  1  0
 25 68  1  0
 25 69  1  0
 26 27  2  0
 26 28  1  0
 28 29  1  0
 29 30  1  0
 29 31  1  0
 29 70  1  1
 30 71  1  0
 31 32  1  0
 31 72  1  1
 32 33  1  1
 32 34  1  0
 33 73  1  0
 33 74  1  0
 33 75  1  0
 34 35  1  1
 35 76  1  0
 35 77  1  0
 35 78  1  0
M  END
>  <i_m_ct_stereo_status>  (113) 
1

>  <s_m_source_file>  (113) 
/var/tmp/pbs.5076255.sched01/tmpyrjfudeo/454urwji6r.sdf

>  <i_m_source_file_index>  (113) 
6

>  <i_lp_mmshare_version>  (113) 
48012

>  <i_f3d_flags>  (113) 
0

>  <s_epik_input>  (113) 
W09IXVtDQEBIXTFPQyg9TylbQ0gyXVtDQEBdKE8yKShbQ0gyXVtDSDJdMylbQ0BASF0xW0NAQF00KFtDSDNdKVtDQEhdKFtDSDNdKVtDSDJdW0NAQEhdNVtDQEBdNChbQ0gzXSlbQ0BAXTIzW0NAQF01NltDSDJdL1tDSF09Qy83QzgoW0NIMl1bQ0gyXVtDQEhdNltPSF0pQzcoW0NIM10pW0NIMl1bQ0gyXVtDQEBIXShbT0hdKVtDSDJdOA==

>  <s_epik_cmdline>  (113) 
J2VwaWtfcHl0aG9uJywgJy1waHQnLCAnMi4wJywgJy1waCcsICc3LjAnLCAnLXRuJywgJzgnLCAnLW1hJywgJzIwMCcsICctaW1hZScsICc8aW5maWxlLm1hZT4nLCAnLW9tYWUnLCAnPG91dGZpbGUubWFlPic=

>  <r_lp_tautomer_probability>  (113) 
1

>  <r_epik_Ionization_Penalty>  (113) 
4.17891e-06

>  <r_epik_Ionization_Penalty_Charging>  (113) 
0

>  <r_epik_Ionization_Penalty_Neutral>  (113) 
4.17891e-06

>  <r_epik_State_Penalty>  (113) 
-0

>  <r_epik_Charging_Adjusted_Penalty>  (113) 
0

>  <i_epik_Tot_Q>  (113) 
0

>  <i_epik_Tot_abs_Q>  (113) 
0

>  <s_epik_Chemistry_Notes>  (113) 
This compound has an ester and may undergo hydrolysis at high or low pH. This compound contains an acetal/aminal-like group ( X-CH(R)-Y where X, Y are N, S, or O) that may be acid/base labile, releasing an aldehyde.

>  <s_lp_Force_Field>  (113) 
OPLS3e

>  <r_lp_Energy>  (113) 
107.844

>  <b_lp_Chiralities_Consistent>  (113) 
1

>  <s_lp_Variant>  (113) 
24:0-7

>  <s_i_glide_gridfile>  (113) 
pfpi4k_grid

>  <i_i_glide_lignum>  (113) 
6

>  <i_i_glide_rotatable_bonds>  (113) 
3

>  <r_i_docking_score>  (113) 
-3.05181

>  <r_i_glide_ligand_efficiency>  (113) 
-0.0847726

>  <r_i_glide_ligand_efficiency_sa>  (113) 
-0.279913

>  <r_i_glide_ligand_efficiency_ln>  (113) 
-0.665823

>  <r_i_glide_gscore>  (113) 
-3.05181

>  <r_i_glide_lipo>  (113) 
-0.128187

>  <r_i_glide_hbond>  (113) 
-0.152

>  <r_i_glide_metal>  (113) 
-0

>  <r_i_glide_rewards>  (113) 
-0.00919855

>  <r_i_glide_evdw>  (113) 
-26.3271

>  <r_i_glide_ecoul>  (113) 
-8.74024

>  <r_i_glide_erotb>  (113) 
0

>  <r_i_glide_esite>  (113) 
-0.135038

>  <r_i_glide_emodel>  (113) 
-40.2593

>  <r_i_glide_energy>  (113) 
-35.0673

>  <r_i_glide_einternal>  (113) 
3.05933

>  <r_i_glide_intrahb_reward>  (113) 
-0

>  <i_i_glide_confnum>  (113) 
1

>  <i_i_glide_posenum>  (113) 
33

>  <r_i_glide_eff_state_penalty>  (113) 
0

>  <ligand_id>  (113) 
24

>  <original_smiles>  (113) 
CC1CC2C3(CC=C4C5(C)CCC(O)CC45CCC3O)C34CCC5(CC(=O)OC(O)C5C1(C)C23C)O4

>  <smiles>  (113) 
[H]OC1([H])OC(=O)C([H])([H])C23OC4(C([H])([H])C2([H])[H])C2(C([H])([H])C([H])=C5C6(C([H])([H])[H])C([H])([H])C([H])([H])C([H])(O[H])C([H])([H])C56C([H])([H])C([H])([H])C2([H])O[H])C2([H])C([H])([H])C([H])(C([H])([H])[H])C(C([H])([H])[H])(C13[H])C24C([H])([H])[H]

$$$$
24:6:1
     RDKit          3D

 78 85  0  0  1  0  0  0  0  0999 V2000
    3.0740   -0.5789    1.0650 C   0  0  0  0  0  0  0  0  0  0  0  0
    3.5528   -1.9663    1.5239 C   0  0  2  0  0  0  0  0  0  0  0  0
    2.4920   -2.7006    2.3605 C   0  0  0  0  0  0  0  0  0  0  0  0
    3.2209   -3.7730    3.1654 C   0  0  1  0  0  0  0  0  0  0  0  0
    3.5317   -5.2122    2.6513 C   0  0  1  0  0  0  0  0  0  0  0  0
    3.6145   -6.3107    3.7449 C   0  0  0  0  0  0  0  0  0  0  0  0
    2.4374   -6.4194    4.6732 C   0  0  0  0  0  0  0  0  0  0  0  0
    1.3753   -7.1560    4.3878 C   0  0  0  0  0  0  0  0  0  0  0  0
    0.0543   -7.6271    4.7868 C   0  0  1  0  0  0  0  0  0  0  0  0
    0.1073   -8.4547    6.0779 C   0  0  0  0  0  0  0  0  0  0  0  0
   -1.3640   -7.2506    4.4098 C   0  0  0  0  0  0  0  0  0  0  0  0
   -2.0340   -8.5647    3.9069 C   0  0  0  0  0  0  0  0  0  0  0  0
   -1.1428   -9.6051    3.0885 C   0  0  1  0  0  0  0  0  0  0  0  0
   -1.4866   -9.4058    1.7199 O   0  0  0  0  0  0  0  0  0  0  0  0
    0.4212   -9.4819    3.2572 C   0  0  0  0  0  0  0  0  0  0  0  0
    0.7492   -8.0148    3.3777 C   0  0  2  0  0  0  0  0  0  0  0  0
    0.5733   -7.3170    2.0180 C   0  0  0  0  0  0  0  0  0  0  0  0
    1.1220   -5.8885    1.8665 C   0  0  0  0  0  0  0  0  0  0  0  0
    2.6215   -5.8185    1.5275 C   0  0  1  0  0  0  0  0  0  0  0  0
    2.6399   -5.0832    0.3305 O   0  0  0  0  0  0  0  0  0  0  0  0
    4.9413   -4.6651    2.2804 C   0  0  2  0  0  0  0  0  0  0  0  0
    6.2312   -5.4825    2.4235 C   0  0  0  0  0  0  0  0  0  0  0  0
    7.2640   -4.7191    1.5745 C   0  0  0  0  0  0  0  0  0  0  0  0
    6.3442   -3.6773    0.8208 C   0  0  2  0  0  0  0  0  0  0  0  0
    6.7293   -3.6603   -0.6556 C   0  0  0  0  0  0  0  0  0  0  0  0
    5.8664   -2.7179   -1.4833 C   0  0  0  0  0  0  0  0  0  0  0  0
    5.3933   -3.0296   -2.5716 O   0  0  0  0  0  0  0  0  0  0  0  0
    5.6595   -1.4832   -0.9341 O   0  0  0  0  0  0  0  0  0  0  0  0
    6.3193   -1.1519    0.2679 C   0  0  1  0  0  0  0  0  0  0  0  0
    5.9486    0.1298    0.6723 O   0  0  0  0  0  0  0  0  0  0  0  0
    6.1621   -2.2163    1.4248 C   0  0  1  0  0  0  0  0  0  0  0  0
    4.8757   -2.0669    2.3425 C   0  0  1  0  0  0  0  0  0  0  0  0
    4.9754   -0.8410    3.2921 C   0  0  0  0  0  0  0  0  0  0  0  0
    4.6898   -3.3963    3.1595 C   0  0  1  0  0  0  0  0  0  0  0  0
    5.2993   -3.3429    4.5870 C   0  0  0  0  0  0  0  0  0  0  0  0
    5.0887   -4.3168    0.9165 O   0  0  0  0  0  0  0  0  0  0  0  0
    2.8413    0.1043    1.9048 H   0  0  0  0  0  0  0  0  0  0  0  0
    2.2108   -0.7418    0.4796 H   0  0  0  0  0  0  0  0  0  0  0  0
    3.7543   -0.0882    0.3708 H   0  0  0  0  0  0  0  0  0  0  0  0
    3.6294   -2.5342    0.6040 H   0  0  0  0  0  0  0  0  0  0  0  0
    2.0229   -1.9870    3.0483 H   0  0  0  0  0  0  0  0  0  0  0  0
    1.6809   -3.0961    1.7477 H   0  0  0  0  0  0  0  0  0  0  0  0
    2.8643   -3.7917    4.1869 H   0  0  0  0  0  0  0  0  0  0  0  0
    3.7936   -7.2788    3.2741 H   0  0  0  0  0  0  0  0  0  0  0  0
    4.4603   -6.1601    4.3894 H   0  0  0  0  0  0  0  0  0  0  0  0
    2.4565   -5.8846    5.5992 H   0  0  0  0  0  0  0  0  0  0  0  0
   -0.5773   -9.3075    6.0448 H   0  0  0  0  0  0  0  0  0  0  0  0
   -0.1229   -7.8329    6.9471 H   0  0  0  0  0  0  0  0  0  0  0  0
    1.1098   -8.8460    6.2387 H   0  0  0  0  0  0  0  0  0  0  0  0
   -1.8990   -6.8248    5.2587 H   0  0  0  0  0  0  0  0  0  0  0  0
   -1.3538   -6.4952    3.6302 H   0  0  0  0  0  0  0  0  0  0  0  0
   -2.4488   -9.0640    4.7584 H   0  0  0  0  0  0  0  0  0  0  0  0
   -2.8915   -8.2861    3.2901 H   0  0  0  0  0  0  0  0  0  0  0  0
   -1.4534  -10.6296    3.3099 H   0  0  0  0  0  0  0  0  0  0  0  0
   -0.9088   -9.9669    1.2082 H   0  0  0  0  0  0  0  0  0  0  0  0
    0.7538   -9.9838    4.1505 H   0  0  0  0  0  0  0  0  0  0  0  0
    0.9526   -9.9318    2.4081 H   0  0  0  0  0  0  0  0  0  0  0  0
    0.9952   -7.9609    1.2415 H   0  0  0  0  0  0  0  0  0  0  0  0
   -0.4833   -7.2735    1.7846 H   0  0  0  0  0  0  0  0  0  0  0  0
    0.6299   -5.5598    1.0019 H   0  0  0  0  0  0  0  0  0  0  0  0
    0.8115   -5.2413    2.6853 H   0  0  0  0  0  0  0  0  0  0  0  0
    3.0009   -6.8144    1.2583 H   0  0  0  0  0  0  0  0  0  0  0  0
    3.5189   -5.1125   -0.0247 H   0  0  0  0  0  0  0  0  0  0  0  0
    6.5622   -5.5895    3.4637 H   0  0  0  0  0  0  0  0  0  0  0  0
    6.0830   -6.4860    2.0046 H   0  0  0  0  0  0  0  0  0  0  0  0
    8.1069   -4.2578    2.1442 H   0  0  0  0  0  0  0  0  0  0  0  0
    7.7163   -5.4368    0.8517 H   0  0  0  0  0  0  0  0  0  0  0  0
    7.7668   -3.3909   -0.8086 H   0  0  0  0  0  0  0  0  0  0  0  0
    6.5956   -4.6347   -1.0639 H   0  0  0  0  0  0  0  0  0  0  0  0
    7.3963   -1.1098    0.0714 H   0  0  0  0  0  0  0  0  0  0  0  0
    5.9560    0.6772   -0.1118 H   0  0  0  0  0  0  0  0  0  0  0  0
    7.0196   -2.0648    2.0460 H   0  0  0  0  0  0  0  0  0  0  0  0
    5.9132   -0.8000    3.8407 H   0  0  0  0  0  0  0  0  0  0  0  0
    4.1484   -0.8593    3.9955 H   0  0  0  0  0  0  0  0  0  0  0  0
    4.8818    0.1161    2.7883 H   0  0  0  0  0  0  0  0  0  0  0  0
    6.3447   -3.0716    4.4842 H   0  0  0  0  0  0  0  0  0  0  0  0
    5.2323   -4.3220    5.0767 H   0  0  0  0  0  0  0  0  0  0  0  0
    4.7623   -2.6203    5.2494 H   0  0  0  0  0  0  0  0  0  0  0  0
  1  2  1  0
  1 37  1  0
  1 38  1  0
  1 39  1  0
  2 32  1  0
  2  3  1  0
  2 40  1  6
  3  4  1  0
  3 41  1  0
  3 42  1  0
  4 34  1  0
  4  5  1  0
  4 43  1  1
  5 19  1  0
  5  6  1  1
  5 21  1  0
  6  7  1  0
  6 44  1  0
  6 45  1  0
  7  8  2  3
  7 46  1  0
  8 16  1  0
  8  9  1  0
  9 16  1  0
  9 10  1  1
  9 11  1  0
 10 47  1  0
 10 48  1  0
 10 49  1  0
 11 12  1  0
 11 50  1  0
 11 51  1  0
 12 13  1  0
 12 52  1  0
 12 53  1  0
 13 14  1  0
 13 15  1  0
 13 54  1  1
 14 55  1  0
 16 15  1  6
 15 56  1  0
 15 57  1  0
 16 17  1  0
 17 18  1  0
 17 58  1  0
 17 59  1  0
 18 19  1  0
 18 60  1  0
 18 61  1  0
 19 20  1  0
 19 62  1  6
 20 63  1  0
 21 34  1  0
 21 36  1  0
 21 22  1  1
 22 23  1  0
 22 64  1  0
 22 65  1  0
 24 23  1  1
 23 66  1  0
 23 67  1  0
 24 31  1  0
 24 25  1  0
 24 36  1  0
 25 26  1  0
 25 68  1  0
 25 69  1  0
 26 27  2  0
 26 28  1  0
 28 29  1  0
 29 30  1  0
 29 31  1  0
 29 70  1  6
 30 71  1  0
 31 32  1  0
 31 72  1  1
 32 33  1  1
 32 34  1  0
 33 73  1  0
 33 74  1  0
 33 75  1  0
 34 35  1  1
 35 76  1  0
 35 77  1  0
 35 78  1  0
M  END
>  <i_m_ct_stereo_status>  (114) 
1

>  <s_m_source_file>  (114) 
/var/tmp/pbs.5076255.sched01/tmpyrjfudeo/454urwji6r.sdf

>  <i_m_source_file_index>  (114) 
6

>  <i_lp_mmshare_version>  (114) 
48012

>  <i_f3d_flags>  (114) 
0

>  <s_epik_input>  (114) 
W09IXVtDQEBIXTFPQyg9TylbQ0gyXVtDQEBdKE8yKShbQ0gyXVtDSDJdMylbQ0BASF0xW0NAQF00KFtDSDNdKVtDQEhdKFtDSDNdKVtDSDJdW0NAQEhdNVtDQEBdNChbQ0gzXSlbQ0BAXTIzW0NAQF01NltDSDJdL1tDSF09Qy83QzgoW0NIMl1bQ0gyXVtDQEhdNltPSF0pQzcoW0NIM10pW0NIMl1bQ0gyXVtDQEBIXShbT0hdKVtDSDJdOA==

>  <s_epik_cmdline>  (114) 
J2VwaWtfcHl0aG9uJywgJy1waHQnLCAnMi4wJywgJy1waCcsICc3LjAnLCAnLXRuJywgJzgnLCAnLW1hJywgJzIwMCcsICctaW1hZScsICc8aW5maWxlLm1hZT4nLCAnLW9tYWUnLCAnPG91dGZpbGUubWFlPic=

>  <r_lp_tautomer_probability>  (114) 
1

>  <r_epik_Ionization_Penalty>  (114) 
4.17891e-06

>  <r_epik_Ionization_Penalty_Charging>  (114) 
0

>  <r_epik_Ionization_Penalty_Neutral>  (114) 
4.17891e-06

>  <r_epik_State_Penalty>  (114) 
-0

>  <r_epik_Charging_Adjusted_Penalty>  (114) 
0

>  <i_epik_Tot_Q>  (114) 
0

>  <i_epik_Tot_abs_Q>  (114) 
0

>  <s_epik_Chemistry_Notes>  (114) 
This compound has an ester and may undergo hydrolysis at high or low pH. This compound contains an acetal/aminal-like group ( X-CH(R)-Y where X, Y are N, S, or O) that may be acid/base labile, releasing an aldehyde.

>  <s_lp_Force_Field>  (114) 
OPLS3e

>  <r_lp_Energy>  (114) 
107.844

>  <b_lp_Chiralities_Consistent>  (114) 
1

>  <s_lp_Variant>  (114) 
24:0-7

>  <s_i_glide_gridfile>  (114) 
pfpi4k_grid

>  <i_i_glide_lignum>  (114) 
6

>  <i_i_glide_rotatable_bonds>  (114) 
3

>  <r_i_docking_score>  (114) 
-2.16438

>  <r_i_glide_ligand_efficiency>  (114) 
-0.0601216

>  <r_i_glide_ligand_efficiency_sa>  (114) 
-0.198517

>  <r_i_glide_ligand_efficiency_ln>  (114) 
-0.472209

>  <r_i_glide_gscore>  (114) 
-2.16438

>  <r_i_glide_lipo>  (114) 
-0.675938

>  <r_i_glide_hbond>  (114) 
-0.222603

>  <r_i_glide_metal>  (114) 
-0

>  <r_i_glide_rewards>  (114) 
-0.528635

>  <r_i_glide_evdw>  (114) 
2.51509

>  <r_i_glide_ecoul>  (114) 
-5.70287

>  <r_i_glide_erotb>  (114) 
0

>  <r_i_glide_esite>  (114) 
-0.00752705

>  <r_i_glide_emodel>  (114) 
-9.55714

>  <r_i_glide_energy>  (114) 
-3.18778

>  <r_i_glide_einternal>  (114) 
2.94586

>  <r_i_glide_intrahb_reward>  (114) 
-0.5

>  <i_i_glide_confnum>  (114) 
1

>  <i_i_glide_posenum>  (114) 
4

>  <r_i_glide_eff_state_penalty>  (114) 
0

>  <ligand_id>  (114) 
24

>  <original_smiles>  (114) 
CC1CC2C3(CC=C4C5(C)CCC(O)CC45CCC3O)C34CCC5(CC(=O)OC(O)C5C1(C)C23C)O4

>  <smiles>  (114) 
[H]OC1([H])OC(=O)C([H])([H])C23OC4(C([H])([H])C2([H])[H])C2(C([H])([H])C([H])=C5C6(C([H])([H])[H])C([H])([H])C([H])([H])C([H])(O[H])C([H])([H])C56C([H])([H])C([H])([H])C2([H])O[H])C2([H])C([H])([H])C([H])(C([H])([H])[H])C(C([H])([H])[H])(C13[H])C24C([H])([H])[H]

$$$$
24:6:2
     RDKit          3D

 78 85  0  0  1  0  0  0  0  0999 V2000
    2.7718   -9.8674    3.0852 C   0  0  0  0  0  0  0  0  0  0  0  0
    2.8813   -8.3473    3.3039 C   0  0  2  0  0  0  0  0  0  0  0  0
    3.7306   -7.6811    2.2083 C   0  0  0  0  0  0  0  0  0  0  0  0
    4.1742   -6.3498    2.7737 C   0  0  1  0  0  0  0  0  0  0  0  0
    3.3447   -5.0349    2.6387 C   0  0  1  0  0  0  0  0  0  0  0  0
    4.1465   -3.7066    2.5718 C   0  0  0  0  0  0  0  0  0  0  0  0
    5.2004   -3.6117    1.4842 C   0  0  0  0  0  0  0  0  0  0  0  0
    4.9419   -3.2036    0.2484 C   0  0  0  0  0  0  0  0  0  0  0  0
    5.4643   -2.9770   -1.0831 C   0  0  1  0  0  0  0  0  0  0  0  0
    6.5325   -1.8972   -1.0943 C   0  0  0  0  0  0  0  0  0  0  0  0
    5.3732   -3.6980   -2.3999 C   0  0  0  0  0  0  0  0  0  0  0  0
    4.7044   -2.7736   -3.4479 C   0  0  0  0  0  0  0  0  0  0  0  0
    3.6823   -1.7085   -2.9667 C   0  0  1  0  0  0  0  0  0  0  0  0
    2.4585   -2.1436   -3.4964 O   0  0  0  0  0  0  0  0  0  0  0  0
    3.5928   -1.4910   -1.4192 C   0  0  0  0  0  0  0  0  0  0  0  0
    3.9029   -2.7690   -0.6831 C   0  0  2  0  0  0  0  0  0  0  0  0
    2.7613   -3.7843   -0.8128 C   0  0  0  0  0  0  0  0  0  0  0  0
    2.8349   -5.0769    0.0456 C   0  0  0  0  0  0  0  0  0  0  0  0
    2.2926   -4.9354    1.4914 C   0  0  1  0  0  0  0  0  0  0  0  0
    1.2322   -5.8694    1.5634 O   0  0  0  0  0  0  0  0  0  0  0  0
    2.8721   -5.2993    4.0934 C   0  0  2  0  0  0  0  0  0  0  0  0
    2.6492   -4.2444    5.1588 C   0  0  0  0  0  0  0  0  0  0  0  0
    1.9142   -4.9986    6.2586 C   0  0  0  0  0  0  0  0  0  0  0  0
    1.4382   -6.2903    5.5603 C   0  0  2  0  0  0  0  0  0  0  0  0
   -0.0583   -6.5881    5.7662 C   0  0  0  0  0  0  0  0  0  0  0  0
   -0.4486   -7.8743    5.0397 C   0  0  0  0  0  0  0  0  0  0  0  0
   -1.4641   -7.8620    4.3528 O   0  0  0  0  0  0  0  0  0  0  0  0
    0.3576   -8.9369    5.2675 O   0  0  0  0  0  0  0  0  0  0  0  0
    1.4278   -8.7609    6.1657 C   0  0  1  0  0  0  0  0  0  0  0  0
    2.1486   -9.9279    6.3792 O   0  0  0  0  0  0  0  0  0  0  0  0
    2.3410   -7.5377    5.8108 C   0  0  1  0  0  0  0  0  0  0  0  0
    3.4252   -7.7955    4.6833 C   0  0  1  0  0  0  0  0  0  0  0  0
    4.5946   -8.7018    5.1655 C   0  0  0  0  0  0  0  0  0  0  0  0
    3.9633   -6.3834    4.2880 C   0  0  1  0  0  0  0  0  0  0  0  0
    5.1666   -5.9409    5.1531 C   0  0  0  0  0  0  0  0  0  0  0  0
    1.6180   -5.9378    4.1999 O   0  0  0  0  0  0  0  0  0  0  0  0
    3.7408  -10.3651    3.1309 H   0  0  0  0  0  0  0  0  0  0  0  0
    2.3616  -10.0711    2.0949 H   0  0  0  0  0  0  0  0  0  0  0  0
    2.1009  -10.3427    3.7980 H   0  0  0  0  0  0  0  0  0  0  0  0
    1.8646   -7.9881    3.1676 H   0  0  0  0  0  0  0  0  0  0  0  0
    4.6103   -8.2951    2.0258 H   0  0  0  0  0  0  0  0  0  0  0  0
    3.2164   -7.6155    1.2549 H   0  0  0  0  0  0  0  0  0  0  0  0
    5.2143   -6.1318    2.5371 H   0  0  0  0  0  0  0  0  0  0  0  0
    3.4781   -2.8476    2.4603 H   0  0  0  0  0  0  0  0  0  0  0  0
    4.6758   -3.5075    3.4989 H   0  0  0  0  0  0  0  0  0  0  0  0
    6.2112   -3.9055    1.7626 H   0  0  0  0  0  0  0  0  0  0  0  0
    6.3491   -1.2533   -1.9459 H   0  0  0  0  0  0  0  0  0  0  0  0
    7.5317   -2.3285   -1.1529 H   0  0  0  0  0  0  0  0  0  0  0  0
    6.4732   -1.2761   -0.1968 H   0  0  0  0  0  0  0  0  0  0  0  0
    6.3738   -3.9542   -2.7344 H   0  0  0  0  0  0  0  0  0  0  0  0
    4.8117   -4.6238   -2.2806 H   0  0  0  0  0  0  0  0  0  0  0  0
    5.4980   -2.2022   -3.8719 H   0  0  0  0  0  0  0  0  0  0  0  0
    4.3468   -3.3358   -4.3115 H   0  0  0  0  0  0  0  0  0  0  0  0
    3.8968   -0.7375   -3.4200 H   0  0  0  0  0  0  0  0  0  0  0  0
    2.3841   -1.8460   -4.4023 H   0  0  0  0  0  0  0  0  0  0  0  0
    4.2692   -0.7027   -1.0948 H   0  0  0  0  0  0  0  0  0  0  0  0
    2.6172   -1.1248   -1.1518 H   0  0  0  0  0  0  0  0  0  0  0  0
    1.8150   -3.2770   -0.6371 H   0  0  0  0  0  0  0  0  0  0  0  0
    2.7015   -4.0770   -1.8561 H   0  0  0  0  0  0  0  0  0  0  0  0
    2.1974   -5.7928   -0.4742 H   0  0  0  0  0  0  0  0  0  0  0  0
    3.8152   -5.5584    0.0075 H   0  0  0  0  0  0  0  0  0  0  0  0
    1.8187   -3.9621    1.5787 H   0  0  0  0  0  0  0  0  0  0  0  0
    1.6186   -6.7474    1.6133 H   0  0  0  0  0  0  0  0  0  0  0  0
    3.5646   -3.7865    5.5269 H   0  0  0  0  0  0  0  0  0  0  0  0
    2.0182   -3.4498    4.7664 H   0  0  0  0  0  0  0  0  0  0  0  0
    2.5688   -5.2095    7.1053 H   0  0  0  0  0  0  0  0  0  0  0  0
    1.0892   -4.3954    6.6400 H   0  0  0  0  0  0  0  0  0  0  0  0
   -0.2909   -6.6647    6.8305 H   0  0  0  0  0  0  0  0  0  0  0  0
   -0.6670   -5.7661    5.3813 H   0  0  0  0  0  0  0  0  0  0  0  0
    0.9861   -8.5751    7.1541 H   0  0  0  0  0  0  0  0  0  0  0  0
    2.0951  -10.4549    5.5829 H   0  0  0  0  0  0  0  0  0  0  0  0
    2.8913   -7.3641    6.7360 H   0  0  0  0  0  0  0  0  0  0  0  0
    4.9793   -8.4005    6.1404 H   0  0  0  0  0  0  0  0  0  0  0  0
    5.4174   -8.6839    4.4518 H   0  0  0  0  0  0  0  0  0  0  0  0
    4.3127   -9.7468    5.2592 H   0  0  0  0  0  0  0  0  0  0  0  0
    4.9221   -5.9306    6.2187 H   0  0  0  0  0  0  0  0  0  0  0  0
    5.4973   -4.9332    4.9034 H   0  0  0  0  0  0  0  0  0  0  0  0
    6.0519   -6.5649    5.0115 H   0  0  0  0  0  0  0  0  0  0  0  0
  1  2  1  0
  1 37  1  0
  1 38  1  0
  1 39  1  0
  2 32  1  0
  2  3  1  0
  2 40  1  6
  3  4  1  0
  3 41  1  0
  3 42  1  0
  4 34  1  0
  4  5  1  0
  4 43  1  1
  5 19  1  0
  5  6  1  1
  5 21  1  0
  6  7  1  0
  6 44  1  0
  6 45  1  0
  7  8  2  3
  7 46  1  0
  8 16  1  0
  8  9  1  0
  9 16  1  0
  9 10  1  1
  9 11  1  0
 10 47  1  0
 10 48  1  0
 10 49  1  0
 11 12  1  0
 11 50  1  0
 11 51  1  0
 12 13  1  0
 12 52  1  0
 12 53  1  0
 13 14  1  0
 13 15  1  0
 13 54  1  6
 14 55  1  0
 16 15  1  1
 15 56  1  0
 15 57  1  0
 16 17  1  0
 17 18  1  0
 17 58  1  0
 17 59  1  0
 18 19  1  0
 18 60  1  0
 18 61  1  0
 19 20  1  0
 19 62  1  6
 20 63  1  0
 21 34  1  0
 21 36  1  0
 21 22  1  1
 22 23  1  0
 22 64  1  0
 22 65  1  0
 24 23  1  1
 23 66  1  0
 23 67  1  0
 24 31  1  0
 24 25  1  0
 24 36  1  0
 25 26  1  0
 25 68  1  0
 25 69  1  0
 26 27  2  0
 26 28  1  0
 28 29  1  0
 29 30  1  0
 29 31  1  0
 29 70  1  1
 30 71  1  0
 31 32  1  0
 31 72  1  1
 32 33  1  1
 32 34  1  0
 33 73  1  0
 33 74  1  0
 33 75  1  0
 34 35  1  1
 35 76  1  0
 35 77  1  0
 35 78  1  0
M  END
>  <i_m_ct_stereo_status>  (115) 
1

>  <s_m_source_file>  (115) 
/var/tmp/pbs.5076255.sched01/tmpyrjfudeo/454urwji6r.sdf

>  <i_m_source_file_index>  (115) 
6

>  <i_lp_mmshare_version>  (115) 
48012

>  <i_f3d_flags>  (115) 
0

>  <s_epik_input>  (115) 
W09IXVtDQEBIXTFPQyg9TylbQ0gyXVtDQEBdKE8yKShbQ0gyXVtDSDJdMylbQ0BASF0xW0NAQF00KFtDSDNdKVtDQEhdKFtDSDNdKVtDSDJdW0NAQEhdNVtDQEBdNChbQ0gzXSlbQ0BAXTIzW0NAQF01NltDSDJdL1tDSF09Qy83QzgoW0NIMl1bQ0gyXVtDQEhdNltPSF0pQzcoW0NIM10pW0NIMl1bQ0gyXVtDQEBIXShbT0hdKVtDSDJdOA==

>  <s_epik_cmdline>  (115) 
J2VwaWtfcHl0aG9uJywgJy1waHQnLCAnMi4wJywgJy1waCcsICc3LjAnLCAnLXRuJywgJzgnLCAnLW1hJywgJzIwMCcsICctaW1hZScsICc8aW5maWxlLm1hZT4nLCAnLW9tYWUnLCAnPG91dGZpbGUubWFlPic=

>  <r_lp_tautomer_probability>  (115) 
1

>  <r_epik_Ionization_Penalty>  (115) 
4.17891e-06

>  <r_epik_Ionization_Penalty_Charging>  (115) 
0

>  <r_epik_Ionization_Penalty_Neutral>  (115) 
4.17891e-06

>  <r_epik_State_Penalty>  (115) 
-0

>  <r_epik_Charging_Adjusted_Penalty>  (115) 
0

>  <i_epik_Tot_Q>  (115) 
0

>  <i_epik_Tot_abs_Q>  (115) 
0

>  <s_epik_Chemistry_Notes>  (115) 
This compound has an ester and may undergo hydrolysis at high or low pH. This compound contains an acetal/aminal-like group ( X-CH(R)-Y where X, Y are N, S, or O) that may be acid/base labile, releasing an aldehyde.

>  <s_lp_Force_Field>  (115) 
OPLS3e

>  <r_lp_Energy>  (115) 
107.844

>  <b_lp_Chiralities_Consistent>  (115) 
1

>  <s_lp_Variant>  (115) 
24:0-7

>  <s_i_glide_gridfile>  (115) 
pfpi4k_grid

>  <i_i_glide_lignum>  (115) 
6

>  <i_i_glide_rotatable_bonds>  (115) 
3

>  <r_i_docking_score>  (115) 
-1.84239

>  <r_i_glide_ligand_efficiency>  (115) 
-0.0511776

>  <r_i_glide_ligand_efficiency_sa>  (115) 
-0.168985

>  <r_i_glide_ligand_efficiency_ln>  (115) 
-0.40196

>  <r_i_glide_gscore>  (115) 
-1.84239

>  <r_i_glide_lipo>  (115) 
-0.339807

>  <r_i_glide_hbond>  (115) 
-0.0923285

>  <r_i_glide_metal>  (115) 
-0

>  <r_i_glide_rewards>  (115) 
-0.00919855

>  <r_i_glide_evdw>  (115) 
-20.6524

>  <r_i_glide_ecoul>  (115) 
-1.93492

>  <r_i_glide_erotb>  (115) 
0

>  <r_i_glide_esite>  (115) 
-0.0782028

>  <r_i_glide_emodel>  (115) 
-25.1368

>  <r_i_glide_energy>  (115) 
-22.5873

>  <r_i_glide_einternal>  (115) 
1.98982

>  <r_i_glide_intrahb_reward>  (115) 
-0

>  <i_i_glide_confnum>  (115) 
1

>  <i_i_glide_posenum>  (115) 
3

>  <r_i_glide_eff_state_penalty>  (115) 
0

>  <ligand_id>  (115) 
24

>  <original_smiles>  (115) 
CC1CC2C3(CC=C4C5(C)CCC(O)CC45CCC3O)C34CCC5(CC(=O)OC(O)C5C1(C)C23C)O4

>  <smiles>  (115) 
[H]OC1([H])OC(=O)C([H])([H])C23OC4(C([H])([H])C2([H])[H])C2(C([H])([H])C([H])=C5C6(C([H])([H])[H])C([H])([H])C([H])([H])C([H])(O[H])C([H])([H])C56C([H])([H])C([H])([H])C2([H])O[H])C2([H])C([H])([H])C([H])(C([H])([H])[H])C(C([H])([H])[H])(C13[H])C24C([H])([H])[H]

$$$$
25:0:0
     RDKit          3D

 99107  0  0  1  0  0  0  0  0999 V2000
    3.4616   -5.0551    0.4476 C   0  0  0  0  0  0  0  0  0  0  0  0
    3.6068   -5.0142    1.8963 O   0  0  0  0  0  0  0  0  0  0  0  0
    3.7869   -6.1751    2.7401 C   0  0  1  0  0  0  0  0  0  0  0  0
    5.2811   -5.9893    2.2663 C   0  0  2  0  0  0  0  0  0  0  0  0
    6.3417   -7.1312    1.8057 C   0  0  1  0  0  0  0  0  0  0  0  0
    7.7705   -6.8089    2.3039 C   0  0  0  0  0  0  0  0  0  0  0  0
    6.0201   -8.7142    1.8794 C   0  0  1  0  0  0  0  0  0  0  0  0
    6.8398   -9.3649    0.9271 O   0  0  0  0  0  0  0  0  0  0  0  0
    5.9873   -9.6639    3.2141 C   0  0  1  0  0  0  0  0  0  0  0  0
    7.2807  -10.2257    3.3937 O   0  0  0  0  0  0  0  0  0  0  0  0
    5.4220   -9.0108    4.5656 C   0  0  1  0  0  0  0  0  0  0  0  0
    6.3595   -9.2394    5.6045 O   0  0  0  0  0  0  0  0  0  0  0  0
    5.6259   -7.6774    4.1474 O   0  0  0  0  0  0  0  0  0  0  0  0
    4.7331   -6.5964    4.1183 C   0  0  2  0  0  0  0  0  0  0  0  0
    4.5440   -6.4974    5.4633 O   0  0  0  0  0  0  0  0  0  0  0  0
    5.2679   -5.2720    3.7280 C   0  0  2  0  0  0  0  0  0  0  0  0
    4.2179   -4.1759    4.4356 C   0  0  1  0  0  0  0  0  0  0  0  0
    4.9386   -3.7394    5.7768 C   0  0  0  0  0  0  0  0  0  0  0  0
    4.0172   -2.7362    3.8056 C   0  0  1  0  0  0  0  0  0  0  0  0
    3.3490   -2.4909    2.4617 C   0  0  0  0  0  0  0  0  0  0  0  0
    2.1272   -3.2180    2.6261 O   0  0  0  0  0  0  0  0  0  0  0  0
    1.9781   -3.3218    4.0047 C   0  0  2  0  0  0  0  0  0  0  0  0
    0.5435   -2.8740    4.3910 C   0  0  0  0  0  0  0  0  0  0  0  0
    2.8393   -2.3229    4.4597 O   0  0  0  0  0  0  0  0  0  0  0  0
    2.6298   -4.6485    4.6869 C   0  0  2  0  0  0  0  0  0  0  0  0
    2.3189   -4.2421    6.0047 O   0  0  0  0  0  0  0  0  0  0  0  0
    2.0299   -6.3858    4.6881 C   0  0  1  0  0  0  0  0  0  0  0  0
    0.6336   -6.6388    4.5446 C   0  0  1  0  0  0  0  0  0  0  0  0
    0.8684   -6.0271    3.0420 C   0  0  0  0  0  0  0  0  0  0  0  0
    2.2412   -6.5451    2.3674 C   0  0  2  0  0  0  0  0  0  0  0  0
    1.9943   -7.6028    3.2372 C   0  0  0  0  0  0  0  0  0  0  0  0
    2.9511   -8.6492    2.6148 C   0  0  0  0  0  0  0  0  0  0  0  0
    0.7168   -8.4173    2.4786 C   0  0  0  0  0  0  0  0  0  0  0  0
    0.7300   -8.1654    5.3760 C   0  0  1  0  0  0  0  0  0  0  0  0
    0.6023   -9.6230    4.8751 C   0  0  0  0  0  0  0  0  0  0  0  0
    1.4935  -10.6445    4.6648 C   0  0  0  0  0  0  0  0  0  0  0  0
    0.9264  -11.9689    4.1850 C   0  0  0  0  0  0  0  0  0  0  0  0
    3.0554  -10.7299    4.7694 C   0  0  0  0  0  0  0  0  0  0  0  0
    3.9159   -9.4922    5.2228 C   0  0  2  0  0  0  0  0  0  0  0  0
    3.2393   -8.8535    6.4579 C   0  0  0  0  0  0  0  0  0  0  0  0
    3.9162   -8.8542    7.4892 O   0  0  0  0  0  0  0  0  0  0  0  0
    1.7830   -8.2047    6.5157 C   0  0  2  0  0  0  0  0  0  0  0  0
    1.0955   -8.5896    7.8783 C   0  0  0  0  0  0  0  0  0  0  0  0
    0.4063   -9.8286    7.8658 O   0  0  0  0  0  0  0  0  0  0  0  0
    1.9787   -6.7509    6.3307 C   0  0  1  0  0  0  0  0  0  0  0  0
    2.9152   -6.2800    7.3531 O   0  0  0  0  0  0  0  0  0  0  0  0
    2.5938   -5.8038    8.5769 C   0  0  0  0  0  0  0  0  0  0  0  0
    3.8243   -5.3628    9.3559 C   0  0  0  0  0  0  0  0  0  0  0  0
    1.4561   -5.6829    9.0388 O   0  0  0  0  0  0  0  0  0  0  0  0
    4.0101   -4.2264   -0.0018 H   0  0  0  0  0  0  0  0  0  0  0  0
    2.4170   -4.9099    0.1684 H   0  0  0  0  0  0  0  0  0  0  0  0
    3.8344   -5.9771   -0.0055 H   0  0  0  0  0  0  0  0  0  0  0  0
    5.6121   -5.1318    1.6603 H   0  0  0  0  0  0  0  0  0  0  0  0
    6.4257   -6.9546    0.7341 H   0  0  0  0  0  0  0  0  0  0  0  0
    7.8798   -6.9776    3.3727 H   0  0  0  0  0  0  0  0  0  0  0  0
    8.0357   -5.7719    2.1107 H   0  0  0  0  0  0  0  0  0  0  0  0
    8.5212   -7.4263    1.8094 H   0  0  0  0  0  0  0  0  0  0  0  0
    5.0923   -8.8258    1.3368 H   0  0  0  0  0  0  0  0  0  0  0  0
    6.4330  -10.1937    0.7204 H   0  0  0  0  0  0  0  0  0  0  0  0
    5.3699  -10.5284    2.9902 H   0  0  0  0  0  0  0  0  0  0  0  0
    7.5147  -10.6868    2.6042 H   0  0  0  0  0  0  0  0  0  0  0  0
    6.0113   -8.8736    6.4033 H   0  0  0  0  0  0  0  0  0  0  0  0
    5.3752   -6.2395    5.8258 H   0  0  0  0  0  0  0  0  0  0  0  0
    6.2967   -5.1096    4.0304 H   0  0  0  0  0  0  0  0  0  0  0  0
    4.4434   -2.9011    6.2752 H   0  0  0  0  0  0  0  0  0  0  0  0
    5.9549   -3.4104    5.5754 H   0  0  0  0  0  0  0  0  0  0  0  0
    5.0197   -4.4954    6.5508 H   0  0  0  0  0  0  0  0  0  0  0  0
    4.8471   -2.0505    3.9699 H   0  0  0  0  0  0  0  0  0  0  0  0
    3.1175   -1.4280    2.3512 H   0  0  0  0  0  0  0  0  0  0  0  0
    3.9759   -2.7398    1.6067 H   0  0  0  0  0  0  0  0  0  0  0  0
    0.2224   -2.0591    3.7381 H   0  0  0  0  0  0  0  0  0  0  0  0
    0.5390   -2.5001    5.4141 H   0  0  0  0  0  0  0  0  0  0  0  0
   -0.1728   -3.6875    4.3266 H   0  0  0  0  0  0  0  0  0  0  0  0
    2.7792   -4.8308    6.5871 H   0  0  0  0  0  0  0  0  0  0  0  0
   -0.0256   -5.9493    5.0715 H   0  0  0  0  0  0  0  0  0  0  0  0
   -0.0016   -6.2170    2.4109 H   0  0  0  0  0  0  0  0  0  0  0  0
    0.7491   -4.9776    2.9409 H   0  0  0  0  0  0  0  0  0  0  0  0
    2.0838   -6.7743    1.3108 H   0  0  0  0  0  0  0  0  0  0  0  0
    3.0255   -8.5755    1.5281 H   0  0  0  0  0  0  0  0  0  0  0  0
    2.7164   -9.6928    2.6818 H   0  0  0  0  0  0  0  0  0  0  0  0
    3.9005   -8.5442    2.9586 H   0  0  0  0  0  0  0  0  0  0  0  0
    0.6180   -8.1840    1.4161 H   0  0  0  0  0  0  0  0  0  0  0  0
   -0.2831   -8.2596    2.8854 H   0  0  0  0  0  0  0  0  0  0  0  0
    0.7620   -9.5053    2.4206 H   0  0  0  0  0  0  0  0  0  0  0  0
   -0.2280   -8.1183    5.8936 H   0  0  0  0  0  0  0  0  0  0  0  0
   -0.4325   -9.8464    4.6851 H   0  0  0  0  0  0  0  0  0  0  0  0
    1.3344  -12.2364    3.2103 H   0  0  0  0  0  0  0  0  0  0  0  0
   -0.1606  -11.9413    4.0956 H   0  0  0  0  0  0  0  0  0  0  0  0
    1.1721  -12.7677    4.8846 H   0  0  0  0  0  0  0  0  0  0  0  0
    3.1892  -11.5238    5.5118 H   0  0  0  0  0  0  0  0  0  0  0  0
    3.4683  -11.1910    3.8750 H   0  0  0  0  0  0  0  0  0  0  0  0
    4.4447  -10.1883    5.8711 H   0  0  0  0  0  0  0  0  0  0  0  0
    1.8009   -8.6250    8.7063 H   0  0  0  0  0  0  0  0  0  0  0  0
    0.3646   -7.8372    8.1619 H   0  0  0  0  0  0  0  0  0  0  0  0
    0.9974  -10.5581    7.6811 H   0  0  0  0  0  0  0  0  0  0  0  0
    1.0749   -6.2783    6.7139 H   0  0  0  0  0  0  0  0  0  0  0  0
    4.6210   -6.1017    9.2606 H   0  0  0  0  0  0  0  0  0  0  0  0
    3.5902   -5.2380   10.4128 H   0  0  0  0  0  0  0  0  0  0  0  0
    4.1950   -4.4135    8.9693 H   0  0  0  0  0  0  0  0  0  0  0  0
  1  2  1  0
  1 50  1  0
  1 51  1  0
  1 52  1  0
  3  2  1  1
  3 14  1  0
  3 30  1  0
  3  4  1  0
  4 16  1  0
  4  5  1  0
  4 53  1  6
  5  6  1  0
  5  7  1  0
  5 54  1  6
  6 55  1  0
  6 56  1  0
  6 57  1  0
  7  8  1  0
  7  9  1  0
  7 58  1  6
  8 59  1  0
  9 10  1  0
  9 11  1  0
  9 60  1  6
 10 61  1  0
 11 39  1  0
 11 12  1  1
 11 13  1  0
 12 62  1  0
 13 14  1  0
 14 15  1  1
 14 16  1  0
 15 63  1  0
 16 17  1  0
 16 64  1  1
 17 25  1  0
 17 18  1  1
 17 19  1  0
 18 65  1  0
 18 66  1  0
 18 67  1  0
 19 24  1  0
 19 20  1  0
 19 68  1  1
 20 21  1  0
 20 69  1  0
 20 70  1  0
 21 22  1  0
 22 23  1  6
 22 24  1  0
 22 25  1  0
 23 71  1  0
 23 72  1  0
 23 73  1  0
 25 26  1  1
 25 27  1  0
 26 74  1  0
 27 31  1  6
 27 45  1  0
 27 28  1  0
 28 29  1  0
 28 34  1  0
 28 75  1  1
 29 30  1  0
 29 76  1  0
 29 77  1  0
 30 31  1  0
 30 78  1  6
 31 32  1  0
 31 33  1  0
 32 79  1  0
 32 80  1  0
 32 81  1  0
 33 82  1  0
 33 83  1  0
 33 84  1  0
 34 42  1  0
 34 35  1  0
 34 85  1  1
 35 36  2  0
 35 86  1  0
 36 37  1  0
 36 38  1  0
 37 87  1  0
 37 88  1  0
 37 89  1  0
 38 39  1  0
 38 90  1  0
 38 91  1  0
 39 40  1  0
 39 92  1  6
 40 41  2  0
 40 42  1  0
 42 43  1  1
 42 45  1  0
 43 44  1  0
 43 93  1  0
 43 94  1  0
 44 95  1  0
 45 46  1  0
 45 96  1  1
 46 47  1  0
 47 48  1  0
 47 49  2  0
 48 97  1  0
 48 98  1  0
 48 99  1  0
M  END
>  <i_m_ct_stereo_status>  (116) 
1

>  <s_m_source_file>  (116) 
/var/tmp/pbs.5076255.sched01/tmpyrjfudeo/454urwji6r.sdf

>  <i_m_source_file_index>  (116) 
8

>  <i_lp_mmshare_version>  (116) 
48012

>  <i_f3d_flags>  (116) 
0

>  <s_epik_input>  (116) 
W0NIM11bQ0BdMShPMilPW0NIMl1bQ0BASF0yW0NAQF0oW0NIM10pKFtDQEBdMShbQ0BAXTM0NSlbT0hdKVtDQEBIXTZbQ0BASF03W0NAXTgoT1tDSDNdKVtDQEBdNihbT0hdKU9bQ0BdKFtPSF0pKFtDQEhdKFtPSF0pW0NASF0oW09IXSlbQ0BASF03W0NIM10pW0NAQEhdOVtDSDJdQyhbQ0gzXSk9W0NIXVtDQEhdKFtDQEBIXTNbQ0gyXVtDQEBIXThDNChbQ0gzXSlbQ0gzXSlbQ0BdKEM5PU8pKFtDSDJdW09IXSlbQ0BIXTVPQyg9TylbQ0gzXQ==

>  <s_epik_cmdline>  (116) 
J2VwaWtfcHl0aG9uJywgJy1waHQnLCAnMi4wJywgJy1waCcsICc3LjAnLCAnLXRuJywgJzgnLCAnLW1hJywgJzIwMCcsICctaW1hZScsICc8aW5maWxlLm1hZT4nLCAnLW9tYWUnLCAnPG91dGZpbGUubWFlPic=

>  <r_lp_tautomer_probability>  (116) 
1

>  <r_epik_Ionization_Penalty>  (116) 
4.13207e-05

>  <r_epik_Ionization_Penalty_Charging>  (116) 
0

>  <r_epik_Ionization_Penalty_Neutral>  (116) 
4.13207e-05

>  <r_epik_State_Penalty>  (116) 
-0

>  <r_epik_Charging_Adjusted_Penalty>  (116) 
0

>  <i_epik_Tot_Q>  (116) 
0

>  <i_epik_Tot_abs_Q>  (116) 
0

>  <s_epik_Chemistry_Notes>  (116) 
This compound has an ester and may undergo hydrolysis at high or low pH.

>  <s_lp_Force_Field>  (116) 
OPLS3e

>  <r_lp_Energy>  (116) 
774.024

>  <b_lp_Chiralities_Consistent>  (116) 
1

>  <s_lp_Variant>  (116) 
25:0-1

>  <s_i_glide_gridfile>  (116) 
pfpi4k_grid

>  <i_i_glide_lignum>  (116) 
8

>  <i_i_glide_rotatable_bonds>  (116) 
10

>  <r_i_docking_score>  (116) 
-2.77144

>  <r_i_glide_ligand_efficiency>  (116) 
-0.05656

>  <r_i_glide_ligand_efficiency_sa>  (116) 
-0.20697

>  <r_i_glide_ligand_efficiency_ln>  (116) 
-0.566546

>  <r_i_glide_gscore>  (116) 
-2.77144

>  <r_i_glide_lipo>  (116) 
-0.184157

>  <r_i_glide_hbond>  (116) 
-0.15398

>  <r_i_glide_metal>  (116) 
-0

>  <r_i_glide_rewards>  (116) 
-0.508634

>  <r_i_glide_evdw>  (116) 
-24.5787

>  <r_i_glide_ecoul>  (116) 
-5.13505

>  <r_i_glide_erotb>  (116) 
0.0897031

>  <r_i_glide_esite>  (116) 
-0.0151773

>  <r_i_glide_emodel>  (116) 
-38.603

>  <r_i_glide_energy>  (116) 
-29.7138

>  <r_i_glide_einternal>  (116) 
2.19015

>  <r_i_glide_intrahb_reward>  (116) 
-0.5

>  <i_i_glide_confnum>  (116) 
2

>  <i_i_glide_posenum>  (116) 
1

>  <r_i_glide_eff_state_penalty>  (116) 
0

>  <ligand_id>  (116) 
25

>  <original_smiles>  (116) 
COC12C3C(C)C(O)C(O)C4(O)OC1(O)C3C1(C)C3COC(C)(O3)C1(O)C13C(CC2C1(C)C)C1C=C(C)CC4C(=O)C1(CO)C3OC(C)=O

>  <smiles>  (116) 
[H]OC([H])([H])C12C(=O)C3([H])C([H])([H])C(C([H])([H])[H])=C([H])C1([H])C1([H])C([H])([H])C4([H])C5(OC([H])([H])[H])C6(O[H])OC3(O[H])C([H])(O[H])C([H])(O[H])C([H])(C([H])([H])[H])C5([H])C6([H])C3(C([H])([H])[H])C5([H])OC(C([H])([H])[H])(OC5([H])[H])C3(O[H])C1(C2([H])OC(=O)C([H])([H])[H])C4(C([H])([H])[H])C([H])([H])[H]

$$$$
25:0:1
     RDKit          3D

 99107  0  0  1  0  0  0  0  0999 V2000
    5.2470   -7.7037    0.8022 C   0  0  0  0  0  0  0  0  0  0  0  0
    5.0202   -7.1516    2.1182 O   0  0  0  0  0  0  0  0  0  0  0  0
    4.0867   -7.6906    3.0551 C   0  0  1  0  0  0  0  0  0  0  0  0
    5.2857   -8.6680    3.3339 C   0  0  2  0  0  0  0  0  0  0  0  0
    5.2308  -10.2739    3.5832 C   0  0  1  0  0  0  0  0  0  0  0  0
    6.2429  -10.7155    4.6770 C   0  0  0  0  0  0  0  0  0  0  0  0
    3.8470  -11.0824    3.6711 C   0  0  1  0  0  0  0  0  0  0  0  0
    4.1467  -12.4205    3.2996 O   0  0  0  0  0  0  0  0  0  0  0  0
    2.8142  -11.0980    4.9371 C   0  0  1  0  0  0  0  0  0  0  0  0
    3.3461  -12.1158    5.7644 O   0  0  0  0  0  0  0  0  0  0  0  0
    2.5975   -9.7467    5.7819 C   0  0  1  0  0  0  0  0  0  0  0  0
    2.7678  -10.0428    7.1545 O   0  0  0  0  0  0  0  0  0  0  0  0
    3.8080   -9.1591    5.3647 O   0  0  0  0  0  0  0  0  0  0  0  0
    4.0434   -7.9318    4.7568 C   0  0  2  0  0  0  0  0  0  0  0  0
    3.6871   -7.1843    5.8358 O   0  0  0  0  0  0  0  0  0  0  0  0
    5.4506   -7.5575    4.5122 C   0  0  2  0  0  0  0  0  0  0  0  0
    5.3821   -5.8810    4.4851 C   0  0  1  0  0  0  0  0  0  0  0  0
    5.8847   -5.4431    5.9330 C   0  0  0  0  0  0  0  0  0  0  0  0
    6.4191   -5.0711    3.6476 C   0  0  1  0  0  0  0  0  0  0  0  0
    6.5784   -5.0969    2.1346 C   0  0  0  0  0  0  0  0  0  0  0  0
    5.2404   -4.7724    1.7681 O   0  0  0  0  0  0  0  0  0  0  0  0
    4.6932   -4.1518    2.9010 C   0  0  2  0  0  0  0  0  0  0  0  0
    4.0669   -2.8083    2.4842 C   0  0  0  0  0  0  0  0  0  0  0  0
    5.8174   -3.8065    3.6095 O   0  0  0  0  0  0  0  0  0  0  0  0
    3.9843   -5.1200    3.9984 C   0  0  2  0  0  0  0  0  0  0  0  0
    3.7681   -4.0817    4.9362 O   0  0  0  0  0  0  0  0  0  0  0  0
    2.3579   -5.9101    3.9426 C   0  0  1  0  0  0  0  0  0  0  0  0
    1.3502   -5.2667    3.1635 C   0  0  1  0  0  0  0  0  0  0  0  0
    2.3000   -5.6739    1.8941 C   0  0  0  0  0  0  0  0  0  0  0  0
    2.9371   -7.1416    2.0464 C   0  0  2  0  0  0  0  0  0  0  0  0
    1.7934   -7.3129    2.8083 C   0  0  0  0  0  0  0  0  0  0  0  0
    1.7771   -8.8473    2.8612 C   0  0  0  0  0  0  0  0  0  0  0  0
    0.5720   -7.3873    1.6418 C   0  0  0  0  0  0  0  0  0  0  0  0
    0.1120   -5.9462    4.1394 C   0  0  1  0  0  0  0  0  0  0  0  0
   -0.9381   -7.0257    3.8367 C   0  0  0  0  0  0  0  0  0  0  0  0
   -1.0606   -8.3137    4.1869 C   0  0  0  0  0  0  0  0  0  0  0  0
   -2.2923   -9.0113    3.6398 C   0  0  0  0  0  0  0  0  0  0  0  0
   -0.1734   -9.2859    5.0481 C   0  0  0  0  0  0  0  0  0  0  0  0
    1.1705   -8.8277    5.6977 C   0  0  2  0  0  0  0  0  0  0  0  0
    0.9109   -7.4632    6.3714 C   0  0  0  0  0  0  0  0  0  0  0  0
    0.9951   -7.4252    7.6020 O   0  0  0  0  0  0  0  0  0  0  0  0
    0.4679   -6.1211    5.6388 C   0  0  2  0  0  0  0  0  0  0  0  0
   -0.6174   -5.3838    6.5072 C   0  0  0  0  0  0  0  0  0  0  0  0
   -0.6979   -3.9863    6.2750 O   0  0  0  0  0  0  0  0  0  0  0  0
    1.6968   -5.3813    5.4069 C   0  0  1  0  0  0  0  0  0  0  0  0
    2.3874   -5.2126    6.7092 O   0  0  0  0  0  0  0  0  0  0  0  0
    2.2649   -4.1376    7.5345 C   0  0  0  0  0  0  0  0  0  0  0  0
    3.2105   -4.2863    8.7389 C   0  0  0  0  0  0  0  0  0  0  0  0
    1.5185   -3.1723    7.3633 O   0  0  0  0  0  0  0  0  0  0  0  0
    6.3057   -7.6782    0.6298 H   0  0  0  0  0  0  0  0  0  0  0  0
    4.8027   -7.0542    0.0528 H   0  0  0  0  0  0  0  0  0  0  0  0
    4.8955   -8.7251    0.6654 H   0  0  0  0  0  0  0  0  0  0  0  0
    6.2688   -8.5626    2.8618 H   0  0  0  0  0  0  0  0  0  0  0  0
    5.6835  -10.6848    2.6724 H   0  0  0  0  0  0  0  0  0  0  0  0
    5.9260  -10.4256    5.6824 H   0  0  0  0  0  0  0  0  0  0  0  0
    7.2316  -10.2775    4.5135 H   0  0  0  0  0  0  0  0  0  0  0  0
    6.3692  -11.8003    4.6965 H   0  0  0  0  0  0  0  0  0  0  0  0
    3.2962  -10.8218    2.7849 H   0  0  0  0  0  0  0  0  0  0  0  0
    4.2161  -12.4498    2.3506 H   0  0  0  0  0  0  0  0  0  0  0  0
    1.8226  -11.4247    4.5990 H   0  0  0  0  0  0  0  0  0  0  0  0
    2.6354  -12.4055    6.3235 H   0  0  0  0  0  0  0  0  0  0  0  0
    2.2623  -10.8306    7.3630 H   0  0  0  0  0  0  0  0  0  0  0  0
    4.2929   -7.3753    6.5448 H   0  0  0  0  0  0  0  0  0  0  0  0
    6.1626   -7.9425    5.2400 H   0  0  0  0  0  0  0  0  0  0  0  0
    6.0926   -4.3755    6.0210 H   0  0  0  0  0  0  0  0  0  0  0  0
    6.8233   -5.9381    6.2007 H   0  0  0  0  0  0  0  0  0  0  0  0
    5.2181   -5.6530    6.7570 H   0  0  0  0  0  0  0  0  0  0  0  0
    7.3772   -5.0525    4.1457 H   0  0  0  0  0  0  0  0  0  0  0  0
    7.2677   -4.3050    1.8402 H   0  0  0  0  0  0  0  0  0  0  0  0
    7.0422   -6.0049    1.7570 H   0  0  0  0  0  0  0  0  0  0  0  0
    4.6736   -2.3617    1.6915 H   0  0  0  0  0  0  0  0  0  0  0  0
    4.1391   -2.1307    3.3350 H   0  0  0  0  0  0  0  0  0  0  0  0
    3.0183   -2.8673    2.1688 H   0  0  0  0  0  0  0  0  0  0  0  0
    3.6254   -4.5028    5.7863 H   0  0  0  0  0  0  0  0  0  0  0  0
    1.3295   -4.1781    3.2184 H   0  0  0  0  0  0  0  0  0  0  0  0
    1.7729   -5.5372    0.9479 H   0  0  0  0  0  0  0  0  0  0  0  0
    2.9935   -4.9515    1.5613 H   0  0  0  0  0  0  0  0  0  0  0  0
    2.9229   -7.6561    1.0892 H   0  0  0  0  0  0  0  0  0  0  0  0
    2.1438   -9.3125    1.9461 H   0  0  0  0  0  0  0  0  0  0  0  0
    0.8481   -9.3619    2.9340 H   0  0  0  0  0  0  0  0  0  0  0  0
    2.3666   -9.1994    3.6031 H   0  0  0  0  0  0  0  0  0  0  0  0
    0.9489   -7.6332    0.6497 H   0  0  0  0  0  0  0  0  0  0  0  0
   -0.0282   -6.4838    1.4940 H   0  0  0  0  0  0  0  0  0  0  0  0
   -0.1757   -8.1541    1.7627 H   0  0  0  0  0  0  0  0  0  0  0  0
   -0.5417   -5.0859    4.1022 H   0  0  0  0  0  0  0  0  0  0  0  0
   -1.7319   -6.6332    3.2212 H   0  0  0  0  0  0  0  0  0  0  0  0
   -1.9851   -9.8603    3.0352 H   0  0  0  0  0  0  0  0  0  0  0  0
   -2.9844   -8.3728    3.0268 H   0  0  0  0  0  0  0  0  0  0  0  0
   -2.9330   -9.3146    4.4631 H   0  0  0  0  0  0  0  0  0  0  0  0
   -0.8428   -9.4828    5.8864 H   0  0  0  0  0  0  0  0  0  0  0  0
   -0.0800  -10.2521    4.5587 H   0  0  0  0  0  0  0  0  0  0  0  0
    0.8357   -9.3259    6.6045 H   0  0  0  0  0  0  0  0  0  0  0  0
   -1.6088   -5.8086    6.3230 H   0  0  0  0  0  0  0  0  0  0  0  0
   -0.4471   -5.4528    7.5793 H   0  0  0  0  0  0  0  0  0  0  0  0
    0.1066   -3.5653    6.5392 H   0  0  0  0  0  0  0  0  0  0  0  0
    1.4364   -4.3378    5.2121 H   0  0  0  0  0  0  0  0  0  0  0  0
    3.2504   -5.3296    9.1004 H   0  0  0  0  0  0  0  0  0  0  0  0
    2.8549   -3.6401    9.5419 H   0  0  0  0  0  0  0  0  0  0  0  0
    4.2172   -3.9642    8.4390 H   0  0  0  0  0  0  0  0  0  0  0  0
  1  2  1  0
  1 50  1  0
  1 51  1  0
  1 52  1  0
  3  2  1  1
  3 14  1  0
  3 30  1  0
  3  4  1  0
  4 16  1  0
  4  5  1  0
  4 53  1  6
  5  6  1  0
  5  7  1  0
  5 54  1  6
  6 55  1  0
  6 56  1  0
  6 57  1  0
  7  8  1  0
  7  9  1  0
  7 58  1  6
  8 59  1  0
  9 10  1  0
  9 11  1  0
  9 60  1  6
 10 61  1  0
 11 39  1  0
 11 12  1  1
 11 13  1  0
 12 62  1  0
 13 14  1  0
 14 15  1  1
 14 16  1  0
 15 63  1  0
 16 17  1  0
 16 64  1  1
 17 25  1  0
 17 18  1  1
 17 19  1  0
 18 65  1  0
 18 66  1  0
 18 67  1  0
 19 24  1  0
 19 20  1  0
 19 68  1  1
 20 21  1  0
 20 69  1  0
 20 70  1  0
 21 22  1  0
 22 23  1  6
 22 24  1  0
 22 25  1  0
 23 71  1  0
 23 72  1  0
 23 73  1  0
 25 26  1  1
 25 27  1  0
 26 74  1  0
 27 31  1  1
 27 45  1  0
 27 28  1  0
 28 29  1  0
 28 34  1  0
 28 75  1  1
 29 30  1  0
 29 76  1  0
 29 77  1  0
 30 31  1  0
 30 78  1  6
 31 32  1  0
 31 33  1  0
 32 79  1  0
 32 80  1  0
 32 81  1  0
 33 82  1  0
 33 83  1  0
 33 84  1  0
 34 42  1  0
 34 35  1  0
 34 85  1  1
 35 36  2  0
 35 86  1  0
 36 37  1  0
 36 38  1  0
 37 87  1  0
 37 88  1  0
 37 89  1  0
 38 39  1  0
 38 90  1  0
 38 91  1  0
 39 40  1  0
 39 92  1  6
 40 41  2  0
 40 42  1  0
 42 43  1  1
 42 45  1  0
 43 44  1  0
 43 93  1  0
 43 94  1  0
 44 95  1  0
 45 46  1  0
 45 96  1  6
 46 47  1  0
 47 48  1  0
 47 49  2  0
 48 97  1  0
 48 98  1  0
 48 99  1  0
M  END
>  <i_m_ct_stereo_status>  (117) 
1

>  <s_m_source_file>  (117) 
/var/tmp/pbs.5076255.sched01/tmpyrjfudeo/454urwji6r.sdf

>  <i_m_source_file_index>  (117) 
8

>  <i_lp_mmshare_version>  (117) 
48012

>  <i_f3d_flags>  (117) 
0

>  <s_epik_input>  (117) 
W0NIM11bQ0BdMShPMilPW0NIMl1bQ0BASF0yW0NAQF0oW0NIM10pKFtDQEBdMShbQ0BAXTM0NSlbT0hdKVtDQEBIXTZbQ0BASF03W0NAXTgoT1tDSDNdKVtDQEBdNihbT0hdKU9bQ0BdKFtPSF0pKFtDQEhdKFtPSF0pW0NASF0oW09IXSlbQ0BASF03W0NIM10pW0NAQEhdOVtDSDJdQyhbQ0gzXSk9W0NIXVtDQEhdKFtDQEBIXTNbQ0gyXVtDQEBIXThDNChbQ0gzXSlbQ0gzXSlbQ0BdKEM5PU8pKFtDSDJdW09IXSlbQ0BIXTVPQyg9TylbQ0gzXQ==

>  <s_epik_cmdline>  (117) 
J2VwaWtfcHl0aG9uJywgJy1waHQnLCAnMi4wJywgJy1waCcsICc3LjAnLCAnLXRuJywgJzgnLCAnLW1hJywgJzIwMCcsICctaW1hZScsICc8aW5maWxlLm1hZT4nLCAnLW9tYWUnLCAnPG91dGZpbGUubWFlPic=

>  <r_lp_tautomer_probability>  (117) 
1

>  <r_epik_Ionization_Penalty>  (117) 
4.13207e-05

>  <r_epik_Ionization_Penalty_Charging>  (117) 
0

>  <r_epik_Ionization_Penalty_Neutral>  (117) 
4.13207e-05

>  <r_epik_State_Penalty>  (117) 
-0

>  <r_epik_Charging_Adjusted_Penalty>  (117) 
0

>  <i_epik_Tot_Q>  (117) 
0

>  <i_epik_Tot_abs_Q>  (117) 
0

>  <s_epik_Chemistry_Notes>  (117) 
This compound has an ester and may undergo hydrolysis at high or low pH.

>  <s_lp_Force_Field>  (117) 
OPLS3e

>  <r_lp_Energy>  (117) 
774.024

>  <b_lp_Chiralities_Consistent>  (117) 
1

>  <s_lp_Variant>  (117) 
25:0-1

>  <s_i_glide_gridfile>  (117) 
pfpi4k_grid

>  <i_i_glide_lignum>  (117) 
8

>  <i_i_glide_rotatable_bonds>  (117) 
10

>  <r_i_docking_score>  (117) 
-2.61681

>  <r_i_glide_ligand_efficiency>  (117) 
-0.0534042

>  <r_i_glide_ligand_efficiency_sa>  (117) 
-0.195422

>  <r_i_glide_ligand_efficiency_ln>  (117) 
-0.534935

>  <r_i_glide_gscore>  (117) 
-2.61681

>  <r_i_glide_lipo>  (117) 
-0.168562

>  <r_i_glide_hbond>  (117) 
0

>  <r_i_glide_metal>  (117) 
-0

>  <r_i_glide_rewards>  (117) 
-0.520264

>  <r_i_glide_evdw>  (117) 
-11.2111

>  <r_i_glide_ecoul>  (117) 
-9.34099

>  <r_i_glide_erotb>  (117) 
0.0897031

>  <r_i_glide_esite>  (117) 
-0.0559837

>  <r_i_glide_emodel>  (117) 
-24.8425

>  <r_i_glide_energy>  (117) 
-20.552

>  <r_i_glide_einternal>  (117) 
8.14806

>  <r_i_glide_intrahb_reward>  (117) 
-0.5

>  <i_i_glide_confnum>  (117) 
6

>  <i_i_glide_posenum>  (117) 
13

>  <r_i_glide_eff_state_penalty>  (117) 
0

>  <ligand_id>  (117) 
25

>  <original_smiles>  (117) 
COC12C3C(C)C(O)C(O)C4(O)OC1(O)C3C1(C)C3COC(C)(O3)C1(O)C13C(CC2C1(C)C)C1C=C(C)CC4C(=O)C1(CO)C3OC(C)=O

>  <smiles>  (117) 
[H]OC([H])([H])C12C(=O)C3([H])C([H])([H])C(C([H])([H])[H])=C([H])C1([H])C1([H])C([H])([H])C4([H])C5(OC([H])([H])[H])C6(O[H])OC3(O[H])C([H])(O[H])C([H])(O[H])C([H])(C([H])([H])[H])C5([H])C6([H])C3(C([H])([H])[H])C5([H])OC(C([H])([H])[H])(OC5([H])[H])C3(O[H])C1(C2([H])OC(=O)C([H])([H])[H])C4(C([H])([H])[H])C([H])([H])[H]

$$$$
25:0:2
     RDKit          3D

 99107  0  0  1  0  0  0  0  0999 V2000
    3.4966   -5.0701    0.4550 C   0  0  0  0  0  0  0  0  0  0  0  0
    3.6541   -5.0329    1.9008 O   0  0  0  0  0  0  0  0  0  0  0  0
    3.8321   -6.1965    2.7386 C   0  0  1  0  0  0  0  0  0  0  0  0
    5.3255   -6.0207    2.2592 C   0  0  2  0  0  0  0  0  0  0  0  0
    6.3752   -7.1658    1.7944 C   0  0  1  0  0  0  0  0  0  0  0  0
    7.8091   -6.8621    2.2921 C   0  0  0  0  0  0  0  0  0  0  0  0
    6.0316   -8.7407    1.8611 C   0  0  1  0  0  0  0  0  0  0  0  0
    6.8204   -9.3793    0.8793 O   0  0  0  0  0  0  0  0  0  0  0  0
    6.0078   -9.7100    3.1829 C   0  0  1  0  0  0  0  0  0  0  0  0
    7.3024  -10.2759    3.3453 O   0  0  0  0  0  0  0  0  0  0  0  0
    5.4505   -9.0603    4.5427 C   0  0  1  0  0  0  0  0  0  0  0  0
    6.3933   -9.3080    5.5716 O   0  0  0  0  0  0  0  0  0  0  0  0
    5.6693   -7.7260    4.1363 O   0  0  0  0  0  0  0  0  0  0  0  0
    4.7892   -6.6248    4.1044 C   0  0  2  0  0  0  0  0  0  0  0  0
    4.6002   -6.5194    5.4485 O   0  0  0  0  0  0  0  0  0  0  0  0
    5.3277   -5.3047    3.7188 C   0  0  2  0  0  0  0  0  0  0  0  0
    4.2882   -4.2036    4.4380 C   0  0  1  0  0  0  0  0  0  0  0  0
    5.0150   -3.7769    5.7783 C   0  0  0  0  0  0  0  0  0  0  0  0
    4.0964   -2.7617    3.8135 C   0  0  1  0  0  0  0  0  0  0  0  0
    3.4280   -2.5101    2.4713 C   0  0  0  0  0  0  0  0  0  0  0  0
    2.1985   -3.2256    2.6390 O   0  0  0  0  0  0  0  0  0  0  0  0
    2.0532   -3.3307    4.0165 C   0  0  2  0  0  0  0  0  0  0  0  0
    0.6240   -2.8702    4.4081 C   0  0  0  0  0  0  0  0  0  0  0  0
    2.9225   -2.3401    4.4718 O   0  0  0  0  0  0  0  0  0  0  0  0
    2.6963   -4.6651    4.6956 C   0  0  2  0  0  0  0  0  0  0  0  0
    2.3909   -4.2618    6.0154 O   0  0  0  0  0  0  0  0  0  0  0  0
    2.0815   -6.3973    4.6960 C   0  0  1  0  0  0  0  0  0  0  0  0
    0.6825   -6.6354    4.5562 C   0  0  1  0  0  0  0  0  0  0  0  0
    0.9161   -6.0231    3.0546 C   0  0  0  0  0  0  0  0  0  0  0  0
    2.2809   -6.5541    2.3755 C   0  0  2  0  0  0  0  0  0  0  0  0
    2.0287   -7.6112    3.2448 C   0  0  0  0  0  0  0  0  0  0  0  0
    2.9744   -8.6627    2.6166 C   0  0  0  0  0  0  0  0  0  0  0  0
    0.7422   -8.4090    2.4861 C   0  0  0  0  0  0  0  0  0  0  0  0
    0.7611   -8.1677    5.3825 C   0  0  1  0  0  0  0  0  0  0  0  0
    0.6180   -9.6247    4.8795 C   0  0  0  0  0  0  0  0  0  0  0  0
    1.5033  -10.6501    4.6629 C   0  0  0  0  0  0  0  0  0  0  0  0
    0.9261  -11.9682    4.1856 C   0  0  0  0  0  0  0  0  0  0  0  0
    3.0654  -10.7500    4.7616 C   0  0  0  0  0  0  0  0  0  0  0  0
    3.9404   -9.5259    5.2175 C   0  0  2  0  0  0  0  0  0  0  0  0
    3.2644   -8.8870    6.4566 C   0  0  0  0  0  0  0  0  0  0  0  0
    3.9312   -8.9003    7.4944 O   0  0  0  0  0  0  0  0  0  0  0  0
    1.8173   -8.2203    6.5201 C   0  0  2  0  0  0  0  0  0  0  0  0
    1.1283   -8.5981    7.8850 C   0  0  0  0  0  0  0  0  0  0  0  0
    0.4181   -9.8258    7.8711 O   0  0  0  0  0  0  0  0  0  0  0  0
    2.0286   -6.7667    6.3360 C   0  0  1  0  0  0  0  0  0  0  0  0
    2.9793   -6.3159    7.3499 O   0  0  0  0  0  0  0  0  0  0  0  0
    2.6651   -5.8308    8.5793 C   0  0  0  0  0  0  0  0  0  0  0  0
    3.9008   -5.4018    9.3564 C   0  0  0  0  0  0  0  0  0  0  0  0
    1.5305   -5.6934    9.0449 O   0  0  0  0  0  0  0  0  0  0  0  0
    4.0526   -4.2496    0.0012 H   0  0  0  0  0  0  0  0  0  0  0  0
    2.4515   -4.9061    0.1929 H   0  0  0  0  0  0  0  0  0  0  0  0
    3.8472   -5.9984   -0.0035 H   0  0  0  0  0  0  0  0  0  0  0  0
    5.6586   -5.1634    1.6534 H   0  0  0  0  0  0  0  0  0  0  0  0
    6.4585   -6.9861    0.7255 H   0  0  0  0  0  0  0  0  0  0  0  0
    7.9197   -7.0350    3.3593 H   0  0  0  0  0  0  0  0  0  0  0  0
    8.0841   -5.8276    2.0996 H   0  0  0  0  0  0  0  0  0  0  0  0
    8.5519   -7.4865    1.7932 H   0  0  0  0  0  0  0  0  0  0  0  0
    5.1001   -8.8483    1.3297 H   0  0  0  0  0  0  0  0  0  0  0  0
    6.4804  -10.2494    0.7639 H   0  0  0  0  0  0  0  0  0  0  0  0
    5.3785  -10.5672    2.9600 H   0  0  0  0  0  0  0  0  0  0  0  0
    7.2728  -10.9322    4.0215 H   0  0  0  0  0  0  0  0  0  0  0  0
    6.4084  -10.2359    5.7520 H   0  0  0  0  0  0  0  0  0  0  0  0
    4.1319   -7.2868    5.7168 H   0  0  0  0  0  0  0  0  0  0  0  0
    6.3579   -5.1570    4.0298 H   0  0  0  0  0  0  0  0  0  0  0  0
    4.5287   -2.9386    6.2859 H   0  0  0  0  0  0  0  0  0  0  0  0
    6.0335   -3.4590    5.5745 H   0  0  0  0  0  0  0  0  0  0  0  0
    5.0982   -4.5414    6.5445 H   0  0  0  0  0  0  0  0  0  0  0  0
    4.9332   -2.0847    3.9776 H   0  0  0  0  0  0  0  0  0  0  0  0
    3.2054   -1.4453    2.3659 H   0  0  0  0  0  0  0  0  0  0  0  0
    4.0500   -2.7630    1.6133 H   0  0  0  0  0  0  0  0  0  0  0  0
    0.3091   -2.0493    3.7588 H   0  0  0  0  0  0  0  0  0  0  0  0
    0.6278   -2.5009    5.4317 H   0  0  0  0  0  0  0  0  0  0  0  0
   -0.0997   -3.6773    4.3421 H   0  0  0  0  0  0  0  0  0  0  0  0
    2.8731   -4.8376    6.5929 H   0  0  0  0  0  0  0  0  0  0  0  0
    0.0280   -5.9424    5.0843 H   0  0  0  0  0  0  0  0  0  0  0  0
    0.0447   -6.2019    2.4243 H   0  0  0  0  0  0  0  0  0  0  0  0
    0.8081   -4.9720    2.9543 H   0  0  0  0  0  0  0  0  0  0  0  0
    2.1196   -6.7816    1.3199 H   0  0  0  0  0  0  0  0  0  0  0  0
    3.0453   -8.5865    1.5300 H   0  0  0  0  0  0  0  0  0  0  0  0
    2.7303   -9.7040    2.6801 H   0  0  0  0  0  0  0  0  0  0  0  0
    3.9256   -8.5664    2.9571 H   0  0  0  0  0  0  0  0  0  0  0  0
    0.6420   -8.1731    1.4238 H   0  0  0  0  0  0  0  0  0  0  0  0
   -0.2554   -8.2438    2.8951 H   0  0  0  0  0  0  0  0  0  0  0  0
    0.7782   -9.4982    2.4244 H   0  0  0  0  0  0  0  0  0  0  0  0
   -0.1940   -8.1099    5.9051 H   0  0  0  0  0  0  0  0  0  0  0  0
   -0.4196   -9.8438    4.6931 H   0  0  0  0  0  0  0  0  0  0  0  0
    1.3362  -12.2376    3.2079 H   0  0  0  0  0  0  0  0  0  0  0  0
   -0.1575  -11.9296    4.0936 H   0  0  0  0  0  0  0  0  0  0  0  0
    1.1665  -12.7647    4.8819 H   0  0  0  0  0  0  0  0  0  0  0  0
    3.1973  -11.5457    5.5028 H   0  0  0  0  0  0  0  0  0  0  0  0
    3.4750  -11.2118    3.8654 H   0  0  0  0  0  0  0  0  0  0  0  0
    4.4656  -10.2190    5.8723 H   0  0  0  0  0  0  0  0  0  0  0  0
    1.8362   -8.6510    8.7109 H   0  0  0  0  0  0  0  0  0  0  0  0
    0.4135   -7.8336    8.1781 H   0  0  0  0  0  0  0  0  0  0  0  0
    0.9983  -10.5649    7.6848 H   0  0  0  0  0  0  0  0  0  0  0  0
    1.1295   -6.2848    6.7244 H   0  0  0  0  0  0  0  0  0  0  0  0
    4.6915   -6.1462    9.2573 H   0  0  0  0  0  0  0  0  0  0  0  0
    3.6712   -5.2774   10.4151 H   0  0  0  0  0  0  0  0  0  0  0  0
    4.2786   -4.4542    8.9729 H   0  0  0  0  0  0  0  0  0  0  0  0
  1  2  1  0
  1 50  1  0
  1 51  1  0
  1 52  1  0
  3  2  1  1
  3 14  1  0
  3 30  1  0
  3  4  1  0
  4 16  1  0
  4  5  1  0
  4 53  1  6
  5  6  1  0
  5  7  1  0
  5 54  1  6
  6 55  1  0
  6 56  1  0
  6 57  1  0
  7  8  1  0
  7  9  1  0
  7 58  1  6
  8 59  1  0
  9 10  1  0
  9 11  1  0
  9 60  1  6
 10 61  1  0
 11 39  1  0
 11 12  1  1
 11 13  1  0
 12 62  1  0
 13 14  1  0
 14 15  1  1
 14 16  1  0
 15 63  1  0
 16 17  1  0
 16 64  1  1
 17 25  1  0
 17 18  1  1
 17 19  1  0
 18 65  1  0
 18 66  1  0
 18 67  1  0
 19 24  1  0
 19 20  1  0
 19 68  1  1
 20 21  1  0
 20 69  1  0
 20 70  1  0
 21 22  1  0
 22 23  1  6
 22 24  1  0
 22 25  1  0
 23 71  1  0
 23 72  1  0
 23 73  1  0
 25 26  1  1
 25 27  1  0
 26 74  1  0
 27 31  1  6
 27 45  1  0
 27 28  1  0
 28 29  1  0
 28 34  1  0
 28 75  1  1
 29 30  1  0
 29 76  1  0
 29 77  1  0
 30 31  1  0
 30 78  1  6
 31 32  1  0
 31 33  1  0
 32 79  1  0
 32 80  1  0
 32 81  1  0
 33 82  1  0
 33 83  1  0
 33 84  1  0
 34 42  1  0
 34 35  1  0
 34 85  1  1
 35 36  2  0
 35 86  1  0
 36 37  1  0
 36 38  1  0
 37 87  1  0
 37 88  1  0
 37 89  1  0
 38 39  1  0
 38 90  1  0
 38 91  1  0
 39 40  1  0
 39 92  1  6
 40 41  2  0
 40 42  1  0
 42 43  1  1
 42 45  1  0
 43 44  1  0
 43 93  1  0
 43 94  1  0
 44 95  1  0
 45 46  1  0
 45 96  1  1
 46 47  1  0
 47 48  1  0
 47 49  2  0
 48 97  1  0
 48 98  1  0
 48 99  1  0
M  END
>  <i_m_ct_stereo_status>  (118) 
1

>  <s_m_source_file>  (118) 
/var/tmp/pbs.5076255.sched01/tmpyrjfudeo/454urwji6r.sdf

>  <i_m_source_file_index>  (118) 
8

>  <i_lp_mmshare_version>  (118) 
48012

>  <i_f3d_flags>  (118) 
0

>  <s_epik_input>  (118) 
W0NIM11bQ0BdMShPMilPW0NIMl1bQ0BASF0yW0NAQF0oW0NIM10pKFtDQEBdMShbQ0BAXTM0NSlbT0hdKVtDQEBIXTZbQ0BASF03W0NAXTgoT1tDSDNdKVtDQEBdNihbT0hdKU9bQ0BdKFtPSF0pKFtDQEhdKFtPSF0pW0NASF0oW09IXSlbQ0BASF03W0NIM10pW0NAQEhdOVtDSDJdQyhbQ0gzXSk9W0NIXVtDQEhdKFtDQEBIXTNbQ0gyXVtDQEBIXThDNChbQ0gzXSlbQ0gzXSlbQ0BdKEM5PU8pKFtDSDJdW09IXSlbQ0BIXTVPQyg9TylbQ0gzXQ==

>  <s_epik_cmdline>  (118) 
J2VwaWtfcHl0aG9uJywgJy1waHQnLCAnMi4wJywgJy1waCcsICc3LjAnLCAnLXRuJywgJzgnLCAnLW1hJywgJzIwMCcsICctaW1hZScsICc8aW5maWxlLm1hZT4nLCAnLW9tYWUnLCAnPG91dGZpbGUubWFlPic=

>  <r_lp_tautomer_probability>  (118) 
1

>  <r_epik_Ionization_Penalty>  (118) 
4.13207e-05

>  <r_epik_Ionization_Penalty_Charging>  (118) 
0

>  <r_epik_Ionization_Penalty_Neutral>  (118) 
4.13207e-05

>  <r_epik_State_Penalty>  (118) 
-0

>  <r_epik_Charging_Adjusted_Penalty>  (118) 
0

>  <i_epik_Tot_Q>  (118) 
0

>  <i_epik_Tot_abs_Q>  (118) 
0

>  <s_epik_Chemistry_Notes>  (118) 
This compound has an ester and may undergo hydrolysis at high or low pH.

>  <s_lp_Force_Field>  (118) 
OPLS3e

>  <r_lp_Energy>  (118) 
774.024

>  <b_lp_Chiralities_Consistent>  (118) 
1

>  <s_lp_Variant>  (118) 
25:0-1

>  <s_i_glide_gridfile>  (118) 
pfpi4k_grid

>  <i_i_glide_lignum>  (118) 
8

>  <i_i_glide_rotatable_bonds>  (118) 
10

>  <r_i_docking_score>  (118) 
-2.45207

>  <r_i_glide_ligand_efficiency>  (118) 
-0.0500422

>  <r_i_glide_ligand_efficiency_sa>  (118) 
-0.18312

>  <r_i_glide_ligand_efficiency_ln>  (118) 
-0.501259

>  <r_i_glide_gscore>  (118) 
-2.45207

>  <r_i_glide_lipo>  (118) 
-0.184903

>  <r_i_glide_hbond>  (118) 
-0.156691

>  <r_i_glide_metal>  (118) 
-0

>  <r_i_glide_rewards>  (118) 
-0.00494966

>  <r_i_glide_evdw>  (118) 
-24.6158

>  <r_i_glide_ecoul>  (118) 
-6.32538

>  <r_i_glide_erotb>  (118) 
0.0897031

>  <r_i_glide_esite>  (118) 
-0.0156316

>  <r_i_glide_emodel>  (118) 
-33.4232

>  <r_i_glide_energy>  (118) 
-30.9412

>  <r_i_glide_einternal>  (118) 
3.95141

>  <r_i_glide_intrahb_reward>  (118) 
-0

>  <i_i_glide_confnum>  (118) 
2

>  <i_i_glide_posenum>  (118) 
35

>  <r_i_glide_eff_state_penalty>  (118) 
0

>  <ligand_id>  (118) 
25

>  <original_smiles>  (118) 
COC12C3C(C)C(O)C(O)C4(O)OC1(O)C3C1(C)C3COC(C)(O3)C1(O)C13C(CC2C1(C)C)C1C=C(C)CC4C(=O)C1(CO)C3OC(C)=O

>  <smiles>  (118) 
[H]OC([H])([H])C12C(=O)C3([H])C([H])([H])C(C([H])([H])[H])=C([H])C1([H])C1([H])C([H])([H])C4([H])C5(OC([H])([H])[H])C6(O[H])OC3(O[H])C([H])(O[H])C([H])(O[H])C([H])(C([H])([H])[H])C5([H])C6([H])C3(C([H])([H])[H])C5([H])OC(C([H])([H])[H])(OC5([H])[H])C3(O[H])C1(C2([H])OC(=O)C([H])([H])[H])C4(C([H])([H])[H])C([H])([H])[H]

$$$$
26:0:0
     RDKit          3D

 23 24  0  0  1  0  0  0  0  0999 V2000
    3.4227   -0.3451   -3.8168 C   0  0  0  0  0  0  0  0  0  0  0  0
    3.2178   -1.5300   -2.8935 C   0  0  0  0  0  0  0  0  0  0  0  0
    4.1990   -2.0740   -2.1416 C   0  0  0  0  0  0  0  0  0  0  0  0
    5.3894   -1.4670   -2.2514 F   0  0  0  0  0  0  0  0  0  0  0  0
    4.0333   -3.2249   -1.2424 C   0  0  0  0  0  0  0  0  0  0  0  0
    2.3597   -3.7584   -0.9559 S   0  0  0  0  0  0  0  0  0  0  0  0
    2.4906   -5.1483    0.1004 C   0  0  0  0  0  0  0  0  0  0  0  0
    1.4401   -5.8595    0.5224 N   0  0  0  0  0  0  0  0  0  0  0  0
    2.0674   -6.7703    1.3361 C   0  0  0  0  0  0  0  0  0  0  0  0
    3.3899   -6.6554    1.4201 N   0  0  0  0  0  0  0  0  0  0  0  0
    3.6374   -5.5983    0.6004 N   0  0  0  0  0  0  0  0  0  0  0  0
    4.8987   -4.9859    0.2710 C   0  0  0  0  0  0  0  0  0  0  0  0
    5.8412   -5.5486    0.8300 O   0  0  0  0  0  0  0  0  0  0  0  0
    5.0891   -3.8375   -0.6172 C   0  0  0  0  0  0  0  0  0  0  0  0
    6.5371   -3.3851   -0.8014 C   0  0  0  0  0  0  0  0  0  0  0  0
    2.4882   -0.0877   -4.3163 H   0  0  0  0  0  0  0  0  0  0  0  0
    4.1703   -0.5705   -4.5781 H   0  0  0  0  0  0  0  0  0  0  0  0
    3.7575    0.5269   -3.2523 H   0  0  0  0  0  0  0  0  0  0  0  0
    2.2134   -1.9211   -2.8750 H   0  0  0  0  0  0  0  0  0  0  0  0
    1.5446   -7.5380    1.8947 H   0  0  0  0  0  0  0  0  0  0  0  0
    7.2607   -3.9847   -0.2493 H   0  0  0  0  0  0  0  0  0  0  0  0
    6.6584   -2.3642   -0.4440 H   0  0  0  0  0  0  0  0  0  0  0  0
    6.8128   -3.4477   -1.8536 H   0  0  0  0  0  0  0  0  0  0  0  0
  1  2  1  0
  1 16  1  0
  1 17  1  0
  1 18  1  0
  2  3  2  3
  2 19  1  0
  3  4  1  0
  3  5  1  0
  5 14  2  0
  5  6  1  0
  6  7  1  0
  7 11  1  0
  7  8  2  0
  8  9  1  0
  9 10  2  0
  9 20  1  0
 10 11  1  0
 11 12  1  0
 12 13  2  0
 12 14  1  0
 14 15  1  0
 15 21  1  0
 15 22  1  0
 15 23  1  0
M  END
>  <i_m_ct_stereo_status>  (119) 
1

>  <s_m_source_file>  (119) 
/var/tmp/pbs.5076255.sched01/tmpyrjfudeo/454urwji6r.sdf

>  <i_m_source_file_index>  (119) 
9

>  <i_lp_mmshare_version>  (119) 
48012

>  <i_f3d_flags>  (119) 
0

>  <s_epik_input>  (119) 
W0NIM10vW0NIXT1DKFxGKWMoczEpYyhbQ0gzXSljKD1PKW4oYzEyKW5bY0hdbjI=

>  <s_epik_cmdline>  (119) 
J2VwaWtfcHl0aG9uJywgJy1waHQnLCAnMi4wJywgJy1waCcsICc3LjAnLCAnLXRuJywgJzgnLCAnLW1hJywgJzIwMCcsICctaW1hZScsICc8aW5maWxlLm1hZT4nLCAnLW9tYWUnLCAnPG91dGZpbGUubWFlPic=

>  <r_lp_tautomer_probability>  (119) 
1

>  <r_epik_Ionization_Penalty>  (119) 
1.04205e-05

>  <r_epik_Ionization_Penalty_Charging>  (119) 
0

>  <r_epik_Ionization_Penalty_Neutral>  (119) 
1.04205e-05

>  <r_epik_State_Penalty>  (119) 
-0

>  <r_epik_Charging_Adjusted_Penalty>  (119) 
0

>  <i_epik_Tot_Q>  (119) 
0

>  <i_epik_Tot_abs_Q>  (119) 
0

>  <s_lp_Force_Field>  (119) 
OPLS3e

>  <r_lp_Energy>  (119) 
22.8383

>  <b_lp_Chiralities_Consistent>  (119) 
1

>  <s_lp_Variant>  (119) 
26:0-1

>  <s_i_glide_gridfile>  (119) 
pfpi4k_grid

>  <i_i_glide_lignum>  (119) 
9

>  <i_i_glide_rotatable_bonds>  (119) 
1

>  <r_i_docking_score>  (119) 
-4.01345

>  <r_i_glide_ligand_efficiency>  (119) 
-0.267563

>  <r_i_glide_ligand_efficiency_sa>  (119) 
-0.659867

>  <r_i_glide_ligand_efficiency_ln>  (119) 
-1.08236

>  <r_i_glide_gscore>  (119) 
-4.01345

>  <r_i_glide_lipo>  (119) 
-0.517532

>  <r_i_glide_hbond>  (119) 
-0.155001

>  <r_i_glide_metal>  (119) 
-0

>  <r_i_glide_rewards>  (119) 
-1.87752

>  <r_i_glide_evdw>  (119) 
-17.8481

>  <r_i_glide_ecoul>  (119) 
-5.22334

>  <r_i_glide_erotb>  (119) 
0.334429

>  <r_i_glide_esite>  (119) 
-0.121915

>  <r_i_glide_emodel>  (119) 
-28.8414

>  <r_i_glide_energy>  (119) 
-23.0714

>  <r_i_glide_einternal>  (119) 
0.125602

>  <r_i_glide_intrahb_reward>  (119) 
-0

>  <i_i_glide_confnum>  (119) 
1

>  <i_i_glide_posenum>  (119) 
18

>  <r_i_glide_eff_state_penalty>  (119) 
0

>  <ligand_id>  (119) 
26

>  <original_smiles>  (119) 
CC=C(F)c1sc2ncnn2c(=O)c1C

>  <smiles>  (119) 
[H]C(=C(F)c1sc2nc([H])nn2c(=O)c1C([H])([H])[H])C([H])([H])[H]

$$$$
26:0:1
     RDKit          3D

 23 24  0  0  1  0  0  0  0  0999 V2000
    3.7485    0.1260   -4.1728 C   0  0  0  0  0  0  0  0  0  0  0  0
    3.9637   -0.8060   -2.9980 C   0  0  0  0  0  0  0  0  0  0  0  0
    3.5448   -2.0829   -2.9254 C   0  0  0  0  0  0  0  0  0  0  0  0
    2.8474   -2.5903   -3.9522 F   0  0  0  0  0  0  0  0  0  0  0  0
    3.7783   -2.9712   -1.8061 C   0  0  0  0  0  0  0  0  0  0  0  0
    2.3056   -3.6535   -1.0915 S   0  0  0  0  0  0  0  0  0  0  0  0
    2.8990   -4.7285    0.1650 C   0  0  0  0  0  0  0  0  0  0  0  0
    2.1066   -5.4651    0.9496 N   0  0  0  0  0  0  0  0  0  0  0  0
    3.0417   -6.0639    1.7590 C   0  0  0  0  0  0  0  0  0  0  0  0
    4.3076   -5.7454    1.5175 N   0  0  0  0  0  0  0  0  0  0  0  0
    4.1909   -4.8816    0.4711 N   0  0  0  0  0  0  0  0  0  0  0  0
    5.2350   -4.1809   -0.2382 C   0  0  0  0  0  0  0  0  0  0  0  0
    6.3555   -4.4426    0.2113 O   0  0  0  0  0  0  0  0  0  0  0  0
    5.0293   -3.2528   -1.3467 C   0  0  0  0  0  0  0  0  0  0  0  0
    6.2815   -2.6568   -1.9738 C   0  0  0  0  0  0  0  0  0  0  0  0
    4.2094    1.0961   -3.9683 H   0  0  0  0  0  0  0  0  0  0  0  0
    2.6806    0.2855   -4.3387 H   0  0  0  0  0  0  0  0  0  0  0  0
    4.1877   -0.2822   -5.0849 H   0  0  0  0  0  0  0  0  0  0  0  0
    4.4892   -0.3766   -2.1573 H   0  0  0  0  0  0  0  0  0  0  0  0
    2.7904   -6.7492    2.5650 H   0  0  0  0  0  0  0  0  0  0  0  0
    7.1971   -2.9900   -1.4953 H   0  0  0  0  0  0  0  0  0  0  0  0
    6.2683   -1.5772   -1.8734 H   0  0  0  0  0  0  0  0  0  0  0  0
    6.3432   -2.9251   -3.0274 H   0  0  0  0  0  0  0  0  0  0  0  0
  1  2  1  0
  1 16  1  0
  1 17  1  0
  1 18  1  0
  2  3  2  3
  2 19  1  0
  3  4  1  0
  3  5  1  0
  5 14  2  0
  5  6  1  0
  6  7  1  0
  7 11  1  0
  7  8  2  0
  8  9  1  0
  9 10  2  0
  9 20  1  0
 10 11  1  0
 11 12  1  0
 12 13  2  0
 12 14  1  0
 14 15  1  0
 15 21  1  0
 15 22  1  0
 15 23  1  0
M  END
>  <i_m_ct_stereo_status>  (120) 
1

>  <s_m_source_file>  (120) 
/var/tmp/pbs.5076255.sched01/tmpyrjfudeo/454urwji6r.sdf

>  <i_m_source_file_index>  (120) 
9

>  <i_lp_mmshare_version>  (120) 
48012

>  <i_f3d_flags>  (120) 
0

>  <s_epik_input>  (120) 
W0NIM10vW0NIXT1DKFxGKWMoczEpYyhbQ0gzXSljKD1PKW4oYzEyKW5bY0hdbjI=

>  <s_epik_cmdline>  (120) 
J2VwaWtfcHl0aG9uJywgJy1waHQnLCAnMi4wJywgJy1waCcsICc3LjAnLCAnLXRuJywgJzgnLCAnLW1hJywgJzIwMCcsICctaW1hZScsICc8aW5maWxlLm1hZT4nLCAnLW9tYWUnLCAnPG91dGZpbGUubWFlPic=

>  <r_lp_tautomer_probability>  (120) 
1

>  <r_epik_Ionization_Penalty>  (120) 
1.04205e-05

>  <r_epik_Ionization_Penalty_Charging>  (120) 
0

>  <r_epik_Ionization_Penalty_Neutral>  (120) 
1.04205e-05

>  <r_epik_State_Penalty>  (120) 
-0

>  <r_epik_Charging_Adjusted_Penalty>  (120) 
0

>  <i_epik_Tot_Q>  (120) 
0

>  <i_epik_Tot_abs_Q>  (120) 
0

>  <s_lp_Force_Field>  (120) 
OPLS3e

>  <r_lp_Energy>  (120) 
22.8383

>  <b_lp_Chiralities_Consistent>  (120) 
1

>  <s_lp_Variant>  (120) 
26:0-1

>  <s_i_glide_gridfile>  (120) 
pfpi4k_grid

>  <i_i_glide_lignum>  (120) 
9

>  <i_i_glide_rotatable_bonds>  (120) 
1

>  <r_i_docking_score>  (120) 
-3.57719

>  <r_i_glide_ligand_efficiency>  (120) 
-0.238479

>  <r_i_glide_ligand_efficiency_sa>  (120) 
-0.58814

>  <r_i_glide_ligand_efficiency_ln>  (120) 
-0.964708

>  <r_i_glide_gscore>  (120) 
-3.57719

>  <r_i_glide_lipo>  (120) 
-0.38025

>  <r_i_glide_hbond>  (120) 
-0.0251668

>  <r_i_glide_metal>  (120) 
-0

>  <r_i_glide_rewards>  (120) 
-2.10554

>  <r_i_glide_evdw>  (120) 
-20.1018

>  <r_i_glide_ecoul>  (120) 
-2.40049

>  <r_i_glide_erotb>  (120) 
0.334429

>  <r_i_glide_esite>  (120) 
-0.0354981

>  <r_i_glide_emodel>  (120) 
-25.8789

>  <r_i_glide_energy>  (120) 
-22.5023

>  <r_i_glide_einternal>  (120) 
3.27265

>  <r_i_glide_intrahb_reward>  (120) 
-0

>  <i_i_glide_confnum>  (120) 
2

>  <i_i_glide_posenum>  (120) 
21

>  <r_i_glide_eff_state_penalty>  (120) 
0

>  <ligand_id>  (120) 
26

>  <original_smiles>  (120) 
CC=C(F)c1sc2ncnn2c(=O)c1C

>  <smiles>  (120) 
[H]C(=C(F)c1sc2nc([H])nn2c(=O)c1C([H])([H])[H])C([H])([H])[H]

$$$$
26:0:2
     RDKit          3D

 23 24  0  0  1  0  0  0  0  0999 V2000
   -4.5889    3.7307    1.9180 C   0  0  0  0  0  0  0  0  0  0  0  0
   -3.2259    3.0885    2.1029 C   0  0  0  0  0  0  0  0  0  0  0  0
   -2.1777    3.6937    2.6991 C   0  0  0  0  0  0  0  0  0  0  0  0
   -2.4196    4.9427    3.1196 F   0  0  0  0  0  0  0  0  0  0  0  0
   -0.8461    3.0906    2.8972 C   0  0  0  0  0  0  0  0  0  0  0  0
   -0.7060    1.3606    2.4710 S   0  0  0  0  0  0  0  0  0  0  0  0
    0.9728    0.9756    2.7545 C   0  0  0  0  0  0  0  0  0  0  0  0
    1.4960   -0.2344    2.5708 N   0  0  0  0  0  0  0  0  0  0  0  0
    2.7866   -0.0193    2.9649 C   0  0  0  0  0  0  0  0  0  0  0  0
    3.0555    1.2077    3.4049 N   0  0  0  0  0  0  0  0  0  0  0  0
    1.8688    1.8379    3.2342 N   0  0  0  0  0  0  0  0  0  0  0  0
    1.5538    3.2004    3.5522 C   0  0  0  0  0  0  0  0  0  0  0  0
    2.5170    3.8288    4.0000 O   0  0  0  0  0  0  0  0  0  0  0  0
    0.2210    3.7985    3.3871 C   0  0  0  0  0  0  0  0  0  0  0  0
    0.1367    5.2772    3.7749 C   0  0  0  0  0  0  0  0  0  0  0  0
   -5.2501    3.0380    1.4091 H   0  0  0  0  0  0  0  0  0  0  0  0
   -4.5102    4.6396    1.3201 H   0  0  0  0  0  0  0  0  0  0  0  0
   -5.0368    3.9838    2.8761 H   0  0  0  0  0  0  0  0  0  0  0  0
   -3.1422    2.0953    1.6938 H   0  0  0  0  0  0  0  0  0  0  0  0
    3.5420   -0.7910    2.9509 H   0  0  0  0  0  0  0  0  0  0  0  0
    1.0728    5.7048    4.1372 H   0  0  0  0  0  0  0  0  0  0  0  0
   -0.5871    5.4069    4.5807 H   0  0  0  0  0  0  0  0  0  0  0  0
   -0.1515    5.8691    2.9022 H   0  0  0  0  0  0  0  0  0  0  0  0
  1  2  1  0
  1 16  1  0
  1 17  1  0
  1 18  1  0
  2  3  2  3
  2 19  1  0
  3  4  1  0
  3  5  1  0
  5 14  2  0
  5  6  1  0
  6  7  1  0
  7 11  1  0
  7  8  2  0
  8  9  1  0
  9 10  2  0
  9 20  1  0
 10 11  1  0
 11 12  1  0
 12 13  2  0
 12 14  1  0
 14 15  1  0
 15 21  1  0
 15 22  1  0
 15 23  1  0
M  END
>  <i_m_ct_stereo_status>  (121) 
1

>  <s_m_source_file>  (121) 
/var/tmp/pbs.5076255.sched01/tmpyrjfudeo/454urwji6r.sdf

>  <i_m_source_file_index>  (121) 
9

>  <i_lp_mmshare_version>  (121) 
48012

>  <i_f3d_flags>  (121) 
0

>  <s_epik_input>  (121) 
W0NIM10vW0NIXT1DKFxGKWMoczEpYyhbQ0gzXSljKD1PKW4oYzEyKW5bY0hdbjI=

>  <s_epik_cmdline>  (121) 
J2VwaWtfcHl0aG9uJywgJy1waHQnLCAnMi4wJywgJy1waCcsICc3LjAnLCAnLXRuJywgJzgnLCAnLW1hJywgJzIwMCcsICctaW1hZScsICc8aW5maWxlLm1hZT4nLCAnLW9tYWUnLCAnPG91dGZpbGUubWFlPic=

>  <r_lp_tautomer_probability>  (121) 
1

>  <r_epik_Ionization_Penalty>  (121) 
1.04205e-05

>  <r_epik_Ionization_Penalty_Charging>  (121) 
0

>  <r_epik_Ionization_Penalty_Neutral>  (121) 
1.04205e-05

>  <r_epik_State_Penalty>  (121) 
-0

>  <r_epik_Charging_Adjusted_Penalty>  (121) 
0

>  <i_epik_Tot_Q>  (121) 
0

>  <i_epik_Tot_abs_Q>  (121) 
0

>  <s_lp_Force_Field>  (121) 
OPLS3e

>  <r_lp_Energy>  (121) 
22.8383

>  <b_lp_Chiralities_Consistent>  (121) 
1

>  <s_lp_Variant>  (121) 
26:0-1

>  <s_i_glide_gridfile>  (121) 
pfpi4k_grid

>  <i_i_glide_lignum>  (121) 
9

>  <i_i_glide_rotatable_bonds>  (121) 
1

>  <r_i_docking_score>  (121) 
-3.16444

>  <r_i_glide_ligand_efficiency>  (121) 
-0.210963

>  <r_i_glide_ligand_efficiency_sa>  (121) 
-0.520279

>  <r_i_glide_ligand_efficiency_ln>  (121) 
-0.853398

>  <r_i_glide_gscore>  (121) 
-3.16444

>  <r_i_glide_lipo>  (121) 
-0.286847

>  <r_i_glide_hbond>  (121) 
0

>  <r_i_glide_metal>  (121) 
-0

>  <r_i_glide_rewards>  (121) 
-1.87334

>  <r_i_glide_evdw>  (121) 
-18.3331

>  <r_i_glide_ecoul>  (121) 
-1.81182

>  <r_i_glide_erotb>  (121) 
0.334429

>  <r_i_glide_esite>  (121) 
-0.150257

>  <r_i_glide_emodel>  (121) 
-24.6993

>  <r_i_glide_energy>  (121) 
-20.1449

>  <r_i_glide_einternal>  (121) 
0.0929234

>  <r_i_glide_intrahb_reward>  (121) 
-0

>  <i_i_glide_confnum>  (121) 
1

>  <i_i_glide_posenum>  (121) 
3

>  <r_i_glide_eff_state_penalty>  (121) 
0

>  <ligand_id>  (121) 
26

>  <original_smiles>  (121) 
CC=C(F)c1sc2ncnn2c(=O)c1C

>  <smiles>  (121) 
[H]C(=C(F)c1sc2nc([H])nn2c(=O)c1C([H])([H])[H])C([H])([H])[H]

$$$$
26:1:0
     RDKit          3D

 23 24  0  0  1  0  0  0  0  0999 V2000
    2.3030    4.0070    3.2320 C   0  0  0  0  0  0  0  0  0  0  0  0
    0.9082    4.6165    3.2862 C   0  0  0  0  0  0  0  0  0  0  0  0
   -0.2547    4.0292    3.6626 C   0  0  0  0  0  0  0  0  0  0  0  0
   -1.3573    4.7986    3.5869 F   0  0  0  0  0  0  0  0  0  0  0  0
   -0.4061    2.6370    4.0760 C   0  0  0  0  0  0  0  0  0  0  0  0
    0.3905    1.4327    3.0283 S   0  0  0  0  0  0  0  0  0  0  0  0
    0.1883   -0.0577    3.9253 C   0  0  0  0  0  0  0  0  0  0  0  0
    0.7911   -1.2043    3.6302 N   0  0  0  0  0  0  0  0  0  0  0  0
    0.2255   -2.0442    4.5462 C   0  0  0  0  0  0  0  0  0  0  0  0
   -0.6520   -1.4911    5.3796 N   0  0  0  0  0  0  0  0  0  0  0  0
   -0.6430   -0.1964    4.9750 N   0  0  0  0  0  0  0  0  0  0  0  0
   -1.3877    0.8907    5.5529 C   0  0  0  0  0  0  0  0  0  0  0  0
   -2.1615    0.5486    6.4670 O   0  0  0  0  0  0  0  0  0  0  0  0
   -1.2129    2.2828    5.1274 C   0  0  0  0  0  0  0  0  0  0  0  0
   -1.9856    3.2929    5.9774 C   0  0  0  0  0  0  0  0  0  0  0  0
    3.0037    4.6310    3.7860 H   0  0  0  0  0  0  0  0  0  0  0  0
    2.6271    3.9601    2.1871 H   0  0  0  0  0  0  0  0  0  0  0  0
    2.3579    3.0012    3.6497 H   0  0  0  0  0  0  0  0  0  0  0  0
    0.8516    5.6449    2.9596 H   0  0  0  0  0  0  0  0  0  0  0  0
    0.4670   -3.1034    4.5744 H   0  0  0  0  0  0  0  0  0  0  0  0
   -1.7677    3.1374    7.0346 H   0  0  0  0  0  0  0  0  0  0  0  0
   -3.0569    3.1448    5.8271 H   0  0  0  0  0  0  0  0  0  0  0  0
   -1.7586    4.3355    5.7761 H   0  0  0  0  0  0  0  0  0  0  0  0
  1  2  1  0
  1 16  1  0
  1 17  1  0
  1 18  1  0
  2  3  2  3
  2 19  1  0
  3  4  1  0
  3  5  1  0
  5 14  2  0
  5  6  1  0
  6  7  1  0
  7 11  1  0
  7  8  2  0
  8  9  1  0
  9 10  2  0
  9 20  1  0
 10 11  1  0
 11 12  1  0
 12 13  2  0
 12 14  1  0
 14 15  1  0
 15 21  1  0
 15 22  1  0
 15 23  1  0
M  END
>  <i_m_ct_stereo_status>  (122) 
1

>  <s_m_source_file>  (122) 
/var/tmp/pbs.5076255.sched01/tmpyrjfudeo/454urwji6r.sdf

>  <i_m_source_file_index>  (122) 
10

>  <i_lp_mmshare_version>  (122) 
48012

>  <i_f3d_flags>  (122) 
0

>  <s_epik_input>  (122) 
W0NIM10vW0NIXT1DKFxGKWMoczEpYyhbQ0gzXSljKD1PKW4oYzEyKW5bY0hdbjI=

>  <s_epik_cmdline>  (122) 
J2VwaWtfcHl0aG9uJywgJy1waHQnLCAnMi4wJywgJy1waCcsICc3LjAnLCAnLXRuJywgJzgnLCAnLW1hJywgJzIwMCcsICctaW1hZScsICc8aW5maWxlLm1hZT4nLCAnLW9tYWUnLCAnPG91dGZpbGUubWFlPic=

>  <r_lp_tautomer_probability>  (122) 
1

>  <r_epik_Ionization_Penalty>  (122) 
1.04205e-05

>  <r_epik_Ionization_Penalty_Charging>  (122) 
0

>  <r_epik_Ionization_Penalty_Neutral>  (122) 
1.04205e-05

>  <r_epik_State_Penalty>  (122) 
-0

>  <r_epik_Charging_Adjusted_Penalty>  (122) 
0

>  <i_epik_Tot_Q>  (122) 
0

>  <i_epik_Tot_abs_Q>  (122) 
0

>  <s_lp_Force_Field>  (122) 
OPLS3e

>  <r_lp_Energy>  (122) 
19.1879

>  <b_lp_Chiralities_Consistent>  (122) 
1

>  <s_lp_Variant>  (122) 
26:0-2

>  <s_i_glide_gridfile>  (122) 
pfpi4k_grid

>  <i_i_glide_lignum>  (122) 
10

>  <i_i_glide_rotatable_bonds>  (122) 
1

>  <r_i_docking_score>  (122) 
-3.60487

>  <r_i_glide_ligand_efficiency>  (122) 
-0.240325

>  <r_i_glide_ligand_efficiency_sa>  (122) 
-0.592692

>  <r_i_glide_ligand_efficiency_ln>  (122) 
-0.972174

>  <r_i_glide_gscore>  (122) 
-3.60487

>  <r_i_glide_lipo>  (122) 
-0.0347207

>  <r_i_glide_hbond>  (122) 
-0.16

>  <r_i_glide_metal>  (122) 
-0

>  <r_i_glide_rewards>  (122) 
-1.91646

>  <r_i_glide_evdw>  (122) 
-17.3724

>  <r_i_glide_ecoul>  (122) 
-5.46677

>  <r_i_glide_erotb>  (122) 
0.334429

>  <r_i_glide_esite>  (122) 
-0.139481

>  <r_i_glide_emodel>  (122) 
-27.8778

>  <r_i_glide_energy>  (122) 
-22.8392

>  <r_i_glide_einternal>  (122) 
0.549394

>  <r_i_glide_intrahb_reward>  (122) 
-0

>  <i_i_glide_confnum>  (122) 
1

>  <i_i_glide_posenum>  (122) 
40

>  <r_i_glide_eff_state_penalty>  (122) 
0

>  <ligand_id>  (122) 
26

>  <original_smiles>  (122) 
CC=C(F)c1sc2ncnn2c(=O)c1C

>  <smiles>  (122) 
[H]C(=C(F)c1sc2nc([H])nn2c(=O)c1C([H])([H])[H])C([H])([H])[H]

$$$$
26:1:1
     RDKit          3D

 23 24  0  0  1  0  0  0  0  0999 V2000
   -3.7816    3.3864    2.4332 C   0  0  0  0  0  0  0  0  0  0  0  0
   -2.5875    4.2746    2.7349 C   0  0  0  0  0  0  0  0  0  0  0  0
   -1.4811    3.9065    3.4065 C   0  0  0  0  0  0  0  0  0  0  0  0
   -0.5317    4.8359    3.6043 F   0  0  0  0  0  0  0  0  0  0  0  0
   -1.2646    2.5959    3.9730 C   0  0  0  0  0  0  0  0  0  0  0  0
   -0.3051    1.4890    2.9876 S   0  0  0  0  0  0  0  0  0  0  0  0
   -0.1506    0.0601    3.9907 C   0  0  0  0  0  0  0  0  0  0  0  0
    0.5876   -0.9981    3.6692 N   0  0  0  0  0  0  0  0  0  0  0  0
    0.3438   -1.8180    4.7426 C   0  0  0  0  0  0  0  0  0  0  0  0
   -0.4869   -1.3432    5.6681 N   0  0  0  0  0  0  0  0  0  0  0  0
   -0.7701   -0.1098    5.1642 N   0  0  0  0  0  0  0  0  0  0  0  0
   -1.5852    0.9281    5.7281 C   0  0  0  0  0  0  0  0  0  0  0  0
   -2.1239    0.5769    6.7822 O   0  0  0  0  0  0  0  0  0  0  0  0
   -1.7883    2.2490    5.1781 C   0  0  0  0  0  0  0  0  0  0  0  0
   -2.5968    3.1967    6.0434 C   0  0  0  0  0  0  0  0  0  0  0  0
   -3.9704    3.3568    1.3591 H   0  0  0  0  0  0  0  0  0  0  0  0
   -4.6875    3.7450    2.9176 H   0  0  0  0  0  0  0  0  0  0  0  0
   -3.5927    2.3678    2.7571 H   0  0  0  0  0  0  0  0  0  0  0  0
   -2.6593    5.2859    2.3587 H   0  0  0  0  0  0  0  0  0  0  0  0
    0.7861   -2.8055    4.8467 H   0  0  0  0  0  0  0  0  0  0  0  0
   -2.1704    3.2574    7.0426 H   0  0  0  0  0  0  0  0  0  0  0  0
   -3.6271    2.8574    6.1285 H   0  0  0  0  0  0  0  0  0  0  0  0
   -2.6217    4.1840    5.6239 H   0  0  0  0  0  0  0  0  0  0  0  0
  1  2  1  0
  1 16  1  0
  1 17  1  0
  1 18  1  0
  2  3  2  3
  2 19  1  0
  3  4  1  0
  3  5  1  0
  5 14  2  0
  5  6  1  0
  6  7  1  0
  7 11  1  0
  7  8  2  0
  8  9  1  0
  9 10  2  0
  9 20  1  0
 10 11  1  0
 11 12  1  0
 12 13  2  0
 12 14  1  0
 14 15  1  0
 15 21  1  0
 15 22  1  0
 15 23  1  0
M  END
>  <i_m_ct_stereo_status>  (123) 
1

>  <s_m_source_file>  (123) 
/var/tmp/pbs.5076255.sched01/tmpyrjfudeo/454urwji6r.sdf

>  <i_m_source_file_index>  (123) 
10

>  <i_lp_mmshare_version>  (123) 
48012

>  <i_f3d_flags>  (123) 
0

>  <s_epik_input>  (123) 
W0NIM10vW0NIXT1DKFxGKWMoczEpYyhbQ0gzXSljKD1PKW4oYzEyKW5bY0hdbjI=

>  <s_epik_cmdline>  (123) 
J2VwaWtfcHl0aG9uJywgJy1waHQnLCAnMi4wJywgJy1waCcsICc3LjAnLCAnLXRuJywgJzgnLCAnLW1hJywgJzIwMCcsICctaW1hZScsICc8aW5maWxlLm1hZT4nLCAnLW9tYWUnLCAnPG91dGZpbGUubWFlPic=

>  <r_lp_tautomer_probability>  (123) 
1

>  <r_epik_Ionization_Penalty>  (123) 
1.04205e-05

>  <r_epik_Ionization_Penalty_Charging>  (123) 
0

>  <r_epik_Ionization_Penalty_Neutral>  (123) 
1.04205e-05

>  <r_epik_State_Penalty>  (123) 
-0

>  <r_epik_Charging_Adjusted_Penalty>  (123) 
0

>  <i_epik_Tot_Q>  (123) 
0

>  <i_epik_Tot_abs_Q>  (123) 
0

>  <s_lp_Force_Field>  (123) 
OPLS3e

>  <r_lp_Energy>  (123) 
19.1879

>  <b_lp_Chiralities_Consistent>  (123) 
1

>  <s_lp_Variant>  (123) 
26:0-2

>  <s_i_glide_gridfile>  (123) 
pfpi4k_grid

>  <i_i_glide_lignum>  (123) 
10

>  <i_i_glide_rotatable_bonds>  (123) 
1

>  <r_i_docking_score>  (123) 
-3.52387

>  <r_i_glide_ligand_efficiency>  (123) 
-0.234925

>  <r_i_glide_ligand_efficiency_sa>  (123) 
-0.579374

>  <r_i_glide_ligand_efficiency_ln>  (123) 
-0.95033

>  <r_i_glide_gscore>  (123) 
-3.52387

>  <r_i_glide_lipo>  (123) 
-0.237391

>  <r_i_glide_hbond>  (123) 
-0.16

>  <r_i_glide_metal>  (123) 
-0

>  <r_i_glide_rewards>  (123) 
-1.87334

>  <r_i_glide_evdw>  (123) 
-16.4684

>  <r_i_glide_ecoul>  (123) 
-4.12916

>  <r_i_glide_erotb>  (123) 
0.334429

>  <r_i_glide_esite>  (123) 
-0.144775

>  <r_i_glide_emodel>  (123) 
-25.3445

>  <r_i_glide_energy>  (123) 
-20.5976

>  <r_i_glide_einternal>  (123) 
1.35708

>  <r_i_glide_intrahb_reward>  (123) 
-0

>  <i_i_glide_confnum>  (123) 
1

>  <i_i_glide_posenum>  (123) 
1

>  <r_i_glide_eff_state_penalty>  (123) 
0

>  <ligand_id>  (123) 
26

>  <original_smiles>  (123) 
CC=C(F)c1sc2ncnn2c(=O)c1C

>  <smiles>  (123) 
[H]C(=C(F)c1sc2nc([H])nn2c(=O)c1C([H])([H])[H])C([H])([H])[H]

$$$$
26:1:2
     RDKit          3D

 23 24  0  0  1  0  0  0  0  0999 V2000
   -1.6790   -9.0427    2.4787 C   0  0  0  0  0  0  0  0  0  0  0  0
   -1.3546   -8.4223    3.8280 C   0  0  0  0  0  0  0  0  0  0  0  0
   -0.2199   -7.7774    4.1410 C   0  0  0  0  0  0  0  0  0  0  0  0
   -0.1176   -7.2511    5.3700 F   0  0  0  0  0  0  0  0  0  0  0  0
    0.9145   -7.6082    3.2437 C   0  0  0  0  0  0  0  0  0  0  0  0
    1.3329   -5.9194    2.9078 S   0  0  0  0  0  0  0  0  0  0  0  0
    2.7475   -6.0326    1.8744 C   0  0  0  0  0  0  0  0  0  0  0  0
    3.4289   -4.9762    1.4376 N   0  0  0  0  0  0  0  0  0  0  0  0
    4.3958   -5.5917    0.6814 C   0  0  0  0  0  0  0  0  0  0  0  0
    4.3284   -6.9195    0.6302 N   0  0  0  0  0  0  0  0  0  0  0  0
    3.2516   -7.1791    1.4239 N   0  0  0  0  0  0  0  0  0  0  0  0
    2.6876   -8.4615    1.7677 C   0  0  0  0  0  0  0  0  0  0  0  0
    3.2164   -9.4000    1.1892 O   0  0  0  0  0  0  0  0  0  0  0  0
    1.5776   -8.6569    2.7124 C   0  0  0  0  0  0  0  0  0  0  0  0
    1.2509  -10.1216    3.0078 C   0  0  0  0  0  0  0  0  0  0  0  0
   -2.6246   -8.6706    2.0935 H   0  0  0  0  0  0  0  0  0  0  0  0
   -1.7444  -10.1244    2.5930 H   0  0  0  0  0  0  0  0  0  0  0  0
   -0.9294   -8.8414    1.7130 H   0  0  0  0  0  0  0  0  0  0  0  0
   -2.1187   -8.5355    4.5875 H   0  0  0  0  0  0  0  0  0  0  0  0
    5.1775   -5.0447    0.1632 H   0  0  0  0  0  0  0  0  0  0  0  0
    2.1528  -10.6543    3.3069 H   0  0  0  0  0  0  0  0  0  0  0  0
    0.8575  -10.5889    2.1033 H   0  0  0  0  0  0  0  0  0  0  0  0
    0.5244  -10.2705    3.8070 H   0  0  0  0  0  0  0  0  0  0  0  0
  1  2  1  0
  1 16  1  0
  1 17  1  0
  1 18  1  0
  2  3  2  3
  2 19  1  0
  3  4  1  0
  3  5  1  0
  5 14  2  0
  5  6  1  0
  6  7  1  0
  7 11  1  0
  7  8  2  0
  8  9  1  0
  9 10  2  0
  9 20  1  0
 10 11  1  0
 11 12  1  0
 12 13  2  0
 12 14  1  0
 14 15  1  0
 15 21  1  0
 15 22  1  0
 15 23  1  0
M  END
>  <i_m_ct_stereo_status>  (124) 
1

>  <s_m_source_file>  (124) 
/var/tmp/pbs.5076255.sched01/tmpyrjfudeo/454urwji6r.sdf

>  <i_m_source_file_index>  (124) 
10

>  <i_lp_mmshare_version>  (124) 
48012

>  <i_f3d_flags>  (124) 
0

>  <s_epik_input>  (124) 
W0NIM10vW0NIXT1DKFxGKWMoczEpYyhbQ0gzXSljKD1PKW4oYzEyKW5bY0hdbjI=

>  <s_epik_cmdline>  (124) 
J2VwaWtfcHl0aG9uJywgJy1waHQnLCAnMi4wJywgJy1waCcsICc3LjAnLCAnLXRuJywgJzgnLCAnLW1hJywgJzIwMCcsICctaW1hZScsICc8aW5maWxlLm1hZT4nLCAnLW9tYWUnLCAnPG91dGZpbGUubWFlPic=

>  <r_lp_tautomer_probability>  (124) 
1

>  <r_epik_Ionization_Penalty>  (124) 
1.04205e-05

>  <r_epik_Ionization_Penalty_Charging>  (124) 
0

>  <r_epik_Ionization_Penalty_Neutral>  (124) 
1.04205e-05

>  <r_epik_State_Penalty>  (124) 
-0

>  <r_epik_Charging_Adjusted_Penalty>  (124) 
0

>  <i_epik_Tot_Q>  (124) 
0

>  <i_epik_Tot_abs_Q>  (124) 
0

>  <s_lp_Force_Field>  (124) 
OPLS3e

>  <r_lp_Energy>  (124) 
19.1879

>  <b_lp_Chiralities_Consistent>  (124) 
1

>  <s_lp_Variant>  (124) 
26:0-2

>  <s_i_glide_gridfile>  (124) 
pfpi4k_grid

>  <i_i_glide_lignum>  (124) 
10

>  <i_i_glide_rotatable_bonds>  (124) 
1

>  <r_i_docking_score>  (124) 
-3.1159

>  <r_i_glide_ligand_efficiency>  (124) 
-0.207726

>  <r_i_glide_ligand_efficiency_sa>  (124) 
-0.512297

>  <r_i_glide_ligand_efficiency_ln>  (124) 
-0.840306

>  <r_i_glide_gscore>  (124) 
-3.1159

>  <r_i_glide_lipo>  (124) 
-0.335377

>  <r_i_glide_hbond>  (124) 
0

>  <r_i_glide_metal>  (124) 
-0

>  <r_i_glide_rewards>  (124) 
-2.06204

>  <r_i_glide_evdw>  (124) 
-19.6688

>  <r_i_glide_ecoul>  (124) 
-0.301233

>  <r_i_glide_erotb>  (124) 
0.334429

>  <r_i_glide_esite>  (124) 
-0.0242803

>  <r_i_glide_emodel>  (124) 
-24.6954

>  <r_i_glide_energy>  (124) 
-19.9701

>  <r_i_glide_einternal>  (124) 
0.00273143

>  <r_i_glide_intrahb_reward>  (124) 
-0

>  <i_i_glide_confnum>  (124) 
5

>  <i_i_glide_posenum>  (124) 
33

>  <r_i_glide_eff_state_penalty>  (124) 
0

>  <ligand_id>  (124) 
26

>  <original_smiles>  (124) 
CC=C(F)c1sc2ncnn2c(=O)c1C

>  <smiles>  (124) 
[H]C(=C(F)c1sc2nc([H])nn2c(=O)c1C([H])([H])[H])C([H])([H])[H]

$$$$
27:0:0
     RDKit          3D

 69 74  0  0  1  0  0  0  0  0999 V2000
    6.7096   -3.1298    0.4230 C   0  0  0  0  0  0  0  0  0  0  0  0
    5.2230   -3.4451    0.1217 C   0  0  2  0  0  0  0  0  0  0  0  0
    5.0639   -3.8480   -1.3720 C   0  0  0  0  0  0  0  0  0  0  0  0
    5.2748   -2.7155   -2.3940 C   0  0  0  0  0  0  0  0  0  0  0  0
    4.3693   -1.5116   -2.0951 C   0  0  1  0  0  0  0  0  0  0  0  0
    3.0171   -1.8724   -2.3203 O   0  0  0  0  0  0  0  0  0  0  0  0
    4.5774   -1.0536   -0.6474 C   0  0  0  0  0  0  0  0  0  0  0  0
    4.4140   -2.1663    0.3734 C   0  0  0  0  0  0  0  0  0  0  0  0
    3.5955   -2.0061    1.4230 C   0  0  0  0  0  0  0  0  0  0  0  0
    3.3665   -3.0249    2.5149 C   0  0  0  0  0  0  0  0  0  0  0  0
    4.3526   -4.2111    2.4729 C   0  0  2  0  0  0  0  0  0  0  0  0
    4.6965   -4.6301    1.0198 C   0  0  2  0  0  0  0  0  0  0  0  0
    5.6329   -5.8646    1.0333 C   0  0  0  0  0  0  0  0  0  0  0  0
    5.0619   -7.0269    1.8601 C   0  0  1  0  0  0  0  0  0  0  0  0
    5.9581   -8.1189    1.7758 O   0  0  0  0  0  0  0  0  0  0  0  0
    4.7641   -6.6510    3.3399 C   0  0  1  0  0  0  0  0  0  0  0  0
    6.0720   -6.4058    4.1369 C   0  0  0  0  0  0  0  0  0  0  0  0
    3.8671   -5.3891    3.3751 C   0  0  2  0  0  0  0  0  0  0  0  0
    2.4461   -5.9109    3.1015 C   0  0  0  0  0  0  0  0  0  0  0  0
    2.3906   -7.2994    3.7426 C   0  0  2  0  0  0  0  0  0  0  0  0
    1.7987   -7.1918    5.0439 O   0  0  0  0  0  0  0  0  0  0  0  0
    2.4699   -8.0679    5.9424 C   0  0  2  0  0  0  0  0  0  0  0  0
    1.8084   -9.4673    5.8322 C   0  0  0  0  0  0  0  0  0  0  0  0
    0.3746   -9.4699    6.3875 C   0  0  0  0  0  0  0  0  0  0  0  0
    0.3291   -8.9568    7.8317 C   0  0  1  0  0  0  0  0  0  0  0  0
    1.0096   -9.8534    8.6861 O   0  0  0  0  0  0  0  0  0  0  0  0
    0.9707   -7.5609    7.9528 C   0  0  0  0  0  0  0  0  0  0  0  0
    2.4044   -7.5372    7.3939 C   0  0  0  0  0  0  0  0  0  0  0  0
    3.8798   -8.1028    5.3833 C   0  0  0  0  0  0  0  0  0  0  0  0
    4.8871   -8.3927    6.0302 O   0  0  0  0  0  0  0  0  0  0  0  0
    3.8480   -7.7790    3.9060 C   0  0  2  0  0  0  0  0  0  0  0  0
    7.3713   -3.9464    0.1322 H   0  0  0  0  0  0  0  0  0  0  0  0
    6.8646   -2.9295    1.4844 H   0  0  0  0  0  0  0  0  0  0  0  0
    7.0619   -2.2506   -0.1154 H   0  0  0  0  0  0  0  0  0  0  0  0
    5.7579   -4.6465   -1.6094 H   0  0  0  0  0  0  0  0  0  0  0  0
    4.0647   -4.2526   -1.5361 H   0  0  0  0  0  0  0  0  0  0  0  0
    6.3200   -2.4050   -2.3762 H   0  0  0  0  0  0  0  0  0  0  0  0
    5.0887   -3.0862   -3.4042 H   0  0  0  0  0  0  0  0  0  0  0  0
    4.6170   -0.6915   -2.7730 H   0  0  0  0  0  0  0  0  0  0  0  0
    2.4364   -1.3464   -1.7763 H   0  0  0  0  0  0  0  0  0  0  0  0
    5.5776   -0.6274   -0.5426 H   0  0  0  0  0  0  0  0  0  0  0  0
    3.8747   -0.2572   -0.4076 H   0  0  0  0  0  0  0  0  0  0  0  0
    3.0300   -1.0895    1.5292 H   0  0  0  0  0  0  0  0  0  0  0  0
    3.4440   -2.5207    3.4794 H   0  0  0  0  0  0  0  0  0  0  0  0
    2.3341   -3.3524    2.4041 H   0  0  0  0  0  0  0  0  0  0  0  0
    5.2831   -3.8485    2.9103 H   0  0  0  0  0  0  0  0  0  0  0  0
    3.7570   -4.9577    0.5748 H   0  0  0  0  0  0  0  0  0  0  0  0
    5.7892   -6.2202    0.0161 H   0  0  0  0  0  0  0  0  0  0  0  0
    6.6153   -5.6069    1.4285 H   0  0  0  0  0  0  0  0  0  0  0  0
    4.1376   -7.3471    1.3755 H   0  0  0  0  0  0  0  0  0  0  0  0
    5.5408   -8.8808    2.1524 H   0  0  0  0  0  0  0  0  0  0  0  0
    5.8669   -6.0503    5.1462 H   0  0  0  0  0  0  0  0  0  0  0  0
    6.7056   -5.6518    3.6736 H   0  0  0  0  0  0  0  0  0  0  0  0
    6.6658   -7.3145    4.2311 H   0  0  0  0  0  0  0  0  0  0  0  0
    3.8518   -5.0232    4.4022 H   0  0  0  0  0  0  0  0  0  0  0  0
    1.6633   -5.2579    3.4900 H   0  0  0  0  0  0  0  0  0  0  0  0
    2.2815   -6.0146    2.0302 H   0  0  0  0  0  0  0  0  0  0  0  0
    1.8102   -8.0020    3.1421 H   0  0  0  0  0  0  0  0  0  0  0  0
    1.7906   -9.8202    4.7989 H   0  0  0  0  0  0  0  0  0  0  0  0
    2.4022  -10.2057    6.3774 H   0  0  0  0  0  0  0  0  0  0  0  0
   -0.2588   -8.8474    5.7574 H   0  0  0  0  0  0  0  0  0  0  0  0
   -0.0446  -10.4757    6.3282 H   0  0  0  0  0  0  0  0  0  0  0  0
   -0.7101   -8.9124    8.1576 H   0  0  0  0  0  0  0  0  0  0  0  0
    1.0193  -10.7394    8.2936 H   0  0  0  0  0  0  0  0  0  0  0  0
    0.3692   -6.8396    7.4029 H   0  0  0  0  0  0  0  0  0  0  0  0
    0.9720   -7.2326    8.9922 H   0  0  0  0  0  0  0  0  0  0  0  0
    3.0301   -8.1597    8.0358 H   0  0  0  0  0  0  0  0  0  0  0  0
    2.8198   -6.5313    7.4560 H   0  0  0  0  0  0  0  0  0  0  0  0
    4.0106   -8.7248    3.3902 H   0  0  0  0  0  0  0  0  0  0  0  0
  2  1  1  1
  1 32  1  0
  1 33  1  0
  1 34  1  0
  2  8  1  0
  2 12  1  0
  2  3  1  0
  3  4  1  0
  3 35  1  0
  3 36  1  0
  4  5  1  0
  4 37  1  0
  4 38  1  0
  5  6  1  0
  5  7  1  0
  5 39  1  6
  6 40  1  0
  7  8  1  0
  7 41  1  0
  7 42  1  0
  8  9  2  0
  9 10  1  0
  9 43  1  0
 10 11  1  0
 10 44  1  0
 10 45  1  0
 11 18  1  0
 11 12  1  0
 11 46  1  1
 12 13  1  0
 12 47  1  6
 13 14  1  0
 13 48  1  0
 13 49  1  0
 14 15  1  0
 14 16  1  0
 14 50  1  6
 15 51  1  0
 16 31  1  0
 16 17  1  1
 16 18  1  0
 17 52  1  0
 17 53  1  0
 17 54  1  0
 18 19  1  0
 18 55  1  1
 19 20  1  0
 19 56  1  0
 19 57  1  0
 20 31  1  0
 20 21  1  0
 20 58  1  6
 22 21  1  6
 22 28  1  0
 22 23  1  0
 22 29  1  0
 23 24  1  0
 23 59  1  0
 23 60  1  0
 24 25  1  0
 24 61  1  0
 24 62  1  0
 25 26  1  0
 25 27  1  0
 25 63  1  1
 26 64  1  0
 27 28  1  0
 27 65  1  0
 27 66  1  0
 28 67  1  0
 28 68  1  0
 29 30  2  0
 29 31  1  0
 31 69  1  6
M  END
>  <i_m_ct_stereo_status>  (125) 
1

>  <s_m_source_file>  (125) 
/var/tmp/pbs.5076255.sched01/tmpyrjfudeo/454urwji6r.sdf

>  <i_m_source_file_index>  (125) 
11

>  <i_lp_mmshare_version>  (125) 
48012

>  <i_f3d_flags>  (125) 
0

>  <s_epik_input>  (125) 
W0NIMl0xW0NIMl1bQ0BASF0oW09IXSlbQ0gyXUMoPVtDSF1bQ0gyXTIpW0NAQF0xKFtDSDNdKVtDQEBIXShbQ0gyXVtDQEhdM1tPSF0pW0NAQEhdMltDQEBIXShbQ0gyXTQpW0NAQF0zKFtDSDNdKVtDQEBIXShDNT1PKVtDQEhdNE9bQ0BAXTU2W0NIMl1bQ0gyXVtDQEBIXShbT0hdKVtDSDJdW0NIMl02

>  <s_epik_cmdline>  (125) 
J2VwaWtfcHl0aG9uJywgJy1waHQnLCAnMi4wJywgJy1waCcsICc3LjAnLCAnLXRuJywgJzgnLCAnLW1hJywgJzIwMCcsICctaW1hZScsICc8aW5maWxlLm1hZT4nLCAnLW9tYWUnLCAnPG91dGZpbGUubWFlPic=

>  <r_lp_tautomer_probability>  (125) 
1

>  <r_epik_Ionization_Penalty>  (125) 
2.00951e-06

>  <r_epik_Ionization_Penalty_Charging>  (125) 
0

>  <r_epik_Ionization_Penalty_Neutral>  (125) 
2.00951e-06

>  <r_epik_State_Penalty>  (125) 
-0

>  <r_epik_Charging_Adjusted_Penalty>  (125) 
0

>  <i_epik_Tot_Q>  (125) 
0

>  <i_epik_Tot_abs_Q>  (125) 
0

>  <s_lp_Force_Field>  (125) 
OPLS3e

>  <r_lp_Energy>  (125) 
29.1878

>  <b_lp_Chiralities_Consistent>  (125) 
1

>  <s_lp_Variant>  (125) 
27:0-1

>  <s_i_glide_gridfile>  (125) 
pfpi4k_grid

>  <i_i_glide_lignum>  (125) 
11

>  <i_i_glide_rotatable_bonds>  (125) 
3

>  <r_i_docking_score>  (125) 
-3.67075

>  <r_i_glide_ligand_efficiency>  (125) 
-0.118411

>  <r_i_glide_ligand_efficiency_sa>  (125) 
-0.371975

>  <r_i_glide_ligand_efficiency_ln>  (125) 
-0.827867

>  <r_i_glide_gscore>  (125) 
-3.67075

>  <r_i_glide_lipo>  (125) 
-0.458072

>  <r_i_glide_hbond>  (125) 
-0.304

>  <r_i_glide_metal>  (125) 
-0

>  <r_i_glide_rewards>  (125) 
-0.473339

>  <r_i_glide_evdw>  (125) 
-28.4473

>  <r_i_glide_ecoul>  (125) 
-6.75298

>  <r_i_glide_erotb>  (125) 
0

>  <r_i_glide_esite>  (125) 
-2.99374e-05

>  <r_i_glide_emodel>  (125) 
-42.5472

>  <r_i_glide_energy>  (125) 
-35.2003

>  <r_i_glide_einternal>  (125) 
2.4431

>  <r_i_glide_intrahb_reward>  (125) 
-0

>  <i_i_glide_confnum>  (125) 
2

>  <i_i_glide_posenum>  (125) 
39

>  <r_i_glide_eff_state_penalty>  (125) 
0

>  <ligand_id>  (125) 
27

>  <original_smiles>  (125) 
CC12CCC(O)CC1=CCC1C2CC(O)C2(C)C1CC1OC3(CCC(O)CC3)C(=O)C12

>  <smiles>  (125) 
[H]OC1([H])C([H])([H])C2=C([H])C([H])([H])C3([H])C([H])(C([H])([H])C([H])(O[H])C4(C([H])([H])[H])C5([H])C(=O)C6(OC5([H])C([H])([H])C34[H])C([H])([H])C([H])([H])C([H])(O[H])C([H])([H])C6([H])[H])C2(C([H])([H])[H])C([H])([H])C1([H])[H]

$$$$
27:0:1
     RDKit          3D

 69 74  0  0  1  0  0  0  0  0999 V2000
    6.5526   -2.3669    0.8817 C   0  0  0  0  0  0  0  0  0  0  0  0
    5.3293   -3.1209    0.2995 C   0  0  2  0  0  0  0  0  0  0  0  0
    5.6725   -3.6631   -1.1169 C   0  0  0  0  0  0  0  0  0  0  0  0
    5.8345   -2.5992   -2.2147 C   0  0  0  0  0  0  0  0  0  0  0  0
    4.6222   -1.6730   -2.3024 C   0  0  1  0  0  0  0  0  0  0  0  0
    3.5100   -2.3856   -2.8102 O   0  0  0  0  0  0  0  0  0  0  0  0
    4.3202   -1.0785   -0.9217 C   0  0  0  0  0  0  0  0  0  0  0  0
    4.1837   -2.1135    0.1790 C   0  0  0  0  0  0  0  0  0  0  0  0
    3.1075   -2.1146    0.9893 C   0  0  0  0  0  0  0  0  0  0  0  0
    2.8752   -3.0767    2.1246 C   0  0  0  0  0  0  0  0  0  0  0  0
    4.1074   -3.9325    2.4727 C   0  0  2  0  0  0  0  0  0  0  0  0
    4.9118   -4.3384    1.2089 C   0  0  2  0  0  0  0  0  0  0  0  0
    6.1001   -5.2495    1.6022 C   0  0  0  0  0  0  0  0  0  0  0  0
    5.6519   -6.4658    2.4281 C   0  0  1  0  0  0  0  0  0  0  0  0
    6.7922   -7.2551    2.7115 O   0  0  0  0  0  0  0  0  0  0  0  0
    4.8917   -6.0919    3.7342 C   0  0  1  0  0  0  0  0  0  0  0  0
    5.8326   -5.4419    4.7786 C   0  0  0  0  0  0  0  0  0  0  0  0
    3.7241   -5.1373    3.3912 C   0  0  2  0  0  0  0  0  0  0  0  0
    2.6057   -6.0598    2.8690 C   0  0  0  0  0  0  0  0  0  0  0  0
    2.7462   -7.3570    3.6661 C   0  0  2  0  0  0  0  0  0  0  0  0
    1.8360   -7.3304    4.7694 O   0  0  0  0  0  0  0  0  0  0  0  0
    2.4550   -7.9221    5.9099 C   0  0  2  0  0  0  0  0  0  0  0  0
    2.2304   -9.4551    5.8406 C   0  0  0  0  0  0  0  0  0  0  0  0
    0.7547   -9.8239    6.0479 C   0  0  0  0  0  0  0  0  0  0  0  0
    0.2059   -9.2399    7.3564 C   0  0  1  0  0  0  0  0  0  0  0  0
    0.8510   -9.8536    8.4492 O   0  0  0  0  0  0  0  0  0  0  0  0
    0.4227   -7.7194    7.4363 C   0  0  0  0  0  0  0  0  0  0  0  0
    1.8915   -7.3295    7.2201 C   0  0  0  0  0  0  0  0  0  0  0  0
    3.9209   -7.5963    5.7015 C   0  0  0  0  0  0  0  0  0  0  0  0
    4.7678   -7.5407    6.5930 O   0  0  0  0  0  0  0  0  0  0  0  0
    4.1835   -7.3951    4.2238 C   0  0  2  0  0  0  0  0  0  0  0  0
    7.4561   -2.9774    0.8675 H   0  0  0  0  0  0  0  0  0  0  0  0
    6.3683   -2.0581    1.9121 H   0  0  0  0  0  0  0  0  0  0  0  0
    6.7895   -1.4623    0.3252 H   0  0  0  0  0  0  0  0  0  0  0  0
    6.5932   -4.2340   -1.0645 H   0  0  0  0  0  0  0  0  0  0  0  0
    4.8968   -4.3593   -1.4484 H   0  0  0  0  0  0  0  0  0  0  0  0
    6.7179   -1.9972   -1.9947 H   0  0  0  0  0  0  0  0  0  0  0  0
    6.0221   -3.0705   -3.1790 H   0  0  0  0  0  0  0  0  0  0  0  0
    4.8210   -0.8651   -3.0065 H   0  0  0  0  0  0  0  0  0  0  0  0
    3.2145   -2.9837   -2.1443 H   0  0  0  0  0  0  0  0  0  0  0  0
    5.0999   -0.3634   -0.6500 H   0  0  0  0  0  0  0  0  0  0  0  0
    3.3857   -0.5523   -0.9685 H   0  0  0  0  0  0  0  0  0  0  0  0
    2.3229   -1.3860    0.8426 H   0  0  0  0  0  0  0  0  0  0  0  0
    2.5630   -2.5073    3.0004 H   0  0  0  0  0  0  0  0  0  0  0  0
    2.0270   -3.6914    1.8238 H   0  0  0  0  0  0  0  0  0  0  0  0
    4.7692   -3.2905    3.0577 H   0  0  0  0  0  0  0  0  0  0  0  0
    4.2338   -4.9465    0.6098 H   0  0  0  0  0  0  0  0  0  0  0  0
    6.6025   -5.6153    0.7070 H   0  0  0  0  0  0  0  0  0  0  0  0
    6.8434   -4.6942    2.1703 H   0  0  0  0  0  0  0  0  0  0  0  0
    5.0037   -7.0692    1.7935 H   0  0  0  0  0  0  0  0  0  0  0  0
    6.5069   -8.0638    3.0993 H   0  0  0  0  0  0  0  0  0  0  0  0
    5.2904   -5.0877    5.6541 H   0  0  0  0  0  0  0  0  0  0  0  0
    6.3338   -4.5735    4.3687 H   0  0  0  0  0  0  0  0  0  0  0  0
    6.6027   -6.1300    5.1247 H   0  0  0  0  0  0  0  0  0  0  0  0
    3.3499   -4.7187    4.3275 H   0  0  0  0  0  0  0  0  0  0  0  0
    1.6119   -5.6291    2.9763 H   0  0  0  0  0  0  0  0  0  0  0  0
    2.7571   -6.2757    1.8127 H   0  0  0  0  0  0  0  0  0  0  0  0
    2.5450   -8.2363    3.0488 H   0  0  0  0  0  0  0  0  0  0  0  0
    2.5720   -9.8665    4.8929 H   0  0  0  0  0  0  0  0  0  0  0  0
    2.8318   -9.9536    6.6078 H   0  0  0  0  0  0  0  0  0  0  0  0
    0.1611   -9.4458    5.2127 H   0  0  0  0  0  0  0  0  0  0  0  0
    0.6246  -10.9057    6.0257 H   0  0  0  0  0  0  0  0  0  0  0  0
   -0.8582   -9.4649    7.4244 H   0  0  0  0  0  0  0  0  0  0  0  0
    1.0125  -10.7814    8.2135 H   0  0  0  0  0  0  0  0  0  0  0  0
   -0.1794   -7.2383    6.6635 H   0  0  0  0  0  0  0  0  0  0  0  0
    0.0626   -7.3336    8.3923 H   0  0  0  0  0  0  0  0  0  0  0  0
    2.4675   -7.7034    8.0702 H   0  0  0  0  0  0  0  0  0  0  0  0
    1.9978   -6.2458    7.2371 H   0  0  0  0  0  0  0  0  0  0  0  0
    4.7155   -8.2841    3.8913 H   0  0  0  0  0  0  0  0  0  0  0  0
  2  1  1  1
  1 32  1  0
  1 33  1  0
  1 34  1  0
  2  8  1  0
  2 12  1  0
  2  3  1  0
  3  4  1  0
  3 35  1  0
  3 36  1  0
  4  5  1  0
  4 37  1  0
  4 38  1  0
  5  6  1  0
  5  7  1  0
  5 39  1  6
  6 40  1  0
  7  8  1  0
  7 41  1  0
  7 42  1  0
  8  9  2  0
  9 10  1  0
  9 43  1  0
 10 11  1  0
 10 44  1  0
 10 45  1  0
 11 18  1  0
 11 12  1  0
 11 46  1  1
 12 13  1  0
 12 47  1  6
 13 14  1  0
 13 48  1  0
 13 49  1  0
 14 15  1  0
 14 16  1  0
 14 50  1  6
 15 51  1  0
 16 31  1  0
 16 17  1  1
 16 18  1  0
 17 52  1  0
 17 53  1  0
 17 54  1  0
 18 19  1  0
 18 55  1  1
 19 20  1  0
 19 56  1  0
 19 57  1  0
 20 31  1  0
 20 21  1  0
 20 58  1  6
 22 21  1  6
 22 28  1  0
 22 23  1  0
 22 29  1  0
 23 24  1  0
 23 59  1  0
 23 60  1  0
 24 25  1  0
 24 61  1  0
 24 62  1  0
 25 26  1  0
 25 27  1  0
 25 63  1  1
 26 64  1  0
 27 28  1  0
 27 65  1  0
 27 66  1  0
 28 67  1  0
 28 68  1  0
 29 30  2  0
 29 31  1  0
 31 69  1  6
M  END
>  <i_m_ct_stereo_status>  (126) 
1

>  <s_m_source_file>  (126) 
/var/tmp/pbs.5076255.sched01/tmpyrjfudeo/454urwji6r.sdf

>  <i_m_source_file_index>  (126) 
11

>  <i_lp_mmshare_version>  (126) 
48012

>  <i_f3d_flags>  (126) 
0

>  <s_epik_input>  (126) 
W0NIMl0xW0NIMl1bQ0BASF0oW09IXSlbQ0gyXUMoPVtDSF1bQ0gyXTIpW0NAQF0xKFtDSDNdKVtDQEBIXShbQ0gyXVtDQEhdM1tPSF0pW0NAQEhdMltDQEBIXShbQ0gyXTQpW0NAQF0zKFtDSDNdKVtDQEBIXShDNT1PKVtDQEhdNE9bQ0BAXTU2W0NIMl1bQ0gyXVtDQEBIXShbT0hdKVtDSDJdW0NIMl02

>  <s_epik_cmdline>  (126) 
J2VwaWtfcHl0aG9uJywgJy1waHQnLCAnMi4wJywgJy1waCcsICc3LjAnLCAnLXRuJywgJzgnLCAnLW1hJywgJzIwMCcsICctaW1hZScsICc8aW5maWxlLm1hZT4nLCAnLW9tYWUnLCAnPG91dGZpbGUubWFlPic=

>  <r_lp_tautomer_probability>  (126) 
1

>  <r_epik_Ionization_Penalty>  (126) 
2.00951e-06

>  <r_epik_Ionization_Penalty_Charging>  (126) 
0

>  <r_epik_Ionization_Penalty_Neutral>  (126) 
2.00951e-06

>  <r_epik_State_Penalty>  (126) 
-0

>  <r_epik_Charging_Adjusted_Penalty>  (126) 
0

>  <i_epik_Tot_Q>  (126) 
0

>  <i_epik_Tot_abs_Q>  (126) 
0

>  <s_lp_Force_Field>  (126) 
OPLS3e

>  <r_lp_Energy>  (126) 
29.1878

>  <b_lp_Chiralities_Consistent>  (126) 
1

>  <s_lp_Variant>  (126) 
27:0-1

>  <s_i_glide_gridfile>  (126) 
pfpi4k_grid

>  <i_i_glide_lignum>  (126) 
11

>  <i_i_glide_rotatable_bonds>  (126) 
3

>  <r_i_docking_score>  (126) 
-3.16638

>  <r_i_glide_ligand_efficiency>  (126) 
-0.102141

>  <r_i_glide_ligand_efficiency_sa>  (126) 
-0.320865

>  <r_i_glide_ligand_efficiency_ln>  (126) 
-0.714116

>  <r_i_glide_gscore>  (126) 
-3.16638

>  <r_i_glide_lipo>  (126) 
-0.314541

>  <r_i_glide_hbond>  (126) 
-0.16

>  <r_i_glide_metal>  (126) 
-0

>  <r_i_glide_rewards>  (126) 
-0.473339

>  <r_i_glide_evdw>  (126) 
-24.8044

>  <r_i_glide_ecoul>  (126) 
-6.52144

>  <r_i_glide_erotb>  (126) 
0

>  <r_i_glide_esite>  (126) 
-6.37918e-05

>  <r_i_glide_emodel>  (126) 
-38.1677

>  <r_i_glide_energy>  (126) 
-31.3259

>  <r_i_glide_einternal>  (126) 
1.15555

>  <r_i_glide_intrahb_reward>  (126) 
-0

>  <i_i_glide_confnum>  (126) 
4

>  <i_i_glide_posenum>  (126) 
1

>  <r_i_glide_eff_state_penalty>  (126) 
0

>  <ligand_id>  (126) 
27

>  <original_smiles>  (126) 
CC12CCC(O)CC1=CCC1C2CC(O)C2(C)C1CC1OC3(CCC(O)CC3)C(=O)C12

>  <smiles>  (126) 
[H]OC1([H])C([H])([H])C2=C([H])C([H])([H])C3([H])C([H])(C([H])([H])C([H])(O[H])C4(C([H])([H])[H])C5([H])C(=O)C6(OC5([H])C([H])([H])C34[H])C([H])([H])C([H])([H])C([H])(O[H])C([H])([H])C6([H])[H])C2(C([H])([H])[H])C([H])([H])C1([H])[H]

$$$$
27:0:2
     RDKit          3D

 69 74  0  0  1  0  0  0  0  0999 V2000
    6.3325   -2.7524   -0.4344 C   0  0  0  0  0  0  0  0  0  0  0  0
    5.0598   -3.4742   -0.9093 C   0  0  2  0  0  0  0  0  0  0  0  0
    5.2572   -4.0036   -2.3142 C   0  0  0  0  0  0  0  0  0  0  0  0
    5.3304   -3.0644   -3.4453 C   0  0  0  0  0  0  0  0  0  0  0  0
    4.1899   -2.0864   -3.5366 C   0  0  1  0  0  0  0  0  0  0  0  0
    3.0565   -2.8116   -3.9504 O   0  0  0  0  0  0  0  0  0  0  0  0
    4.0000   -1.4403   -2.1636 C   0  0  0  0  0  0  0  0  0  0  0  0
    3.9784   -2.4594   -0.9993 C   0  0  0  0  0  0  0  0  0  0  0  0
    3.0103   -2.4435   -0.0981 C   0  0  0  0  0  0  0  0  0  0  0  0
    2.7692   -3.3639    1.0431 C   0  0  0  0  0  0  0  0  0  0  0  0
    3.9480   -4.2268    1.3393 C   0  0  2  0  0  0  0  0  0  0  0  0
    4.6546   -4.6776    0.0482 C   0  0  2  0  0  0  0  0  0  0  0  0
    5.8127   -5.5877    0.4502 C   0  0  0  0  0  0  0  0  0  0  0  0
    5.3902   -6.7829    1.3004 C   0  0  1  0  0  0  0  0  0  0  0  0
    6.5226   -7.5910    1.5465 O   0  0  0  0  0  0  0  0  0  0  0  0
    4.7213   -6.3535    2.6241 C   0  0  1  0  0  0  0  0  0  0  0  0
    5.7371   -5.6754    3.5788 C   0  0  0  0  0  0  0  0  0  0  0  0
    3.5628   -5.3865    2.3025 C   0  0  2  0  0  0  0  0  0  0  0  0
    2.3945   -6.2859    1.8673 C   0  0  0  0  0  0  0  0  0  0  0  0
    2.5522   -7.5578    2.6964 C   0  0  2  0  0  0  0  0  0  0  0  0
    1.6987   -7.4766    3.8417 O   0  0  0  0  0  0  0  0  0  0  0  0
    2.3540   -8.0404    4.9670 C   0  0  2  0  0  0  0  0  0  0  0  0
    2.0953   -9.5708    4.9604 C   0  0  0  0  0  0  0  0  0  0  0  0
    0.6224   -9.9032    5.2546 C   0  0  0  0  0  0  0  0  0  0  0  0
    0.1462   -9.2631    6.5684 C   0  0  1  0  0  0  0  0  0  0  0  0
    0.8392   -9.8130    7.6663 O   0  0  0  0  0  0  0  0  0  0  0  0
    0.4028   -7.7424    6.5811 C   0  0  0  0  0  0  0  0  0  0  0  0
    1.8730   -7.3984    6.2864 C   0  0  0  0  0  0  0  0  0  0  0  0
    3.8059   -7.7379    4.6749 C   0  0  0  0  0  0  0  0  0  0  0  0
    4.6941   -7.6958    5.5198 O   0  0  0  0  0  0  0  0  0  0  0  0
    4.0102   -7.6129    3.1834 C   0  0  2  0  0  0  0  0  0  0  0  0
    7.2135   -3.3899   -0.4839 H   0  0  0  0  0  0  0  0  0  0  0  0
    6.1990   -2.4089    0.5884 H   0  0  0  0  0  0  0  0  0  0  0  0
    6.5443   -1.8738   -1.0399 H   0  0  0  0  0  0  0  0  0  0  0  0
    6.1937   -4.5182   -2.3689 H   0  0  0  0  0  0  0  0  0  0  0  0
    4.5537   -4.7261   -2.6234 H   0  0  0  0  0  0  0  0  0  0  0  0
    6.2781   -2.6051   -3.2583 H   0  0  0  0  0  0  0  0  0  0  0  0
    5.4058   -3.6959   -4.3227 H   0  0  0  0  0  0  0  0  0  0  0  0
    4.4121   -1.3279   -4.2971 H   0  0  0  0  0  0  0  0  0  0  0  0
    2.8608   -3.4685   -3.2959 H   0  0  0  0  0  0  0  0  0  0  0  0
    4.8260   -0.7589   -1.9810 H   0  0  0  0  0  0  0  0  0  0  0  0
    3.1056   -0.8340   -2.1948 H   0  0  0  0  0  0  0  0  0  0  0  0
    2.2180   -1.7472   -0.1460 H   0  0  0  0  0  0  0  0  0  0  0  0
    2.4667   -2.7436    1.8822 H   0  0  0  0  0  0  0  0  0  0  0  0
    1.9157   -3.9605    0.7631 H   0  0  0  0  0  0  0  0  0  0  0  0
    4.6444   -3.5752    1.8627 H   0  0  0  0  0  0  0  0  0  0  0  0
    3.9304   -5.2789   -0.5039 H   0  0  0  0  0  0  0  0  0  0  0  0
    6.1917   -5.9784   -0.4614 H   0  0  0  0  0  0  0  0  0  0  0  0
    6.6196   -5.0357    0.9210 H   0  0  0  0  0  0  0  0  0  0  0  0
    4.7041   -7.3904    0.7054 H   0  0  0  0  0  0  0  0  0  0  0  0
    6.2492   -8.3689    2.0110 H   0  0  0  0  0  0  0  0  0  0  0  0
    5.2460   -5.2799    4.4681 H   0  0  0  0  0  0  0  0  0  0  0  0
    6.2428   -4.8333    3.1081 H   0  0  0  0  0  0  0  0  0  0  0  0
    6.5024   -6.3782    3.9086 H   0  0  0  0  0  0  0  0  0  0  0  0
    3.2384   -4.9234    3.2315 H   0  0  0  0  0  0  0  0  0  0  0  0
    1.4153   -5.8227    2.0080 H   0  0  0  0  0  0  0  0  0  0  0  0
    2.4786   -6.5376    0.8128 H   0  0  0  0  0  0  0  0  0  0  0  0
    2.2939   -8.4474    2.1283 H   0  0  0  0  0  0  0  0  0  0  0  0
    2.3731  -10.0200    4.0060 H   0  0  0  0  0  0  0  0  0  0  0  0
    2.7203  -10.0629    5.7071 H   0  0  0  0  0  0  0  0  0  0  0  0
   -0.0060   -9.5404    4.4388 H   0  0  0  0  0  0  0  0  0  0  0  0
    0.4714  -10.9834    5.2870 H   0  0  0  0  0  0  0  0  0  0  0  0
   -0.9207   -9.4616    6.7056 H   0  0  0  0  0  0  0  0  0  0  0  0
    0.9856  -10.7746    7.5481 H   0  0  0  0  0  0  0  0  0  0  0  0
   -0.2255   -7.2676    5.8272 H   0  0  0  0  0  0  0  0  0  0  0  0
    0.1110   -7.3185    7.5449 H   0  0  0  0  0  0  0  0  0  0  0  0
    2.4834   -7.7669    7.1146 H   0  0  0  0  0  0  0  0  0  0  0  0
    2.0114   -6.3174    6.2572 H   0  0  0  0  0  0  0  0  0  0  0  0
    4.4960   -8.5333    2.8556 H   0  0  0  0  0  0  0  0  0  0  0  0
  2  1  1  1
  1 32  1  0
  1 33  1  0
  1 34  1  0
  2  8  1  0
  2 12  1  0
  2  3  1  0
  3  4  1  0
  3 35  1  0
  3 36  1  0
  4  5  1  0
  4 37  1  0
  4 38  1  0
  5  6  1  0
  5  7  1  0
  5 39  1  6
  6 40  1  0
  7  8  1  0
  7 41  1  0
  7 42  1  0
  8  9  2  0
  9 10  1  0
  9 43  1  0
 10 11  1  0
 10 44  1  0
 10 45  1  0
 11 18  1  0
 11 12  1  0
 11 46  1  1
 12 13  1  0
 12 47  1  6
 13 14  1  0
 13 48  1  0
 13 49  1  0
 14 15  1  0
 14 16  1  0
 14 50  1  6
 15 51  1  0
 16 31  1  0
 16 17  1  1
 16 18  1  0
 17 52  1  0
 17 53  1  0
 17 54  1  0
 18 19  1  0
 18 55  1  1
 19 20  1  0
 19 56  1  0
 19 57  1  0
 20 31  1  0
 20 21  1  0
 20 58  1  6
 22 21  1  6
 22 28  1  0
 22 23  1  0
 22 29  1  0
 23 24  1  0
 23 59  1  0
 23 60  1  0
 24 25  1  0
 24 61  1  0
 24 62  1  0
 25 26  1  0
 25 27  1  0
 25 63  1  1
 26 64  1  0
 27 28  1  0
 27 65  1  0
 27 66  1  0
 28 67  1  0
 28 68  1  0
 29 30  2  0
 29 31  1  0
 31 69  1  6
M  END
>  <i_m_ct_stereo_status>  (127) 
1

>  <s_m_source_file>  (127) 
/var/tmp/pbs.5076255.sched01/tmpyrjfudeo/454urwji6r.sdf

>  <i_m_source_file_index>  (127) 
11

>  <i_lp_mmshare_version>  (127) 
48012

>  <i_f3d_flags>  (127) 
0

>  <s_epik_input>  (127) 
W0NIMl0xW0NIMl1bQ0BASF0oW09IXSlbQ0gyXUMoPVtDSF1bQ0gyXTIpW0NAQF0xKFtDSDNdKVtDQEBIXShbQ0gyXVtDQEhdM1tPSF0pW0NAQEhdMltDQEBIXShbQ0gyXTQpW0NAQF0zKFtDSDNdKVtDQEBIXShDNT1PKVtDQEhdNE9bQ0BAXTU2W0NIMl1bQ0gyXVtDQEBIXShbT0hdKVtDSDJdW0NIMl02

>  <s_epik_cmdline>  (127) 
J2VwaWtfcHl0aG9uJywgJy1waHQnLCAnMi4wJywgJy1waCcsICc3LjAnLCAnLXRuJywgJzgnLCAnLW1hJywgJzIwMCcsICctaW1hZScsICc8aW5maWxlLm1hZT4nLCAnLW9tYWUnLCAnPG91dGZpbGUubWFlPic=

>  <r_lp_tautomer_probability>  (127) 
1

>  <r_epik_Ionization_Penalty>  (127) 
2.00951e-06

>  <r_epik_Ionization_Penalty_Charging>  (127) 
0

>  <r_epik_Ionization_Penalty_Neutral>  (127) 
2.00951e-06

>  <r_epik_State_Penalty>  (127) 
-0

>  <r_epik_Charging_Adjusted_Penalty>  (127) 
0

>  <i_epik_Tot_Q>  (127) 
0

>  <i_epik_Tot_abs_Q>  (127) 
0

>  <s_lp_Force_Field>  (127) 
OPLS3e

>  <r_lp_Energy>  (127) 
29.1878

>  <b_lp_Chiralities_Consistent>  (127) 
1

>  <s_lp_Variant>  (127) 
27:0-1

>  <s_i_glide_gridfile>  (127) 
pfpi4k_grid

>  <i_i_glide_lignum>  (127) 
11

>  <i_i_glide_rotatable_bonds>  (127) 
3

>  <r_i_docking_score>  (127) 
-3.13409

>  <r_i_glide_ligand_efficiency>  (127) 
-0.1011

>  <r_i_glide_ligand_efficiency_sa>  (127) 
-0.317593

>  <r_i_glide_ligand_efficiency_ln>  (127) 
-0.706834

>  <r_i_glide_gscore>  (127) 
-3.13409

>  <r_i_glide_lipo>  (127) 
-0.619912

>  <r_i_glide_hbond>  (127) 
-0.16

>  <r_i_glide_metal>  (127) 
-0

>  <r_i_glide_rewards>  (127) 
-0.473339

>  <r_i_glide_evdw>  (127) 
-12.5511

>  <r_i_glide_ecoul>  (127) 
-8.3552

>  <r_i_glide_erotb>  (127) 
0

>  <r_i_glide_esite>  (127) 
-5.46462e-06

>  <r_i_glide_emodel>  (127) 
-26.5234

>  <r_i_glide_energy>  (127) 
-20.9063

>  <r_i_glide_einternal>  (127) 
1.0217

>  <r_i_glide_intrahb_reward>  (127) 
-0

>  <i_i_glide_confnum>  (127) 
2

>  <i_i_glide_posenum>  (127) 
6

>  <r_i_glide_eff_state_penalty>  (127) 
0

>  <ligand_id>  (127) 
27

>  <original_smiles>  (127) 
CC12CCC(O)CC1=CCC1C2CC(O)C2(C)C1CC1OC3(CCC(O)CC3)C(=O)C12

>  <smiles>  (127) 
[H]OC1([H])C([H])([H])C2=C([H])C([H])([H])C3([H])C([H])(C([H])([H])C([H])(O[H])C4(C([H])([H])[H])C5([H])C(=O)C6(OC5([H])C([H])([H])C34[H])C([H])([H])C([H])([H])C([H])(O[H])C([H])([H])C6([H])[H])C2(C([H])([H])[H])C([H])([H])C1([H])[H]

$$$$
28:0:0
     RDKit          3D

 59 65  0  0  1  0  0  0  0  0999 V2000
    1.4272   -2.5565    4.3341 C   0  0  0  0  0  0  0  0  0  0  0  0
    0.9351   -1.1125    4.3959 C   0  0  0  0  0  0  0  0  0  0  0  0
    0.6674   -0.4078    5.4826 C   0  0  0  0  0  0  0  0  0  0  0  0
    0.0841    0.7324    5.0186 O   0  0  0  0  0  0  0  0  0  0  0  0
    0.2875    0.9914    3.6586 C   0  0  1  0  0  0  0  0  0  0  0  0
    0.2368    2.5818    3.4363 C   0  0  2  0  0  0  0  0  0  0  0  0
    1.4098    3.4946    3.8699 C   0  0  1  0  0  0  0  0  0  0  0  0
    1.5098    4.6425    3.0502 O   0  0  0  0  0  0  0  0  0  0  0  0
    1.2850    3.8550    5.4087 C   0  0  2  0  0  0  0  0  0  0  0  0
    1.9310    4.9367    5.9458 O   0  0  0  0  0  0  0  0  0  0  0  0
    2.4558    3.8037    6.6277 C   0  0  1  0  0  0  0  0  0  0  0  0
    1.8800    2.9451    7.7972 C   0  0  0  0  0  0  0  0  0  0  0  0
    1.6011    1.6886    6.8041 C   0  0  1  0  0  0  0  0  0  0  0  0
    0.0234    1.8816    7.2502 C   0  0  1  0  0  0  0  0  0  0  0  0
   -0.3004    1.5527    8.7418 C   0  0  0  0  0  0  0  0  0  0  0  0
   -0.6904    3.2149    6.8488 C   0  0  0  0  0  0  0  0  0  0  0  0
   -0.2544    3.8674    5.5270 C   0  0  2  0  0  0  0  0  0  0  0  0
   -0.9293    3.2999    4.2045 C   0  0  0  0  0  0  0  0  0  0  0  0
   -1.4825    4.4543    3.3145 C   0  0  0  0  0  0  0  0  0  0  0  0
   -2.2082    2.4417    4.4005 C   0  0  0  0  0  0  0  0  0  0  0  0
    2.8681    2.5342    6.1664 C   0  0  1  0  0  0  0  0  0  0  0  0
    3.7272    2.5556    5.0538 O   0  0  0  0  0  0  0  0  0  0  0  0
    1.8341    0.1102    6.4193 C   0  0  1  0  0  0  0  0  0  0  0  0
    1.9539   -0.7992    7.6556 C   0  0  0  0  0  0  0  0  0  0  0  0
    3.0923   -0.1505    5.4756 C   0  0  0  0  0  0  0  0  0  0  0  0
    2.8301    0.1356    3.9389 C   0  0  0  0  0  0  0  0  0  0  0  0
    3.7571    0.4571    3.1844 O   0  0  0  0  0  0  0  0  0  0  0  0
    1.3930   -0.0919    3.3779 C   0  0  1  0  0  0  0  0  0  0  0  0
    1.3719   -0.6119    2.0792 O   0  0  0  0  0  0  0  0  0  0  0  0
    0.6375   -3.1737    3.9077 H   0  0  0  0  0  0  0  0  0  0  0  0
    1.6138   -2.9322    5.3343 H   0  0  0  0  0  0  0  0  0  0  0  0
    2.3274   -2.6923    3.7334 H   0  0  0  0  0  0  0  0  0  0  0  0
   -0.5925    0.6083    3.1539 H   0  0  0  0  0  0  0  0  0  0  0  0
    0.0973    2.6641    2.3568 H   0  0  0  0  0  0  0  0  0  0  0  0
    2.2346    2.9056    3.5245 H   0  0  0  0  0  0  0  0  0  0  0  0
    1.0698    4.4867    2.2104 H   0  0  0  0  0  0  0  0  0  0  0  0
    2.6576    2.7453    8.5656 H   0  0  0  0  0  0  0  0  0  0  0  0
    1.1650    3.4820    8.4011 H   0  0  0  0  0  0  0  0  0  0  0  0
   -0.6417    1.1027    6.9131 H   0  0  0  0  0  0  0  0  0  0  0  0
   -0.3112    2.4186    9.3967 H   0  0  0  0  0  0  0  0  0  0  0  0
    0.3957    0.8368    9.1827 H   0  0  0  0  0  0  0  0  0  0  0  0
   -1.3026    1.1452    8.8202 H   0  0  0  0  0  0  0  0  0  0  0  0
   -1.7542    3.0706    6.8859 H   0  0  0  0  0  0  0  0  0  0  0  0
   -0.5697    3.9839    7.5961 H   0  0  0  0  0  0  0  0  0  0  0  0
   -0.5857    4.9078    5.5844 H   0  0  0  0  0  0  0  0  0  0  0  0
   -2.3816    4.8937    3.7186 H   0  0  0  0  0  0  0  0  0  0  0  0
   -1.7717    4.0972    2.3112 H   0  0  0  0  0  0  0  0  0  0  0  0
   -0.7803    5.2714    3.1650 H   0  0  0  0  0  0  0  0  0  0  0  0
   -3.0458    3.0341    4.7729 H   0  0  0  0  0  0  0  0  0  0  0  0
   -2.1006    1.6074    5.0900 H   0  0  0  0  0  0  0  0  0  0  0  0
   -2.5551    2.0224    3.4517 H   0  0  0  0  0  0  0  0  0  0  0  0
    3.7042    2.2554    6.8543 H   0  0  0  0  0  0  0  0  0  0  0  0
    3.3047    3.0152    4.3449 H   0  0  0  0  0  0  0  0  0  0  0  0
    2.6694   -0.3801    8.3664 H   0  0  0  0  0  0  0  0  0  0  0  0
    2.3083   -1.7953    7.3640 H   0  0  0  0  0  0  0  0  0  0  0  0
    0.9892   -0.9409    8.1334 H   0  0  0  0  0  0  0  0  0  0  0  0
    4.0012    0.3280    5.8267 H   0  0  0  0  0  0  0  0  0  0  0  0
    3.3654   -1.2098    5.5049 H   0  0  0  0  0  0  0  0  0  0  0  0
    0.6500   -0.2896    1.5572 H   0  0  0  0  0  0  0  0  0  0  0  0
  1  2  1  0
  1 30  1  0
  1 31  1  0
  1 32  1  0
  2 28  1  0
  2  3  2  0
  3 23  1  0
  3  4  1  0
  4  5  1  0
  5 28  1  0
  5  6  1  0
  5 33  1  6
  6 18  1  0
  6  7  1  0
  6 34  1  6
  7  8  1  0
  7  9  1  0
  7 35  1  1
  8 36  1  0
  9 11  1  0
  9 17  1  0
  9 10  1  6
 11 10  1  1
 11 21  1  0
 11 12  1  0
 13 12  1  1
 12 37  1  0
 12 38  1  0
 13 14  1  0
 13 21  1  0
 13 23  1  0
 14 15  1  0
 14 16  1  0
 14 39  1  6
 15 40  1  0
 15 41  1  0
 15 42  1  0
 16 17  1  0
 16 43  1  0
 16 44  1  0
 17 18  1  0
 17 45  1  1
 18 19  1  0
 18 20  1  0
 19 46  1  0
 19 47  1  0
 19 48  1  0
 20 49  1  0
 20 50  1  0
 20 51  1  0
 21 22  1  0
 21 52  1  1
 22 53  1  0
 23 24  1  1
 23 25  1  0
 24 54  1  0
 24 55  1  0
 24 56  1  0
 25 26  1  0
 25 57  1  0
 25 58  1  0
 26 27  2  0
 26 28  1  0
 28 29  1  6
 29 59  1  0
M  END
>  <i_m_ct_stereo_status>  (128) 
1

>  <s_m_source_file>  (128) 
/var/tmp/pbs.5076255.sched01/tmpyrjfudeo/454urwji6r.sdf

>  <i_m_source_file_index>  (128) 
12

>  <i_lp_mmshare_version>  (128) 
48012

>  <i_f3d_flags>  (128) 
0

>  <s_epik_input>  (128) 
W0NAQF0xMjNbQ0BAXTQoTzIpW0NIMl1bQ0BAXTUoW0NASF00W09IXSlbQ0BAXTYoW0NIM10pQzc9QyhbQ0gzXSlbQ0BdKFtPSF0pKEMoPU8pW0NIMl02KVtDQEBIXShPNylbQ0BIXShbQ0BIXTFbT0hdKUMoW0NIM10pKFtDSDNdKVtDQEhdM1tDSDJdW0NAQEhdNVtDSDNd

>  <s_epik_cmdline>  (128) 
J2VwaWtfcHl0aG9uJywgJy1waHQnLCAnMi4wJywgJy1waCcsICc3LjAnLCAnLXRuJywgJzgnLCAnLW1hJywgJzIwMCcsICctaW1hZScsICc8aW5maWxlLm1hZT4nLCAnLW9tYWUnLCAnPG91dGZpbGUubWFlPic=

>  <r_lp_tautomer_probability>  (128) 
1

>  <r_epik_Ionization_Penalty>  (128) 
2.52324e-07

>  <r_epik_Ionization_Penalty_Charging>  (128) 
0

>  <r_epik_Ionization_Penalty_Neutral>  (128) 
2.52324e-07

>  <r_epik_State_Penalty>  (128) 
-0

>  <r_epik_Charging_Adjusted_Penalty>  (128) 
0

>  <i_epik_Tot_Q>  (128) 
0

>  <i_epik_Tot_abs_Q>  (128) 
0

>  <s_lp_Force_Field>  (128) 
OPLS3e

>  <r_lp_Energy>  (128) 
297.733

>  <b_lp_Chiralities_Consistent>  (128) 
1

>  <s_lp_Variant>  (128) 
28:0-1

>  <s_i_glide_gridfile>  (128) 
pfpi4k_grid

>  <i_i_glide_lignum>  (128) 
12

>  <i_i_glide_rotatable_bonds>  (128) 
3

>  <r_i_docking_score>  (128) 
-2.24867

>  <r_i_glide_ligand_efficiency>  (128) 
-0.0775403

>  <r_i_glide_ligand_efficiency_sa>  (128) 
-0.238228

>  <r_i_glide_ligand_efficiency_ln>  (128) 
-0.514888

>  <r_i_glide_gscore>  (128) 
-2.24867

>  <r_i_glide_lipo>  (128) 
-0.00557723

>  <r_i_glide_hbond>  (128) 
0

>  <r_i_glide_metal>  (128) 
-0

>  <r_i_glide_rewards>  (128) 
-0.664904

>  <r_i_glide_evdw>  (128) 
-19.8952

>  <r_i_glide_ecoul>  (128) 
-3.88472

>  <r_i_glide_erotb>  (128) 
0

>  <r_i_glide_esite>  (128) 
-0.000719808

>  <r_i_glide_emodel>  (128) 
-25.2388

>  <r_i_glide_energy>  (128) 
-23.7799

>  <r_i_glide_einternal>  (128) 
2.22763

>  <r_i_glide_intrahb_reward>  (128) 
-0

>  <i_i_glide_confnum>  (128) 
1

>  <i_i_glide_posenum>  (128) 
40

>  <r_i_glide_eff_state_penalty>  (128) 
0

>  <ligand_id>  (128) 
28

>  <original_smiles>  (128) 
CC1=C2OC3C4C(O)C56OC57CC(C(C)CC6C4(C)C)(C7O)C2(C)CC(=O)C13O

>  <smiles>  (128) 
[H]OC12C(=O)C([H])([H])C3(C([H])([H])[H])C(=C1C([H])([H])[H])OC2([H])C1([H])C([H])(O[H])C24OC25C([H])([H])C3(C5([H])O[H])C([H])(C([H])([H])[H])C([H])([H])C4([H])C1(C([H])([H])[H])C([H])([H])[H]

$$$$
28:0:1
     RDKit          3D

 59 65  0  0  1  0  0  0  0  0999 V2000
    1.3726   -1.9133    3.2737 C   0  0  0  0  0  0  0  0  0  0  0  0
    1.2079   -0.4444    3.5934 C   0  0  0  0  0  0  0  0  0  0  0  0
    0.7404    0.0831    4.7507 C   0  0  0  0  0  0  0  0  0  0  0  0
    0.6103    1.4058    4.4869 O   0  0  0  0  0  0  0  0  0  0  0  0
    1.2944    1.8728    3.3639 C   0  0  1  0  0  0  0  0  0  0  0  0
    1.6415    3.4213    3.6118 C   0  0  2  0  0  0  0  0  0  0  0  0
    2.7839    3.8278    4.5942 C   0  0  1  0  0  0  0  0  0  0  0  0
    3.3751    5.0460    4.1785 O   0  0  0  0  0  0  0  0  0  0  0  0
    2.2224    3.8914    6.0546 C   0  0  2  0  0  0  0  0  0  0  0  0
    2.8875    4.6128    7.0504 O   0  0  0  0  0  0  0  0  0  0  0  0
    2.8990    3.2270    7.4938 C   0  0  1  0  0  0  0  0  0  0  0  0
    1.8399    2.3532    8.1732 C   0  0  0  0  0  0  0  0  0  0  0  0
    1.6107    1.4766    6.8110 C   0  0  1  0  0  0  0  0  0  0  0  0
    0.0585    2.0223    6.8715 C   0  0  1  0  0  0  0  0  0  0  0  0
   -0.8021    1.4909    8.0638 C   0  0  0  0  0  0  0  0  0  0  0  0
   -0.1907    3.5601    6.6965 C   0  0  0  0  0  0  0  0  0  0  0  0
    0.7774    4.3194    5.7968 C   0  0  2  0  0  0  0  0  0  0  0  0
    0.4684    4.2657    4.2166 C   0  0  0  0  0  0  0  0  0  0  0  0
    0.5120    5.7065    3.6120 C   0  0  0  0  0  0  0  0  0  0  0  0
   -0.9664    3.7899    3.8242 C   0  0  0  0  0  0  0  0  0  0  0  0
    3.1676    2.0360    6.8452 C   0  0  1  0  0  0  0  0  0  0  0  0
    4.3411    2.0391    6.0221 O   0  0  0  0  0  0  0  0  0  0  0  0
    1.6189    0.0178    6.0612 C   0  0  1  0  0  0  0  0  0  0  0  0
    1.1380   -1.1246    6.9655 C   0  0  0  0  0  0  0  0  0  0  0  0
    3.0438   -0.3857    5.4463 C   0  0  0  0  0  0  0  0  0  0  0  0
    3.3618    0.2844    4.0358 C   0  0  0  0  0  0  0  0  0  0  0  0
    4.5365    0.4829    3.6978 O   0  0  0  0  0  0  0  0  0  0  0  0
    2.1752    0.5990    3.0904 C   0  0  1  0  0  0  0  0  0  0  0  0
    2.4906    0.4117    1.7067 O   0  0  0  0  0  0  0  0  0  0  0  0
    0.6564   -2.1710    2.4966 H   0  0  0  0  0  0  0  0  0  0  0  0
    1.1348   -2.5340    4.1380 H   0  0  0  0  0  0  0  0  0  0  0  0
    2.3729   -2.1728    2.9145 H   0  0  0  0  0  0  0  0  0  0  0  0
    0.5587    1.8796    2.5582 H   0  0  0  0  0  0  0  0  0  0  0  0
    1.8932    3.7879    2.6110 H   0  0  0  0  0  0  0  0  0  0  0  0
    3.5310    3.1293    4.3203 H   0  0  0  0  0  0  0  0  0  0  0  0
    3.6048    4.9605    3.2660 H   0  0  0  0  0  0  0  0  0  0  0  0
    2.2253    1.7858    9.0119 H   0  0  0  0  0  0  0  0  0  0  0  0
    1.0687    2.9394    8.7019 H   0  0  0  0  0  0  0  0  0  0  0  0
   -0.6108    1.5615    6.1572 H   0  0  0  0  0  0  0  0  0  0  0  0
   -0.8452    2.1659    8.9191 H   0  0  0  0  0  0  0  0  0  0  0  0
   -0.4544    0.5317    8.4454 H   0  0  0  0  0  0  0  0  0  0  0  0
   -1.8402    1.3838    7.7554 H   0  0  0  0  0  0  0  0  0  0  0  0
   -1.2183    3.7231    6.4154 H   0  0  0  0  0  0  0  0  0  0  0  0
   -0.1602    4.0853    7.6515 H   0  0  0  0  0  0  0  0  0  0  0  0
    0.6721    5.3766    6.0560 H   0  0  0  0  0  0  0  0  0  0  0  0
   -0.3515    6.3086    3.8810 H   0  0  0  0  0  0  0  0  0  0  0  0
    0.5285    5.6949    2.5181 H   0  0  0  0  0  0  0  0  0  0  0  0
    1.3724    6.2960    3.9117 H   0  0  0  0  0  0  0  0  0  0  0  0
   -1.7295    4.5086    4.1219 H   0  0  0  0  0  0  0  0  0  0  0  0
   -1.2631    2.8352    4.2476 H   0  0  0  0  0  0  0  0  0  0  0  0
   -1.0616    3.6898    2.7405 H   0  0  0  0  0  0  0  0  0  0  0  0
    3.6522    1.3872    7.5782 H   0  0  0  0  0  0  0  0  0  0  0  0
    4.2289    2.7076    5.3503 H   0  0  0  0  0  0  0  0  0  0  0  0
    1.6456   -1.0938    7.9351 H   0  0  0  0  0  0  0  0  0  0  0  0
    1.3461   -2.0943    6.5095 H   0  0  0  0  0  0  0  0  0  0  0  0
    0.0577   -1.0804    7.1149 H   0  0  0  0  0  0  0  0  0  0  0  0
    3.8542   -0.2784    6.1490 H   0  0  0  0  0  0  0  0  0  0  0  0
    3.0513   -1.4541    5.2395 H   0  0  0  0  0  0  0  0  0  0  0  0
    1.6976    0.4307    1.1804 H   0  0  0  0  0  0  0  0  0  0  0  0
  1  2  1  0
  1 30  1  0
  1 31  1  0
  1 32  1  0
  2 28  1  0
  2  3  2  0
  3 23  1  0
  3  4  1  0
  4  5  1  0
  5 28  1  0
  5  6  1  0
  5 33  1  6
  6 18  1  0
  6  7  1  0
  6 34  1  6
  7  8  1  0
  7  9  1  0
  7 35  1  1
  8 36  1  0
  9 11  1  0
  9 17  1  0
  9 10  1  1
 11 10  1  1
 11 21  1  0
 11 12  1  0
 13 12  1  1
 12 37  1  0
 12 38  1  0
 13 14  1  0
 13 21  1  0
 13 23  1  0
 14 15  1  0
 14 16  1  0
 14 39  1  6
 15 40  1  0
 15 41  1  0
 15 42  1  0
 16 17  1  0
 16 43  1  0
 16 44  1  0
 17 18  1  0
 17 45  1  1
 18 19  1  0
 18 20  1  0
 19 46  1  0
 19 47  1  0
 19 48  1  0
 20 49  1  0
 20 50  1  0
 20 51  1  0
 21 22  1  0
 21 52  1  1
 22 53  1  0
 23 24  1  1
 23 25  1  0
 24 54  1  0
 24 55  1  0
 24 56  1  0
 25 26  1  0
 25 57  1  0
 25 58  1  0
 26 27  2  0
 26 28  1  0
 28 29  1  6
 29 59  1  0
M  END
>  <i_m_ct_stereo_status>  (129) 
1

>  <s_m_source_file>  (129) 
/var/tmp/pbs.5076255.sched01/tmpyrjfudeo/454urwji6r.sdf

>  <i_m_source_file_index>  (129) 
12

>  <i_lp_mmshare_version>  (129) 
48012

>  <i_f3d_flags>  (129) 
0

>  <s_epik_input>  (129) 
W0NAQF0xMjNbQ0BAXTQoTzIpW0NIMl1bQ0BAXTUoW0NASF00W09IXSlbQ0BAXTYoW0NIM10pQzc9QyhbQ0gzXSlbQ0BdKFtPSF0pKEMoPU8pW0NIMl02KVtDQEBIXShPNylbQ0BIXShbQ0BIXTFbT0hdKUMoW0NIM10pKFtDSDNdKVtDQEhdM1tDSDJdW0NAQEhdNVtDSDNd

>  <s_epik_cmdline>  (129) 
J2VwaWtfcHl0aG9uJywgJy1waHQnLCAnMi4wJywgJy1waCcsICc3LjAnLCAnLXRuJywgJzgnLCAnLW1hJywgJzIwMCcsICctaW1hZScsICc8aW5maWxlLm1hZT4nLCAnLW9tYWUnLCAnPG91dGZpbGUubWFlPic=

>  <r_lp_tautomer_probability>  (129) 
1

>  <r_epik_Ionization_Penalty>  (129) 
2.52324e-07

>  <r_epik_Ionization_Penalty_Charging>  (129) 
0

>  <r_epik_Ionization_Penalty_Neutral>  (129) 
2.52324e-07

>  <r_epik_State_Penalty>  (129) 
-0

>  <r_epik_Charging_Adjusted_Penalty>  (129) 
0

>  <i_epik_Tot_Q>  (129) 
0

>  <i_epik_Tot_abs_Q>  (129) 
0

>  <s_lp_Force_Field>  (129) 
OPLS3e

>  <r_lp_Energy>  (129) 
297.733

>  <b_lp_Chiralities_Consistent>  (129) 
1

>  <s_lp_Variant>  (129) 
28:0-1

>  <s_i_glide_gridfile>  (129) 
pfpi4k_grid

>  <i_i_glide_lignum>  (129) 
12

>  <i_i_glide_rotatable_bonds>  (129) 
3

>  <r_i_docking_score>  (129) 
-2.06598

>  <r_i_glide_ligand_efficiency>  (129) 
-0.0712406

>  <r_i_glide_ligand_efficiency_sa>  (129) 
-0.218874

>  <r_i_glide_ligand_efficiency_ln>  (129) 
-0.473057

>  <r_i_glide_gscore>  (129) 
-2.06598

>  <r_i_glide_lipo>  (129) 
-0.0113319

>  <r_i_glide_hbond>  (129) 
0

>  <r_i_glide_metal>  (129) 
-0

>  <r_i_glide_rewards>  (129) 
-0.664904

>  <r_i_glide_evdw>  (129) 
-21.2877

>  <r_i_glide_ecoul>  (129) 
-2.1656

>  <r_i_glide_erotb>  (129) 
0

>  <r_i_glide_esite>  (129) 
-0.000515945

>  <r_i_glide_emodel>  (129) 
-26.1726

>  <r_i_glide_energy>  (129) 
-23.4533

>  <r_i_glide_einternal>  (129) 
0.551287

>  <r_i_glide_intrahb_reward>  (129) 
-0

>  <i_i_glide_confnum>  (129) 
1

>  <i_i_glide_posenum>  (129) 
31

>  <r_i_glide_eff_state_penalty>  (129) 
0

>  <ligand_id>  (129) 
28

>  <original_smiles>  (129) 
CC1=C2OC3C4C(O)C56OC57CC(C(C)CC6C4(C)C)(C7O)C2(C)CC(=O)C13O

>  <smiles>  (129) 
[H]OC12C(=O)C([H])([H])C3(C([H])([H])[H])C(=C1C([H])([H])[H])OC2([H])C1([H])C([H])(O[H])C24OC25C([H])([H])C3(C5([H])O[H])C([H])(C([H])([H])[H])C([H])([H])C4([H])C1(C([H])([H])[H])C([H])([H])[H]

$$$$
28:0:2
     RDKit          3D

 59 65  0  0  1  0  0  0  0  0999 V2000
    1.3788   -1.9022    3.2774 C   0  0  0  0  0  0  0  0  0  0  0  0
    1.2127   -0.4329    3.5969 C   0  0  0  0  0  0  0  0  0  0  0  0
    0.7559    0.1002    4.7502 C   0  0  0  0  0  0  0  0  0  0  0  0
    0.6255    1.4226    4.4879 O   0  0  0  0  0  0  0  0  0  0  0  0
    1.3196    1.8832    3.3690 C   0  0  1  0  0  0  0  0  0  0  0  0
    1.6684    3.4291    3.6190 C   0  0  2  0  0  0  0  0  0  0  0  0
    2.8175    3.8420    4.5938 C   0  0  1  0  0  0  0  0  0  0  0  0
    3.3744    5.0702    4.1770 O   0  0  0  0  0  0  0  0  0  0  0  0
    2.2537    3.9038    6.0599 C   0  0  2  0  0  0  0  0  0  0  0  0
    2.9135    4.6163    7.0552 O   0  0  0  0  0  0  0  0  0  0  0  0
    2.9261    3.2339    7.4946 C   0  0  1  0  0  0  0  0  0  0  0  0
    1.8632    2.3553    8.1739 C   0  0  0  0  0  0  0  0  0  0  0  0
    1.6304    1.4903    6.8072 C   0  0  1  0  0  0  0  0  0  0  0  0
    0.0810    2.0397    6.8755 C   0  0  1  0  0  0  0  0  0  0  0  0
   -0.7812    1.5110    8.0673 C   0  0  0  0  0  0  0  0  0  0  0  0
   -0.1632    3.5793    6.7020 C   0  0  0  0  0  0  0  0  0  0  0  0
    0.8088    4.3306    5.7991 C   0  0  2  0  0  0  0  0  0  0  0  0
    0.4978    4.2792    4.2209 C   0  0  0  0  0  0  0  0  0  0  0  0
    0.5417    5.7191    3.6138 C   0  0  0  0  0  0  0  0  0  0  0  0
   -0.9385    3.8075    3.8297 C   0  0  0  0  0  0  0  0  0  0  0  0
    3.2027    2.0271    6.8498 C   0  0  1  0  0  0  0  0  0  0  0  0
    4.3583    2.0768    6.0095 O   0  0  0  0  0  0  0  0  0  0  0  0
    1.6314    0.0309    6.0641 C   0  0  1  0  0  0  0  0  0  0  0  0
    1.1472   -1.1116    6.9699 C   0  0  0  0  0  0  0  0  0  0  0  0
    3.0532   -0.3813    5.4520 C   0  0  0  0  0  0  0  0  0  0  0  0
    3.3789    0.2849    4.0441 C   0  0  0  0  0  0  0  0  0  0  0  0
    4.5616    0.4678    3.7213 O   0  0  0  0  0  0  0  0  0  0  0  0
    2.1913    0.6044    3.0957 C   0  0  1  0  0  0  0  0  0  0  0  0
    2.5048    0.4164    1.7112 O   0  0  0  0  0  0  0  0  0  0  0  0
    0.6632   -2.1549    2.4990 H   0  0  0  0  0  0  0  0  0  0  0  0
    1.1345   -2.5209    4.1417 H   0  0  0  0  0  0  0  0  0  0  0  0
    2.3785   -2.1661    2.9169 H   0  0  0  0  0  0  0  0  0  0  0  0
    0.5803    1.8968    2.5661 H   0  0  0  0  0  0  0  0  0  0  0  0
    1.9228    3.7936    2.6183 H   0  0  0  0  0  0  0  0  0  0  0  0
    3.5733    3.1562    4.3102 H   0  0  0  0  0  0  0  0  0  0  0  0
    3.6425    4.9562    3.2704 H   0  0  0  0  0  0  0  0  0  0  0  0
    2.2482    1.7893    9.0154 H   0  0  0  0  0  0  0  0  0  0  0  0
    1.1033    2.9534    8.6996 H   0  0  0  0  0  0  0  0  0  0  0  0
   -0.5914    1.5802    6.1628 H   0  0  0  0  0  0  0  0  0  0  0  0
   -0.8212    2.1856    8.9220 H   0  0  0  0  0  0  0  0  0  0  0  0
   -0.4373    0.5494    8.4516 H   0  0  0  0  0  0  0  0  0  0  0  0
   -1.8201    1.4069    7.7603 H   0  0  0  0  0  0  0  0  0  0  0  0
   -1.1882    3.7415    6.4178 H   0  0  0  0  0  0  0  0  0  0  0  0
   -0.1292    4.1048    7.6561 H   0  0  0  0  0  0  0  0  0  0  0  0
    0.7096    5.3874    6.0595 H   0  0  0  0  0  0  0  0  0  0  0  0
   -0.3196    6.3245    3.8832 H   0  0  0  0  0  0  0  0  0  0  0  0
    0.5589    5.7027    2.5194 H   0  0  0  0  0  0  0  0  0  0  0  0
    1.3992    6.3116    3.9113 H   0  0  0  0  0  0  0  0  0  0  0  0
   -1.6996    4.5276    4.1301 H   0  0  0  0  0  0  0  0  0  0  0  0
   -1.2370    2.8541    4.2512 H   0  0  0  0  0  0  0  0  0  0  0  0
   -1.0379    3.7100    2.7463 H   0  0  0  0  0  0  0  0  0  0  0  0
    3.6927    1.3871    7.5785 H   0  0  0  0  0  0  0  0  0  0  0  0
    4.7371    1.2212    5.9283 H   0  0  0  0  0  0  0  0  0  0  0  0
    1.6583   -1.0834    7.9375 H   0  0  0  0  0  0  0  0  0  0  0  0
    1.3523   -2.0835    6.5160 H   0  0  0  0  0  0  0  0  0  0  0  0
    0.0671   -1.0633    7.1232 H   0  0  0  0  0  0  0  0  0  0  0  0
    3.8585   -0.2869    6.1593 H   0  0  0  0  0  0  0  0  0  0  0  0
    3.0509   -1.4491    5.2402 H   0  0  0  0  0  0  0  0  0  0  0  0
    1.7122    0.4551    1.1830 H   0  0  0  0  0  0  0  0  0  0  0  0
  1  2  1  0
  1 30  1  0
  1 31  1  0
  1 32  1  0
  2 28  1  0
  2  3  2  0
  3 23  1  0
  3  4  1  0
  4  5  1  0
  5 28  1  0
  5  6  1  0
  5 33  1  6
  6 18  1  0
  6  7  1  0
  6 34  1  6
  7  8  1  0
  7  9  1  0
  7 35  1  1
  8 36  1  0
  9 11  1  0
  9 17  1  0
  9 10  1  1
 11 10  1  1
 11 21  1  0
 11 12  1  0
 13 12  1  1
 12 37  1  0
 12 38  1  0
 13 14  1  0
 13 21  1  0
 13 23  1  0
 14 15  1  0
 14 16  1  0
 14 39  1  6
 15 40  1  0
 15 41  1  0
 15 42  1  0
 16 17  1  0
 16 43  1  0
 16 44  1  0
 17 18  1  0
 17 45  1  1
 18 19  1  0
 18 20  1  0
 19 46  1  0
 19 47  1  0
 19 48  1  0
 20 49  1  0
 20 50  1  0
 20 51  1  0
 21 22  1  0
 21 52  1  1
 22 53  1  0
 23 24  1  1
 23 25  1  0
 24 54  1  0
 24 55  1  0
 24 56  1  0
 25 26  1  0
 25 57  1  0
 25 58  1  0
 26 27  2  0
 26 28  1  0
 28 29  1  6
 29 59  1  0
M  END
>  <i_m_ct_stereo_status>  (130) 
1

>  <s_m_source_file>  (130) 
/var/tmp/pbs.5076255.sched01/tmpyrjfudeo/454urwji6r.sdf

>  <i_m_source_file_index>  (130) 
12

>  <i_lp_mmshare_version>  (130) 
48012

>  <i_f3d_flags>  (130) 
0

>  <s_epik_input>  (130) 
W0NAQF0xMjNbQ0BAXTQoTzIpW0NIMl1bQ0BAXTUoW0NASF00W09IXSlbQ0BAXTYoW0NIM10pQzc9QyhbQ0gzXSlbQ0BdKFtPSF0pKEMoPU8pW0NIMl02KVtDQEBIXShPNylbQ0BIXShbQ0BIXTFbT0hdKUMoW0NIM10pKFtDSDNdKVtDQEhdM1tDSDJdW0NAQEhdNVtDSDNd

>  <s_epik_cmdline>  (130) 
J2VwaWtfcHl0aG9uJywgJy1waHQnLCAnMi4wJywgJy1waCcsICc3LjAnLCAnLXRuJywgJzgnLCAnLW1hJywgJzIwMCcsICctaW1hZScsICc8aW5maWxlLm1hZT4nLCAnLW9tYWUnLCAnPG91dGZpbGUubWFlPic=

>  <r_lp_tautomer_probability>  (130) 
1

>  <r_epik_Ionization_Penalty>  (130) 
2.52324e-07

>  <r_epik_Ionization_Penalty_Charging>  (130) 
0

>  <r_epik_Ionization_Penalty_Neutral>  (130) 
2.52324e-07

>  <r_epik_State_Penalty>  (130) 
-0

>  <r_epik_Charging_Adjusted_Penalty>  (130) 
0

>  <i_epik_Tot_Q>  (130) 
0

>  <i_epik_Tot_abs_Q>  (130) 
0

>  <s_lp_Force_Field>  (130) 
OPLS3e

>  <r_lp_Energy>  (130) 
297.733

>  <b_lp_Chiralities_Consistent>  (130) 
1

>  <s_lp_Variant>  (130) 
28:0-1

>  <s_i_glide_gridfile>  (130) 
pfpi4k_grid

>  <i_i_glide_lignum>  (130) 
12

>  <i_i_glide_rotatable_bonds>  (130) 
3

>  <r_i_docking_score>  (130) 
-2.03027

>  <r_i_glide_ligand_efficiency>  (130) 
-0.0700092

>  <r_i_glide_ligand_efficiency_sa>  (130) 
-0.21509

>  <r_i_glide_ligand_efficiency_ln>  (130) 
-0.464879

>  <r_i_glide_gscore>  (130) 
-2.03027

>  <r_i_glide_lipo>  (130) 
-0.0106808

>  <r_i_glide_hbond>  (130) 
0

>  <r_i_glide_metal>  (130) 
-0

>  <r_i_glide_rewards>  (130) 
-0.664904

>  <r_i_glide_evdw>  (130) 
-21.3284

>  <r_i_glide_ecoul>  (130) 
-1.91845

>  <r_i_glide_erotb>  (130) 
0

>  <r_i_glide_esite>  (130) 
-0.000490841

>  <r_i_glide_emodel>  (130) 
-25.9942

>  <r_i_glide_energy>  (130) 
-23.2469

>  <r_i_glide_einternal>  (130) 
0.448369

>  <r_i_glide_intrahb_reward>  (130) 
-0

>  <i_i_glide_confnum>  (130) 
2

>  <i_i_glide_posenum>  (130) 
36

>  <r_i_glide_eff_state_penalty>  (130) 
0

>  <ligand_id>  (130) 
28

>  <original_smiles>  (130) 
CC1=C2OC3C4C(O)C56OC57CC(C(C)CC6C4(C)C)(C7O)C2(C)CC(=O)C13O

>  <smiles>  (130) 
[H]OC12C(=O)C([H])([H])C3(C([H])([H])[H])C(=C1C([H])([H])[H])OC2([H])C1([H])C([H])(O[H])C24OC25C([H])([H])C3(C5([H])O[H])C([H])(C([H])([H])[H])C([H])([H])C4([H])C1(C([H])([H])[H])C([H])([H])[H]

$$$$
29:0:0
     RDKit          3D

 48 53  0  0  1  0  0  0  0  0999 V2000
    7.4804   -2.3591   -1.5062 O   0  0  0  0  0  0  0  0  0  0  0  0
    7.1067   -2.5641   -0.1569 C   0  0  2  0  0  0  0  0  0  0  0  0
    7.0749   -4.1103    0.1458 C   0  0  1  0  0  0  0  0  0  0  0  0
    7.4036   -4.6580    1.5623 C   0  0  0  0  0  0  0  0  0  0  0  0
    6.1730   -4.9977    2.5104 C   0  0  0  0  0  0  0  0  0  0  0  0
    4.8358   -4.7876    1.9939 O   0  0  0  0  0  0  0  0  0  0  0  0
    4.7528   -3.8542    0.9183 C   0  0  1  0  0  0  0  0  0  0  0  0
    3.3832   -3.6878    0.1916 C   0  0  1  0  0  0  0  0  0  0  0  0
    2.3270   -3.3786    1.2211 C   0  0  0  0  0  0  0  0  0  0  0  0
    1.9684   -4.3850    2.1537 C   0  0  0  0  0  0  0  0  0  0  0  0
    2.0887   -4.0819    3.5299 C   0  0  0  0  0  0  0  0  0  0  0  0
    2.8099   -2.9117    3.8561 C   0  0  0  0  0  0  0  0  0  0  0  0
    3.0945   -2.0027    2.8084 C   0  0  0  0  0  0  0  0  0  0  0  0
    2.3281   -2.0524    1.6544 C   0  0  0  0  0  0  0  0  0  0  0  0
    4.5045   -1.5480    2.5296 C   0  0  0  0  0  0  0  0  0  0  0  0
    5.2842   -2.4353    1.4555 C   0  0  2  0  0  0  0  0  0  0  0  0
    5.7833   -1.7676    0.1782 C   0  0  1  0  0  0  0  0  0  0  0  0
    6.2137   -0.4745    0.4778 O   0  0  0  0  0  0  0  0  0  0  0  0
    4.6798   -1.7339   -0.9167 C   0  0  0  0  0  0  0  0  0  0  0  0
    4.8004   -0.8046   -1.9663 C   0  0  0  0  0  0  0  0  0  0  0  0
    3.8578   -0.7495   -3.0060 C   0  0  0  0  0  0  0  0  0  0  0  0
    2.8053   -1.6866   -3.0286 C   0  0  0  0  0  0  0  0  0  0  0  0
    2.6309   -2.6051   -1.9794 C   0  0  0  0  0  0  0  0  0  0  0  0
    3.5404   -2.6112   -0.8978 C   0  0  0  0  0  0  0  0  0  0  0  0
    5.6803   -4.6116   -0.1089 C   0  0  1  0  0  0  0  0  0  0  0  0
    5.4165   -4.5188   -1.4891 O   0  0  0  0  0  0  0  0  0  0  0  0
    7.0741   -3.0455   -2.0259 H   0  0  0  0  0  0  0  0  0  0  0  0
    7.9321   -2.1644    0.4344 H   0  0  0  0  0  0  0  0  0  0  0  0
    7.8256   -4.5543   -0.4982 H   0  0  0  0  0  0  0  0  0  0  0  0
    8.0286   -5.5514    1.4589 H   0  0  0  0  0  0  0  0  0  0  0  0
    8.0636   -3.9337    2.0193 H   0  0  0  0  0  0  0  0  0  0  0  0
    6.2631   -6.0444    2.8105 H   0  0  0  0  0  0  0  0  0  0  0  0
    6.2002   -4.4159    3.4344 H   0  0  0  0  0  0  0  0  0  0  0  0
    3.0888   -4.6246   -0.2852 H   0  0  0  0  0  0  0  0  0  0  0  0
    1.8059   -5.4036    1.8333 H   0  0  0  0  0  0  0  0  0  0  0  0
    1.8833   -4.8442    4.2706 H   0  0  0  0  0  0  0  0  0  0  0  0
    3.2977   -2.8448    4.8152 H   0  0  0  0  0  0  0  0  0  0  0  0
    2.5548   -1.2960    0.9120 H   0  0  0  0  0  0  0  0  0  0  0  0
    4.4668   -0.4945    2.2467 H   0  0  0  0  0  0  0  0  0  0  0  0
    5.0354   -1.5920    3.4811 H   0  0  0  0  0  0  0  0  0  0  0  0
    6.1992   -2.5437    2.0351 H   0  0  0  0  0  0  0  0  0  0  0  0
    5.4428    0.0320    0.6816 H   0  0  0  0  0  0  0  0  0  0  0  0
    5.6305   -0.1174   -1.9852 H   0  0  0  0  0  0  0  0  0  0  0  0
    3.9181    0.0290   -3.7533 H   0  0  0  0  0  0  0  0  0  0  0  0
    2.1013   -1.6448   -3.8454 H   0  0  0  0  0  0  0  0  0  0  0  0
    1.7656   -3.2661   -1.9696 H   0  0  0  0  0  0  0  0  0  0  0  0
    5.6298   -5.6908    0.0660 H   0  0  0  0  0  0  0  0  0  0  0  0
    4.6107   -5.0029   -1.6705 H   0  0  0  0  0  0  0  0  0  0  0  0
  1  2  1  0
  1 27  1  0
  2 17  1  0
  2  3  1  0
  2 28  1  1
  3 25  1  0
  3  4  1  0
  3 29  1  6
  4  5  1  0
  4 30  1  0
  4 31  1  0
  5  6  1  0
  5 32  1  0
  5 33  1  0
  7  6  1  1
  7 16  1  0
  7  8  1  0
  7 25  1  0
  8 24  1  0
  8  9  1  0
  8 34  1  6
  9 14  2  0
  9 10  1  0
 10 11  2  0
 10 35  1  0
 11 12  1  0
 11 36  1  0
 12 13  2  0
 12 37  1  0
 13 14  1  0
 13 15  1  0
 14 38  1  0
 15 16  1  0
 15 39  1  0
 15 40  1  0
 16 17  1  0
 16 41  1  1
 17 18  1  1
 17 19  1  0
 18 42  1  0
 19 24  2  0
 19 20  1  0
 20 21  2  0
 20 43  1  0
 21 22  1  0
 21 44  1  0
 22 23  2  0
 22 45  1  0
 23 24  1  0
 23 46  1  0
 25 26  1  0
 25 47  1  1
 26 48  1  0
M  END
>  <i_m_ct_stereo_status>  (131) 
1

>  <s_m_source_file>  (131) 
/var/tmp/pbs.5076255.sched01/tmpyrjfudeo/454urwji6r.sdf

>  <i_m_source_file_index>  (131) 
13

>  <i_lp_mmshare_version>  (131) 
48012

>  <i_f3d_flags>  (131) 
0

>  <s_epik_input>  (131) 
W2NIXTFbY0hdW2NIXVtjSF1jMmMxW0NAXShbT0hdKShbQ0BIXShbT0hdKVtDQEBIXShbQ0gyXVtDSDJdTzMpW0NAQEhdNFtPSF0pW0NIXTVbQ0gyXWMoW2NIXTYpW2NIXVtjSF1bY0hdYzZbQ0BASF0yW0NAQF0zNDU=

>  <s_epik_cmdline>  (131) 
J2VwaWtfcHl0aG9uJywgJy1waHQnLCAnMi4wJywgJy1waCcsICc3LjAnLCAnLXRuJywgJzgnLCAnLW1hJywgJzIwMCcsICctaW1hZScsICc8aW5maWxlLm1hZT4nLCAnLW9tYWUnLCAnPG91dGZpbGUubWFlPic=

>  <r_lp_tautomer_probability>  (131) 
1

>  <r_epik_Ionization_Penalty>  (131) 
1.82519e-07

>  <r_epik_Ionization_Penalty_Charging>  (131) 
0

>  <r_epik_Ionization_Penalty_Neutral>  (131) 
1.82519e-07

>  <r_epik_State_Penalty>  (131) 
-0

>  <r_epik_Charging_Adjusted_Penalty>  (131) 
0

>  <i_epik_Tot_Q>  (131) 
0

>  <i_epik_Tot_abs_Q>  (131) 
0

>  <s_lp_Force_Field>  (131) 
OPLS3e

>  <r_lp_Energy>  (131) 
172.163

>  <b_lp_Chiralities_Consistent>  (131) 
1

>  <s_lp_Variant>  (131) 
29:0-1

>  <s_i_glide_gridfile>  (131) 
pfpi4k_grid

>  <i_i_glide_lignum>  (131) 
13

>  <i_i_glide_rotatable_bonds>  (131) 
3

>  <r_i_docking_score>  (131) 
-3.27928

>  <r_i_glide_ligand_efficiency>  (131) 
-0.126126

>  <r_i_glide_ligand_efficiency_sa>  (131) 
-0.373649

>  <r_i_glide_ligand_efficiency_ln>  (131) 
-0.770129

>  <r_i_glide_gscore>  (131) 
-3.27928

>  <r_i_glide_lipo>  (131) 
-0.560992

>  <r_i_glide_hbond>  (131) 
0

>  <r_i_glide_metal>  (131) 
-0

>  <r_i_glide_rewards>  (131) 
-1.51995

>  <r_i_glide_evdw>  (131) 
-11.7873

>  <r_i_glide_ecoul>  (131) 
-4.05986

>  <r_i_glide_erotb>  (131) 
0

>  <r_i_glide_esite>  (131) 
0

>  <r_i_glide_emodel>  (131) 
-22.3754

>  <r_i_glide_energy>  (131) 
-15.8471

>  <r_i_glide_einternal>  (131) 
1.62491

>  <r_i_glide_intrahb_reward>  (131) 
-0.5

>  <i_i_glide_confnum>  (131) 
1

>  <i_i_glide_posenum>  (131) 
12

>  <r_i_glide_eff_state_penalty>  (131) 
0

>  <ligand_id>  (131) 
29

>  <original_smiles>  (131) 
OC1C2CCOC3(C4c5cccc(c5)CC3C1(O)c1ccccc14)C2O

>  <smiles>  (131) 
[H]OC1([H])C2(O[H])c3c([H])c([H])c([H])c([H])c3C3([H])c4c([H])c([H])c([H])c(c4[H])C([H])([H])C2([H])C32OC([H])([H])C([H])([H])C1([H])C2([H])O[H]

$$$$
29:0:1
     RDKit          3D

 48 53  0  0  1  0  0  0  0  0999 V2000
    7.4867   -3.4142   -1.2276 O   0  0  0  0  0  0  0  0  0  0  0  0
    7.1718   -3.4432    0.1468 C   0  0  2  0  0  0  0  0  0  0  0  0
    6.8915   -4.9250    0.6253 C   0  0  1  0  0  0  0  0  0  0  0  0
    7.2631   -5.3230    2.0842 C   0  0  0  0  0  0  0  0  0  0  0  0
    6.0737   -5.3578    3.1390 C   0  0  0  0  0  0  0  0  0  0  0  0
    4.7426   -4.9714    2.6901 O   0  0  0  0  0  0  0  0  0  0  0  0
    4.7128   -4.1933    1.4917 C   0  0  1  0  0  0  0  0  0  0  0  0
    3.3352   -3.8697    0.8190 C   0  0  1  0  0  0  0  0  0  0  0  0
    2.3734   -3.2639    1.8221 C   0  0  0  0  0  0  0  0  0  0  0  0
    1.8931   -4.0724    2.8842 C   0  0  0  0  0  0  0  0  0  0  0  0
    2.2007   -3.6776    4.2058 C   0  0  0  0  0  0  0  0  0  0  0  0
    3.1399   -2.6271    4.3638 C   0  0  0  0  0  0  0  0  0  0  0  0
    3.4909   -1.8958    3.2062 C   0  0  0  0  0  0  0  0  0  0  0  0
    2.6431   -1.9238    2.1059 C   0  0  0  0  0  0  0  0  0  0  0  0
    4.9371   -1.7126    2.8158 C   0  0  0  0  0  0  0  0  0  0  0  0
    5.4983   -2.8265    1.8169 C   0  0  2  0  0  0  0  0  0  0  0  0
    6.0330   -2.3806    0.4556 C   0  0  1  0  0  0  0  0  0  0  0  0
    6.7079   -1.1404    0.5839 O   0  0  0  0  0  0  0  0  0  0  0  0
    4.8771   -2.2929   -0.5828 C   0  0  0  0  0  0  0  0  0  0  0  0
    5.0638   -1.5017   -1.7366 C   0  0  0  0  0  0  0  0  0  0  0  0
    4.0603   -1.3892   -2.7114 C   0  0  0  0  0  0  0  0  0  0  0  0
    2.8580   -2.0948   -2.5581 C   0  0  0  0  0  0  0  0  0  0  0  0
    2.6383   -2.8915   -1.4156 C   0  0  0  0  0  0  0  0  0  0  0  0
    3.6166   -2.9649   -0.4024 C   0  0  0  0  0  0  0  0  0  0  0  0
    5.4199   -5.2218    0.5228 C   0  0  1  0  0  0  0  0  0  0  0  0
    5.0181   -5.2897   -0.8301 O   0  0  0  0  0  0  0  0  0  0  0  0
    6.7486   -3.7661   -1.7062 H   0  0  0  0  0  0  0  0  0  0  0  0
    8.0989   -3.1417    0.6377 H   0  0  0  0  0  0  0  0  0  0  0  0
    7.4876   -5.6111    0.0267 H   0  0  0  0  0  0  0  0  0  0  0  0
    7.7276   -6.3131    2.0717 H   0  0  0  0  0  0  0  0  0  0  0  0
    8.0644   -4.6709    2.4288 H   0  0  0  0  0  0  0  0  0  0  0  0
    6.0012   -6.3718    3.5422 H   0  0  0  0  0  0  0  0  0  0  0  0
    6.3205   -4.7170    3.9890 H   0  0  0  0  0  0  0  0  0  0  0  0
    2.8684   -4.7921    0.4692 H   0  0  0  0  0  0  0  0  0  0  0  0
    1.5694   -5.0879    2.7154 H   0  0  0  0  0  0  0  0  0  0  0  0
    1.9598   -4.3197    5.0413 H   0  0  0  0  0  0  0  0  0  0  0  0
    3.6999   -2.5514    5.2800 H   0  0  0  0  0  0  0  0  0  0  0  0
    2.9616   -1.3110    1.2784 H   0  0  0  0  0  0  0  0  0  0  0  0
    5.0603   -0.7042    2.4178 H   0  0  0  0  0  0  0  0  0  0  0  0
    5.5124   -1.7410    3.7426 H   0  0  0  0  0  0  0  0  0  0  0  0
    6.4078   -3.0261    2.3717 H   0  0  0  0  0  0  0  0  0  0  0  0
    7.3351   -1.2106    1.2847 H   0  0  0  0  0  0  0  0  0  0  0  0
    5.9829   -0.9640   -1.8720 H   0  0  0  0  0  0  0  0  0  0  0  0
    4.1947   -0.7313   -3.5618 H   0  0  0  0  0  0  0  0  0  0  0  0
    2.0681   -1.9803   -3.2831 H   0  0  0  0  0  0  0  0  0  0  0  0
    1.6887   -3.3859   -1.2896 H   0  0  0  0  0  0  0  0  0  0  0  0
    5.2331   -6.2428    0.8626 H   0  0  0  0  0  0  0  0  0  0  0  0
    4.1171   -5.5705   -0.9011 H   0  0  0  0  0  0  0  0  0  0  0  0
  1  2  1  0
  1 27  1  0
  2 17  1  0
  2  3  1  0
  2 28  1  1
  3 25  1  0
  3  4  1  0
  3 29  1  6
  4  5  1  0
  4 30  1  0
  4 31  1  0
  5  6  1  0
  5 32  1  0
  5 33  1  0
  7  6  1  1
  7 16  1  0
  7  8  1  0
  7 25  1  0
  8 24  1  0
  8  9  1  0
  8 34  1  6
  9 14  2  0
  9 10  1  0
 10 11  2  0
 10 35  1  0
 11 12  1  0
 11 36  1  0
 12 13  2  0
 12 37  1  0
 13 14  1  0
 13 15  1  0
 14 38  1  0
 15 16  1  0
 15 39  1  0
 15 40  1  0
 16 17  1  0
 16 41  1  1
 17 18  1  1
 17 19  1  0
 18 42  1  0
 19 24  2  0
 19 20  1  0
 20 21  2  0
 20 43  1  0
 21 22  1  0
 21 44  1  0
 22 23  2  0
 22 45  1  0
 23 24  1  0
 23 46  1  0
 25 26  1  0
 25 47  1  1
 26 48  1  0
M  END
>  <i_m_ct_stereo_status>  (132) 
1

>  <s_m_source_file>  (132) 
/var/tmp/pbs.5076255.sched01/tmpyrjfudeo/454urwji6r.sdf

>  <i_m_source_file_index>  (132) 
13

>  <i_lp_mmshare_version>  (132) 
48012

>  <i_f3d_flags>  (132) 
0

>  <s_epik_input>  (132) 
W2NIXTFbY0hdW2NIXVtjSF1jMmMxW0NAXShbT0hdKShbQ0BIXShbT0hdKVtDQEBIXShbQ0gyXVtDSDJdTzMpW0NAQEhdNFtPSF0pW0NIXTVbQ0gyXWMoW2NIXTYpW2NIXVtjSF1bY0hdYzZbQ0BASF0yW0NAQF0zNDU=

>  <s_epik_cmdline>  (132) 
J2VwaWtfcHl0aG9uJywgJy1waHQnLCAnMi4wJywgJy1waCcsICc3LjAnLCAnLXRuJywgJzgnLCAnLW1hJywgJzIwMCcsICctaW1hZScsICc8aW5maWxlLm1hZT4nLCAnLW9tYWUnLCAnPG91dGZpbGUubWFlPic=

>  <r_lp_tautomer_probability>  (132) 
1

>  <r_epik_Ionization_Penalty>  (132) 
1.82519e-07

>  <r_epik_Ionization_Penalty_Charging>  (132) 
0

>  <r_epik_Ionization_Penalty_Neutral>  (132) 
1.82519e-07

>  <r_epik_State_Penalty>  (132) 
-0

>  <r_epik_Charging_Adjusted_Penalty>  (132) 
0

>  <i_epik_Tot_Q>  (132) 
0

>  <i_epik_Tot_abs_Q>  (132) 
0

>  <s_lp_Force_Field>  (132) 
OPLS3e

>  <r_lp_Energy>  (132) 
172.163

>  <b_lp_Chiralities_Consistent>  (132) 
1

>  <s_lp_Variant>  (132) 
29:0-1

>  <s_i_glide_gridfile>  (132) 
pfpi4k_grid

>  <i_i_glide_lignum>  (132) 
13

>  <i_i_glide_rotatable_bonds>  (132) 
3

>  <r_i_docking_score>  (132) 
-3.11126

>  <r_i_glide_ligand_efficiency>  (132) 
-0.119664

>  <r_i_glide_ligand_efficiency_sa>  (132) 
-0.354503

>  <r_i_glide_ligand_efficiency_ln>  (132) 
-0.730668

>  <r_i_glide_gscore>  (132) 
-3.11126

>  <r_i_glide_lipo>  (132) 
-0.638887

>  <r_i_glide_hbond>  (132) 
0

>  <r_i_glide_metal>  (132) 
-0

>  <r_i_glide_rewards>  (132) 
-1.51995

>  <r_i_glide_evdw>  (132) 
-19.8002

>  <r_i_glide_ecoul>  (132) 
0.2506

>  <r_i_glide_erotb>  (132) 
0

>  <r_i_glide_esite>  (132) 
0

>  <r_i_glide_emodel>  (132) 
-27.2191

>  <r_i_glide_energy>  (132) 
-19.5496

>  <r_i_glide_einternal>  (132) 
0.381094

>  <r_i_glide_intrahb_reward>  (132) 
-0.5

>  <i_i_glide_confnum>  (132) 
2

>  <i_i_glide_posenum>  (132) 
1

>  <r_i_glide_eff_state_penalty>  (132) 
0

>  <ligand_id>  (132) 
29

>  <original_smiles>  (132) 
OC1C2CCOC3(C4c5cccc(c5)CC3C1(O)c1ccccc14)C2O

>  <smiles>  (132) 
[H]OC1([H])C2(O[H])c3c([H])c([H])c([H])c([H])c3C3([H])c4c([H])c([H])c([H])c(c4[H])C([H])([H])C2([H])C32OC([H])([H])C([H])([H])C1([H])C2([H])O[H]

$$$$
29:0:2
     RDKit          3D

 48 53  0  0  1  0  0  0  0  0999 V2000
    7.1373   -3.4365   -1.2004 O   0  0  0  0  0  0  0  0  0  0  0  0
    6.9296   -3.5024    0.1956 C   0  0  2  0  0  0  0  0  0  0  0  0
    6.8839   -5.0097    0.6663 C   0  0  1  0  0  0  0  0  0  0  0  0
    7.3991   -5.3955    2.0809 C   0  0  0  0  0  0  0  0  0  0  0  0
    6.2896   -5.5727    3.2073 C   0  0  0  0  0  0  0  0  0  0  0  0
    4.8878   -5.3547    2.8501 O   0  0  0  0  0  0  0  0  0  0  0  0
    4.6823   -4.5728    1.6726 C   0  0  1  0  0  0  0  0  0  0  0  0
    3.2328   -4.4325    1.0937 C   0  0  1  0  0  0  0  0  0  0  0  0
    2.2572   -3.9738    2.1693 C   0  0  0  0  0  0  0  0  0  0  0  0
    1.9593   -4.8459    3.2464 C   0  0  0  0  0  0  0  0  0  0  0  0
    2.3067   -4.4249    4.5559 C   0  0  0  0  0  0  0  0  0  0  0  0
    3.1138   -3.2684    4.6673 C   0  0  0  0  0  0  0  0  0  0  0  0
    3.2885   -2.4871    3.5018 C   0  0  0  0  0  0  0  0  0  0  0  0
    2.3744   -2.6145    2.4640 C   0  0  0  0  0  0  0  0  0  0  0  0
    4.6714   -2.1057    3.0256 C   0  0  0  0  0  0  0  0  0  0  0  0
    5.3033   -3.1245    1.9730 C   0  0  2  0  0  0  0  0  0  0  0  0
    5.6896   -2.6020    0.5945 C   0  0  1  0  0  0  0  0  0  0  0  0
    6.2165   -1.2999    0.7136 O   0  0  0  0  0  0  0  0  0  0  0  0
    4.4648   -2.6478   -0.3678 C   0  0  0  0  0  0  0  0  0  0  0  0
    4.4792   -1.8390   -1.5290 C   0  0  0  0  0  0  0  0  0  0  0  0
    3.4151   -1.8675   -2.4516 C   0  0  0  0  0  0  0  0  0  0  0  0
    2.3279   -2.7371   -2.2469 C   0  0  0  0  0  0  0  0  0  0  0  0
    2.2745   -3.5175   -1.0764 C   0  0  0  0  0  0  0  0  0  0  0  0
    3.3148   -3.4788   -0.1244 C   0  0  0  0  0  0  0  0  0  0  0  0
    5.4573   -5.4843    0.6423 C   0  0  1  0  0  0  0  0  0  0  0  0
    5.0153   -5.5473   -0.6974 O   0  0  0  0  0  0  0  0  0  0  0  0
    6.3963   -3.8403   -1.6285 H   0  0  0  0  0  0  0  0  0  0  0  0
    7.8318   -3.0741    0.6348 H   0  0  0  0  0  0  0  0  0  0  0  0
    7.5124   -5.5957    0.0040 H   0  0  0  0  0  0  0  0  0  0  0  0
    7.9452   -6.3464    2.0003 H   0  0  0  0  0  0  0  0  0  0  0  0
    8.1472   -4.6585    2.3848 H   0  0  0  0  0  0  0  0  0  0  0  0
    6.3641   -6.5881    3.6089 H   0  0  0  0  0  0  0  0  0  0  0  0
    6.5239   -4.9114    4.0438 H   0  0  0  0  0  0  0  0  0  0  0  0
    2.8738   -5.4076    0.7548 H   0  0  0  0  0  0  0  0  0  0  0  0
    1.7636   -5.8980    3.0883 H   0  0  0  0  0  0  0  0  0  0  0  0
    2.2081   -5.1006    5.3972 H   0  0  0  0  0  0  0  0  0  0  0  0
    3.7203   -3.1236    5.5473 H   0  0  0  0  0  0  0  0  0  0  0  0
    2.5596   -1.9551    1.6294 H   0  0  0  0  0  0  0  0  0  0  0  0
    4.6259   -1.0855    2.6449 H   0  0  0  0  0  0  0  0  0  0  0  0
    5.3095   -2.0669    3.9102 H   0  0  0  0  0  0  0  0  0  0  0  0
    6.2663   -3.2123    2.4628 H   0  0  0  0  0  0  0  0  0  0  0  0
    5.5264   -0.7496    1.0594 H   0  0  0  0  0  0  0  0  0  0  0  0
    5.3067   -1.1742   -1.7111 H   0  0  0  0  0  0  0  0  0  0  0  0
    3.3967   -1.1931   -3.3007 H   0  0  0  0  0  0  0  0  0  0  0  0
    1.4747   -2.7261   -2.9156 H   0  0  0  0  0  0  0  0  0  0  0  0
    1.4145   -4.1465   -0.8973 H   0  0  0  0  0  0  0  0  0  0  0  0
    5.4139   -6.5288    0.9643 H   0  0  0  0  0  0  0  0  0  0  0  0
    4.1289   -5.8859   -0.7343 H   0  0  0  0  0  0  0  0  0  0  0  0
  1  2  1  0
  1 27  1  0
  2 17  1  0
  2  3  1  0
  2 28  1  1
  3 25  1  0
  3  4  1  0
  3 29  1  6
  4  5  1  0
  4 30  1  0
  4 31  1  0
  5  6  1  0
  5 32  1  0
  5 33  1  0
  7  6  1  1
  7 16  1  0
  7  8  1  0
  7 25  1  0
  8 24  1  0
  8  9  1  0
  8 34  1  6
  9 14  2  0
  9 10  1  0
 10 11  2  0
 10 35  1  0
 11 12  1  0
 11 36  1  0
 12 13  2  0
 12 37  1  0
 13 14  1  0
 13 15  1  0
 14 38  1  0
 15 16  1  0
 15 39  1  0
 15 40  1  0
 16 17  1  0
 16 41  1  1
 17 18  1  1
 17 19  1  0
 18 42  1  0
 19 24  2  0
 19 20  1  0
 20 21  2  0
 20 43  1  0
 21 22  1  0
 21 44  1  0
 22 23  2  0
 22 45  1  0
 23 24  1  0
 23 46  1  0
 25 26  1  0
 25 47  1  1
 26 48  1  0
M  END
>  <i_m_ct_stereo_status>  (133) 
1

>  <s_m_source_file>  (133) 
/var/tmp/pbs.5076255.sched01/tmpyrjfudeo/454urwji6r.sdf

>  <i_m_source_file_index>  (133) 
13

>  <i_lp_mmshare_version>  (133) 
48012

>  <i_f3d_flags>  (133) 
0

>  <s_epik_input>  (133) 
W2NIXTFbY0hdW2NIXVtjSF1jMmMxW0NAXShbT0hdKShbQ0BIXShbT0hdKVtDQEBIXShbQ0gyXVtDSDJdTzMpW0NAQEhdNFtPSF0pW0NIXTVbQ0gyXWMoW2NIXTYpW2NIXVtjSF1bY0hdYzZbQ0BASF0yW0NAQF0zNDU=

>  <s_epik_cmdline>  (133) 
J2VwaWtfcHl0aG9uJywgJy1waHQnLCAnMi4wJywgJy1waCcsICc3LjAnLCAnLXRuJywgJzgnLCAnLW1hJywgJzIwMCcsICctaW1hZScsICc8aW5maWxlLm1hZT4nLCAnLW9tYWUnLCAnPG91dGZpbGUubWFlPic=

>  <r_lp_tautomer_probability>  (133) 
1

>  <r_epik_Ionization_Penalty>  (133) 
1.82519e-07

>  <r_epik_Ionization_Penalty_Charging>  (133) 
0

>  <r_epik_Ionization_Penalty_Neutral>  (133) 
1.82519e-07

>  <r_epik_State_Penalty>  (133) 
-0

>  <r_epik_Charging_Adjusted_Penalty>  (133) 
0

>  <i_epik_Tot_Q>  (133) 
0

>  <i_epik_Tot_abs_Q>  (133) 
0

>  <s_lp_Force_Field>  (133) 
OPLS3e

>  <r_lp_Energy>  (133) 
172.163

>  <b_lp_Chiralities_Consistent>  (133) 
1

>  <s_lp_Variant>  (133) 
29:0-1

>  <s_i_glide_gridfile>  (133) 
pfpi4k_grid

>  <i_i_glide_lignum>  (133) 
13

>  <i_i_glide_rotatable_bonds>  (133) 
3

>  <r_i_docking_score>  (133) 
-2.99129

>  <r_i_glide_ligand_efficiency>  (133) 
-0.115049

>  <r_i_glide_ligand_efficiency_sa>  (133) 
-0.340834

>  <r_i_glide_ligand_efficiency_ln>  (133) 
-0.702494

>  <r_i_glide_gscore>  (133) 
-2.99129

>  <r_i_glide_lipo>  (133) 
-0.575844

>  <r_i_glide_hbond>  (133) 
0

>  <r_i_glide_metal>  (133) 
-0

>  <r_i_glide_rewards>  (133) 
-1.51995

>  <r_i_glide_evdw>  (133) 
-19.3892

>  <r_i_glide_ecoul>  (133) 
0.493104

>  <r_i_glide_erotb>  (133) 
0

>  <r_i_glide_esite>  (133) 
0

>  <r_i_glide_emodel>  (133) 
-26.0845

>  <r_i_glide_energy>  (133) 
-18.8961

>  <r_i_glide_einternal>  (133) 
1.01203

>  <r_i_glide_intrahb_reward>  (133) 
-0.5

>  <i_i_glide_confnum>  (133) 
2

>  <i_i_glide_posenum>  (133) 
16

>  <r_i_glide_eff_state_penalty>  (133) 
0

>  <ligand_id>  (133) 
29

>  <original_smiles>  (133) 
OC1C2CCOC3(C4c5cccc(c5)CC3C1(O)c1ccccc14)C2O

>  <smiles>  (133) 
[H]OC1([H])C2(O[H])c3c([H])c([H])c([H])c([H])c3C3([H])c4c([H])c([H])c([H])c(c4[H])C([H])([H])C2([H])C32OC([H])([H])C([H])([H])C1([H])C2([H])O[H]

$$$$
30:0:0
     RDKit          3D

 34 36  0  0  1  0  0  0  0  0999 V2000
    2.2390   -2.6692   -3.4945 C   0  0  0  0  0  0  0  0  0  0  0  0
    3.2642   -1.6662   -3.9607 C   0  0  0  0  0  0  0  0  0  0  0  0
    2.8956   -0.5854   -4.4602 O   0  0  0  0  0  0  0  0  0  0  0  0
    4.6375   -1.9719   -3.8338 O   0  0  0  0  0  0  0  0  0  0  0  0
    5.0700   -3.0038   -3.0307 C   0  0  0  0  0  0  0  0  0  0  0  0
    5.1189   -2.5789   -1.5544 C   0  0  1  0  0  0  0  0  0  0  0  0
    3.8254   -2.1691   -0.8595 C   0  0  0  0  0  0  0  0  0  0  0  0
    3.0214   -3.3993   -0.3695 C   0  0  0  0  0  0  0  0  0  0  0  0
    3.4829   -3.8760    1.0029 C   0  0  2  0  0  0  0  0  0  0  0  0
    4.8892   -4.4901    0.9882 C   0  0  0  0  0  0  0  0  0  0  0  0
    5.9973   -3.4324    0.7568 C   0  0  0  0  0  0  0  0  0  0  0  0
    6.2106   -3.1881   -0.7152 C   0  0  2  0  0  0  0  0  0  0  0  0
    6.3032   -1.8357   -1.1664 O   0  0  0  0  0  0  0  0  0  0  0  0
    2.5194   -4.6047    1.7926 O   0  0  0  0  0  0  0  0  0  0  0  0
    2.8732   -3.2779    2.2447 C   0  0  1  0  0  0  0  0  0  0  0  0
    3.6369   -3.1677    3.5443 C   0  0  0  0  0  0  0  0  0  0  0  0
    2.6939   -3.5927   -3.1019 H   0  0  0  0  0  0  0  0  0  0  0  0
    1.5550   -2.9999   -4.2870 H   0  0  0  0  0  0  0  0  0  0  0  0
    1.6341   -2.2173   -2.7068 H   0  0  0  0  0  0  0  0  0  0  0  0
    4.5178   -3.9421   -3.1961 H   0  0  0  0  0  0  0  0  0  0  0  0
    6.1012   -3.1549   -3.3689 H   0  0  0  0  0  0  0  0  0  0  0  0
    4.1022   -1.6058    0.0330 H   0  0  0  0  0  0  0  0  0  0  0  0
    3.1710   -1.5373   -1.5136 H   0  0  0  0  0  0  0  0  0  0  0  0
    1.9672   -3.1407   -0.2869 H   0  0  0  0  0  0  0  0  0  0  0  0
    3.0618   -4.2645   -1.0349 H   0  0  0  0  0  0  0  0  0  0  0  0
    5.0707   -4.9509    1.9671 H   0  0  0  0  0  0  0  0  0  0  0  0
    4.9352   -5.2892    0.2630 H   0  0  0  0  0  0  0  0  0  0  0  0
    5.7359   -2.4846    1.2410 H   0  0  0  0  0  0  0  0  0  0  0  0
    6.9297   -3.7550    1.1984 H   0  0  0  0  0  0  0  0  0  0  0  0
    6.9347   -3.8703   -1.2021 H   0  0  0  0  0  0  0  0  0  0  0  0
    2.0954   -2.5209    2.0995 H   0  0  0  0  0  0  0  0  0  0  0  0
    4.2636   -2.2795    3.5092 H   0  0  0  0  0  0  0  0  0  0  0  0
    4.2814   -4.0352    3.7066 H   0  0  0  0  0  0  0  0  0  0  0  0
    2.9557   -3.0832    4.3909 H   0  0  0  0  0  0  0  0  0  0  0  0
  1  2  1  0
  1 17  1  0
  1 18  1  0
  1 19  1  0
  2  3  2  0
  2  4  1  0
  4  5  1  0
  6  5  1  6
  5 20  1  0
  5 21  1  0
  6 12  1  0
  6 13  1  0
  6  7  1  0
  7  8  1  0
  7 22  1  0
  7 23  1  0
  8  9  1  0
  8 24  1  0
  8 25  1  0
  9 15  1  0
  9 10  1  0
  9 14  1  6
 10 11  1  0
 10 26  1  0
 10 27  1  0
 11 12  1  0
 11 28  1  0
 11 29  1  0
 12 13  1  0
 12 30  1  6
 14 15  1  0
 15 16  1  0
 15 31  1  6
 16 32  1  0
 16 33  1  0
 16 34  1  0
M  END
>  <i_m_ct_stereo_status>  (134) 
1

>  <s_m_source_file>  (134) 
/var/tmp/pbs.5076255.sched01/tmpyrjfudeo/454urwji6r.sdf

>  <i_m_source_file_index>  (134) 
14

>  <i_lp_mmshare_version>  (134) 
48012

>  <i_f3d_flags>  (134) 
0

>  <s_epik_input>  (134) 
W0NIM11DKD1PKU9bQ0gyXVtDQF0xKFtDQEBIXShPMSlbQ0gyXVtDSDJdMilbQ0gyXVtDSDJdW0NAQF0yM09bQ0BIXTNbQ0gzXQ==

>  <s_epik_cmdline>  (134) 
J2VwaWtfcHl0aG9uJywgJy1waHQnLCAnMi4wJywgJy1waCcsICc3LjAnLCAnLXRuJywgJzgnLCAnLW1hJywgJzIwMCcsICctaW1hZScsICc8aW5maWxlLm1hZT4nLCAnLW9tYWUnLCAnPG91dGZpbGUubWFlPic=

>  <r_lp_tautomer_probability>  (134) 
1

>  <r_epik_Ionization_Penalty>  (134) 
2.14672e-11

>  <r_epik_Ionization_Penalty_Charging>  (134) 
0

>  <r_epik_Ionization_Penalty_Neutral>  (134) 
2.14672e-11

>  <r_epik_State_Penalty>  (134) 
-0

>  <r_epik_Charging_Adjusted_Penalty>  (134) 
0

>  <i_epik_Tot_Q>  (134) 
0

>  <i_epik_Tot_abs_Q>  (134) 
0

>  <s_epik_Chemistry_Notes>  (134) 
This compound has an ester and may undergo hydrolysis at high or low pH.

>  <s_lp_Force_Field>  (134) 
OPLS3e

>  <r_lp_Energy>  (134) 
17.4594

>  <b_lp_Chiralities_Consistent>  (134) 
1

>  <s_lp_Variant>  (134) 
30:0-1

>  <s_i_glide_gridfile>  (134) 
pfpi4k_grid

>  <i_i_glide_lignum>  (134) 
14

>  <i_i_glide_rotatable_bonds>  (134) 
3

>  <r_i_docking_score>  (134) 
-3.80585

>  <r_i_glide_ligand_efficiency>  (134) 
-0.237865

>  <r_i_glide_ligand_efficiency_sa>  (134) 
-0.599383

>  <r_i_glide_ligand_efficiency_ln>  (134) 
-1.00882

>  <r_i_glide_gscore>  (134) 
-3.80585

>  <r_i_glide_lipo>  (134) 
-0.628184

>  <r_i_glide_hbond>  (134) 
-0.188831

>  <r_i_glide_metal>  (134) 
-0

>  <r_i_glide_rewards>  (134) 
-1.98026

>  <r_i_glide_evdw>  (134) 
-22.1192

>  <r_i_glide_ecoul>  (134) 
-3.77561

>  <r_i_glide_erotb>  (134) 
0.663736

>  <r_i_glide_esite>  (134) 
0

>  <r_i_glide_emodel>  (134) 
-27.9727

>  <r_i_glide_energy>  (134) 
-25.8948

>  <r_i_glide_einternal>  (134) 
5.86183

>  <r_i_glide_intrahb_reward>  (134) 
-0

>  <i_i_glide_confnum>  (134) 
6

>  <i_i_glide_posenum>  (134) 
19

>  <r_i_glide_eff_state_penalty>  (134) 
0

>  <ligand_id>  (134) 
30

>  <original_smiles>  (134) 
CC(=O)OCC12CCC3(CCC1O2)OC3C

>  <smiles>  (134) 
[H]C([H])([H])C(=O)OC([H])([H])C12OC1([H])C([H])([H])C([H])([H])C1(OC1([H])C([H])([H])[H])C([H])([H])C2([H])[H]

$$$$
30:0:1
     RDKit          3D

 34 36  0  0  1  0  0  0  0  0999 V2000
    3.0283   -0.1519   -4.6156 C   0  0  0  0  0  0  0  0  0  0  0  0
    3.3061   -1.5206   -4.0108 C   0  0  0  0  0  0  0  0  0  0  0  0
    2.3969   -2.3345   -3.7916 O   0  0  0  0  0  0  0  0  0  0  0  0
    4.5923   -1.7140   -3.7215 O   0  0  0  0  0  0  0  0  0  0  0  0
    5.0048   -2.8689   -3.0083 C   0  0  0  0  0  0  0  0  0  0  0  0
    5.0850   -2.5637   -1.5186 C   0  0  1  0  0  0  0  0  0  0  0  0
    3.7640   -2.2057   -0.8289 C   0  0  0  0  0  0  0  0  0  0  0  0
    2.9895   -3.4599   -0.3803 C   0  0  0  0  0  0  0  0  0  0  0  0
    3.4628   -4.0121    0.9582 C   0  0  2  0  0  0  0  0  0  0  0  0
    4.8666   -4.6179    0.9229 C   0  0  0  0  0  0  0  0  0  0  0  0
    5.9661   -3.5565    0.7391 C   0  0  0  0  0  0  0  0  0  0  0  0
    6.1756   -3.2134   -0.7188 C   0  0  2  0  0  0  0  0  0  0  0  0
    6.2393   -1.8310   -1.0811 O   0  0  0  0  0  0  0  0  0  0  0  0
    2.5052   -4.7752    1.7076 O   0  0  0  0  0  0  0  0  0  0  0  0
    2.8618   -3.4830    2.2347 C   0  0  1  0  0  0  0  0  0  0  0  0
    3.6135   -3.4790    3.5455 C   0  0  0  0  0  0  0  0  0  0  0  0
    3.9560    0.3889   -4.8212 H   0  0  0  0  0  0  0  0  0  0  0  0
    2.4379    0.4446   -3.9190 H   0  0  0  0  0  0  0  0  0  0  0  0
    2.4626   -0.2286   -5.5442 H   0  0  0  0  0  0  0  0  0  0  0  0
    4.3705   -3.7392   -3.2019 H   0  0  0  0  0  0  0  0  0  0  0  0
    6.0072   -3.1319   -3.3556 H   0  0  0  0  0  0  0  0  0  0  0  0
    3.9929   -1.6082    0.0621 H   0  0  0  0  0  0  0  0  0  0  0  0
    3.1268   -1.6011   -1.4830 H   0  0  0  0  0  0  0  0  0  0  0  0
    1.9339   -3.1983   -0.2857 H   0  0  0  0  0  0  0  0  0  0  0  0
    3.0285   -4.2505   -1.1302 H   0  0  0  0  0  0  0  0  0  0  0  0
    5.0387   -5.1528    1.8568 H   0  0  0  0  0  0  0  0  0  0  0  0
    4.9129   -5.3627    0.1224 H   0  0  0  0  0  0  0  0  0  0  0  0
    5.7185   -2.6515    1.2965 H   0  0  0  0  0  0  0  0  0  0  0  0
    6.9077   -3.9118    1.1580 H   0  0  0  0  0  0  0  0  0  0  0  0
    6.8965   -3.8514   -1.2403 H   0  0  0  0  0  0  0  0  0  0  0  0
    2.0837   -2.7172    2.1413 H   0  0  0  0  0  0  0  0  0  0  0  0
    4.2419   -2.5938    3.5941 H   0  0  0  0  0  0  0  0  0  0  0  0
    4.2509   -4.3599    3.6560 H   0  0  0  0  0  0  0  0  0  0  0  0
    2.9248   -3.4365    4.3871 H   0  0  0  0  0  0  0  0  0  0  0  0
  1  2  1  0
  1 17  1  0
  1 18  1  0
  1 19  1  0
  2  3  2  0
  2  4  1  0
  4  5  1  0
  6  5  1  6
  5 20  1  0
  5 21  1  0
  6 12  1  0
  6 13  1  0
  6  7  1  0
  7  8  1  0
  7 22  1  0
  7 23  1  0
  8  9  1  0
  8 24  1  0
  8 25  1  0
  9 15  1  0
  9 10  1  0
  9 14  1  6
 10 11  1  0
 10 26  1  0
 10 27  1  0
 11 12  1  0
 11 28  1  0
 11 29  1  0
 12 13  1  0
 12 30  1  6
 14 15  1  0
 15 16  1  0
 15 31  1  6
 16 32  1  0
 16 33  1  0
 16 34  1  0
M  END
>  <i_m_ct_stereo_status>  (135) 
1

>  <s_m_source_file>  (135) 
/var/tmp/pbs.5076255.sched01/tmpyrjfudeo/454urwji6r.sdf

>  <i_m_source_file_index>  (135) 
14

>  <i_lp_mmshare_version>  (135) 
48012

>  <i_f3d_flags>  (135) 
0

>  <s_epik_input>  (135) 
W0NIM11DKD1PKU9bQ0gyXVtDQF0xKFtDQEBIXShPMSlbQ0gyXVtDSDJdMilbQ0gyXVtDSDJdW0NAQF0yM09bQ0BIXTNbQ0gzXQ==

>  <s_epik_cmdline>  (135) 
J2VwaWtfcHl0aG9uJywgJy1waHQnLCAnMi4wJywgJy1waCcsICc3LjAnLCAnLXRuJywgJzgnLCAnLW1hJywgJzIwMCcsICctaW1hZScsICc8aW5maWxlLm1hZT4nLCAnLW9tYWUnLCAnPG91dGZpbGUubWFlPic=

>  <r_lp_tautomer_probability>  (135) 
1

>  <r_epik_Ionization_Penalty>  (135) 
2.14672e-11

>  <r_epik_Ionization_Penalty_Charging>  (135) 
0

>  <r_epik_Ionization_Penalty_Neutral>  (135) 
2.14672e-11

>  <r_epik_State_Penalty>  (135) 
-0

>  <r_epik_Charging_Adjusted_Penalty>  (135) 
0

>  <i_epik_Tot_Q>  (135) 
0

>  <i_epik_Tot_abs_Q>  (135) 
0

>  <s_epik_Chemistry_Notes>  (135) 
This compound has an ester and may undergo hydrolysis at high or low pH.

>  <s_lp_Force_Field>  (135) 
OPLS3e

>  <r_lp_Energy>  (135) 
17.4594

>  <b_lp_Chiralities_Consistent>  (135) 
1

>  <s_lp_Variant>  (135) 
30:0-1

>  <s_i_glide_gridfile>  (135) 
pfpi4k_grid

>  <i_i_glide_lignum>  (135) 
14

>  <i_i_glide_rotatable_bonds>  (135) 
3

>  <r_i_docking_score>  (135) 
-3.43969

>  <r_i_glide_ligand_efficiency>  (135) 
-0.21498

>  <r_i_glide_ligand_efficiency_sa>  (135) 
-0.541717

>  <r_i_glide_ligand_efficiency_ln>  (135) 
-0.911758

>  <r_i_glide_gscore>  (135) 
-3.43969

>  <r_i_glide_lipo>  (135) 
-0.585608

>  <r_i_glide_hbond>  (135) 
-0.144812

>  <r_i_glide_metal>  (135) 
-0

>  <r_i_glide_rewards>  (135) 
-1.95017

>  <r_i_glide_evdw>  (135) 
-23.0846

>  <r_i_glide_ecoul>  (135) 
-1.79072

>  <r_i_glide_erotb>  (135) 
0.663736

>  <r_i_glide_esite>  (135) 
0

>  <r_i_glide_emodel>  (135) 
-30.196

>  <r_i_glide_energy>  (135) 
-24.8753

>  <r_i_glide_einternal>  (135) 
0.225506

>  <r_i_glide_intrahb_reward>  (135) 
-0

>  <i_i_glide_confnum>  (135) 
1

>  <i_i_glide_posenum>  (135) 
8

>  <r_i_glide_eff_state_penalty>  (135) 
0

>  <ligand_id>  (135) 
30

>  <original_smiles>  (135) 
CC(=O)OCC12CCC3(CCC1O2)OC3C

>  <smiles>  (135) 
[H]C([H])([H])C(=O)OC([H])([H])C12OC1([H])C([H])([H])C([H])([H])C1(OC1([H])C([H])([H])[H])C([H])([H])C2([H])[H]

$$$$
30:0:2
     RDKit          3D

 34 36  0  0  1  0  0  0  0  0999 V2000
    3.7528   -5.3640    2.0902 C   0  0  0  0  0  0  0  0  0  0  0  0
    4.9237   -5.2462    1.1256 C   0  0  0  0  0  0  0  0  0  0  0  0
    5.0225   -5.9897    0.1541 O   0  0  0  0  0  0  0  0  0  0  0  0
    5.7868   -4.2753    1.4711 O   0  0  0  0  0  0  0  0  0  0  0  0
    6.8604   -3.9192    0.6069 C   0  0  0  0  0  0  0  0  0  0  0  0
    6.4685   -2.7460   -0.2821 C   0  0  1  0  0  0  0  0  0  0  0  0
    6.4624   -3.0510   -1.7684 C   0  0  0  0  0  0  0  0  0  0  0  0
    5.0958   -3.5611   -2.2822 C   0  0  0  0  0  0  0  0  0  0  0  0
    4.0715   -2.4563   -2.4960 C   0  0  2  0  0  0  0  0  0  0  0  0
    3.6134   -1.7913   -1.2111 C   0  0  0  0  0  0  0  0  0  0  0  0
    4.6797   -0.8776   -0.6023 C   0  0  0  0  0  0  0  0  0  0  0  0
    5.6221   -1.6398    0.2890 C   0  0  2  0  0  0  0  0  0  0  0  0
    7.0275   -1.4728    0.0761 O   0  0  0  0  0  0  0  0  0  0  0  0
    3.0038   -2.7847   -3.3902 O   0  0  0  0  0  0  0  0  0  0  0  0
    3.9345   -1.7904   -3.8340 C   0  0  1  0  0  0  0  0  0  0  0  0
    3.4025   -0.3871   -4.0027 C   0  0  0  0  0  0  0  0  0  0  0  0
    3.8381   -4.6560    2.9153 H   0  0  0  0  0  0  0  0  0  0  0  0
    3.7213   -6.3742    2.4959 H   0  0  0  0  0  0  0  0  0  0  0  0
    2.8164   -5.1729    1.5672 H   0  0  0  0  0  0  0  0  0  0  0  0
    7.7025   -3.6080    1.2257 H   0  0  0  0  0  0  0  0  0  0  0  0
    7.2024   -4.7676    0.0113 H   0  0  0  0  0  0  0  0  0  0  0  0
    6.7460   -2.1490   -2.3148 H   0  0  0  0  0  0  0  0  0  0  0  0
    7.2493   -3.7737   -1.9841 H   0  0  0  0  0  0  0  0  0  0  0  0
    5.2464   -4.0717   -3.2374 H   0  0  0  0  0  0  0  0  0  0  0  0
    4.6619   -4.3050   -1.6115 H   0  0  0  0  0  0  0  0  0  0  0  0
    2.7447   -1.1838   -1.4457 H   0  0  0  0  0  0  0  0  0  0  0  0
    3.2734   -2.5385   -0.4941 H   0  0  0  0  0  0  0  0  0  0  0  0
    5.2316   -0.3667   -1.3919 H   0  0  0  0  0  0  0  0  0  0  0  0
    4.2154   -0.0942   -0.0023 H   0  0  0  0  0  0  0  0  0  0  0  0
    5.3200   -1.7144    1.3275 H   0  0  0  0  0  0  0  0  0  0  0  0
    4.6167   -2.1218   -4.6084 H   0  0  0  0  0  0  0  0  0  0  0  0
    4.2007    0.3265   -3.8230 H   0  0  0  0  0  0  0  0  0  0  0  0
    2.6027   -0.1690   -3.2983 H   0  0  0  0  0  0  0  0  0  0  0  0
    3.0269   -0.2344   -5.0120 H   0  0  0  0  0  0  0  0  0  0  0  0
  1  2  1  0
  1 17  1  0
  1 18  1  0
  1 19  1  0
  2  3  2  0
  2  4  1  0
  4  5  1  0
  6  5  1  1
  5 20  1  0
  5 21  1  0
  6 12  1  0
  6 13  1  0
  6  7  1  0
  7  8  1  0
  7 22  1  0
  7 23  1  0
  8  9  1  0
  8 24  1  0
  8 25  1  0
  9 15  1  0
  9 10  1  0
  9 14  1  6
 10 11  1  0
 10 26  1  0
 10 27  1  0
 11 12  1  0
 11 28  1  0
 11 29  1  0
 12 13  1  0
 12 30  1  1
 14 15  1  0
 15 16  1  0
 15 31  1  6
 16 32  1  0
 16 33  1  0
 16 34  1  0
M  END
>  <i_m_ct_stereo_status>  (136) 
1

>  <s_m_source_file>  (136) 
/var/tmp/pbs.5076255.sched01/tmpyrjfudeo/454urwji6r.sdf

>  <i_m_source_file_index>  (136) 
14

>  <i_lp_mmshare_version>  (136) 
48012

>  <i_f3d_flags>  (136) 
0

>  <s_epik_input>  (136) 
W0NIM11DKD1PKU9bQ0gyXVtDQF0xKFtDQEBIXShPMSlbQ0gyXVtDSDJdMilbQ0gyXVtDSDJdW0NAQF0yM09bQ0BIXTNbQ0gzXQ==

>  <s_epik_cmdline>  (136) 
J2VwaWtfcHl0aG9uJywgJy1waHQnLCAnMi4wJywgJy1waCcsICc3LjAnLCAnLXRuJywgJzgnLCAnLW1hJywgJzIwMCcsICctaW1hZScsICc8aW5maWxlLm1hZT4nLCAnLW9tYWUnLCAnPG91dGZpbGUubWFlPic=

>  <r_lp_tautomer_probability>  (136) 
1

>  <r_epik_Ionization_Penalty>  (136) 
2.14672e-11

>  <r_epik_Ionization_Penalty_Charging>  (136) 
0

>  <r_epik_Ionization_Penalty_Neutral>  (136) 
2.14672e-11

>  <r_epik_State_Penalty>  (136) 
-0

>  <r_epik_Charging_Adjusted_Penalty>  (136) 
0

>  <i_epik_Tot_Q>  (136) 
0

>  <i_epik_Tot_abs_Q>  (136) 
0

>  <s_epik_Chemistry_Notes>  (136) 
This compound has an ester and may undergo hydrolysis at high or low pH.

>  <s_lp_Force_Field>  (136) 
OPLS3e

>  <r_lp_Energy>  (136) 
17.4594

>  <b_lp_Chiralities_Consistent>  (136) 
1

>  <s_lp_Variant>  (136) 
30:0-1

>  <s_i_glide_gridfile>  (136) 
pfpi4k_grid

>  <i_i_glide_lignum>  (136) 
14

>  <i_i_glide_rotatable_bonds>  (136) 
3

>  <r_i_docking_score>  (136) 
-3.2753

>  <r_i_glide_ligand_efficiency>  (136) 
-0.204706

>  <r_i_glide_ligand_efficiency_sa>  (136) 
-0.515827

>  <r_i_glide_ligand_efficiency_ln>  (136) 
-0.868183

>  <r_i_glide_gscore>  (136) 
-3.2753

>  <r_i_glide_lipo>  (136) 
-0.809544

>  <r_i_glide_hbond>  (136) 
-0.0909002

>  <r_i_glide_metal>  (136) 
-0

>  <r_i_glide_rewards>  (136) 
-1.93789

>  <r_i_glide_evdw>  (136) 
-24.4637

>  <r_i_glide_ecoul>  (136) 
0.816571

>  <r_i_glide_erotb>  (136) 
0.663736

>  <r_i_glide_esite>  (136) 
0

>  <r_i_glide_emodel>  (136) 
-28.9712

>  <r_i_glide_energy>  (136) 
-23.6471

>  <r_i_glide_einternal>  (136) 
0.683238

>  <r_i_glide_intrahb_reward>  (136) 
-0

>  <i_i_glide_confnum>  (136) 
5

>  <i_i_glide_posenum>  (136) 
9

>  <r_i_glide_eff_state_penalty>  (136) 
0

>  <ligand_id>  (136) 
30

>  <original_smiles>  (136) 
CC(=O)OCC12CCC3(CCC1O2)OC3C

>  <smiles>  (136) 
[H]C([H])([H])C(=O)OC([H])([H])C12OC1([H])C([H])([H])C([H])([H])C1(OC1([H])C([H])([H])[H])C([H])([H])C2([H])[H]

$$$$
31:0:0
     RDKit          3D

 74 79  0  0  1  0  0  0  0  0999 V2000
    6.8306   -1.1641    0.3346 C   0  0  0  0  0  0  0  0  0  0  0  0
    5.5874   -1.5397   -0.2466 O   0  0  0  0  0  0  0  0  0  0  0  0
    4.4421   -1.2125    0.4953 C   0  0  2  0  0  0  0  0  0  0  0  0
    4.5511    0.0331    1.0962 O   0  0  0  0  0  0  0  0  0  0  0  0
    3.6213    0.1261    2.1185 C   0  0  1  0  0  0  0  0  0  0  0  0
    2.4248    0.6508    1.6495 O   0  0  0  0  0  0  0  0  0  0  0  0
    1.7035    1.5184    2.4372 C   0  0  0  0  0  0  0  0  0  0  0  0
    2.4899    2.1603    3.5828 C   0  0  0  0  0  0  0  0  0  0  0  0
    0.5434    1.7565    2.2452 O   0  0  0  0  0  0  0  0  0  0  0  0
    3.4498   -1.3251    2.7245 C   0  0  1  0  0  0  0  0  0  0  0  0
    4.1688   -1.3959    4.1226 C   0  0  1  0  0  0  0  0  0  0  0  0
    5.5206   -0.6573    4.2554 C   0  0  0  0  0  0  0  0  0  0  0  0
    3.3047   -1.0767    5.3852 C   0  0  0  0  0  0  0  0  0  0  0  0
    1.7781   -1.3597    5.3764 C   0  0  1  0  0  0  0  0  0  0  0  0
    1.1065   -1.2373    4.0356 C   0  0  0  0  0  0  0  0  0  0  0  0
   -0.3072   -0.6617    4.2134 C   0  0  0  0  0  0  0  0  0  0  0  0
   -1.0460   -1.4130    5.3665 C   0  0  0  0  0  0  0  0  0  0  0  0
   -2.2168   -1.1746    5.6115 O   0  0  0  0  0  0  0  0  0  0  0  0
   -0.3027   -2.3669    6.1020 O   0  0  0  0  0  0  0  0  0  0  0  0
    1.1246   -2.6284    5.9616 C   0  0  1  0  0  0  0  0  0  0  0  0
    1.4181   -3.9554    5.1832 C   0  0  2  0  0  0  0  0  0  0  0  0
    2.8964   -4.1656    5.1415 C   0  0  1  0  0  0  0  0  0  0  0  0
    3.2660   -5.4448    5.6283 O   0  0  0  0  0  0  0  0  0  0  0  0
    3.3434   -5.6588    6.9496 C   0  0  0  0  0  0  0  0  0  0  0  0
    3.8754   -7.0445    7.2834 C   0  0  0  0  0  0  0  0  0  0  0  0
    3.0406   -4.8489    7.8298 O   0  0  0  0  0  0  0  0  0  0  0  0
    2.1646   -4.1276    3.8005 C   0  0  2  0  0  0  0  0  0  0  0  0
    1.8401   -3.1529    2.8080 O   0  0  0  0  0  0  0  0  0  0  0  0
    1.9353   -1.7294    2.8279 C   0  0  2  0  0  0  0  0  0  0  0  0
    2.5994   -5.2759    2.8962 C   0  0  1  0  0  0  0  0  0  0  0  0
    1.5291   -5.6768    2.0458 O   0  0  0  0  0  0  0  0  0  0  0  0
    0.6320   -6.6447    2.3771 C   0  0  0  0  0  0  0  0  0  0  0  0
    0.9765   -7.4633    3.6274 C   0  0  0  0  0  0  0  0  0  0  0  0
   -0.3852   -6.8409    1.7462 O   0  0  0  0  0  0  0  0  0  0  0  0
    3.8796   -4.8531    2.1040 C   0  0  0  0  0  0  0  0  0  0  0  0
    3.8840   -3.6457    1.1068 C   0  0  1  0  0  0  0  0  0  0  0  0
    2.7689   -3.7292    0.0407 C   0  0  0  0  0  0  0  0  0  0  0  0
    4.2430   -2.1998    1.6545 C   0  0  1  0  0  0  0  0  0  0  0  0
    7.6454   -1.4730   -0.3197 H   0  0  0  0  0  0  0  0  0  0  0  0
    7.0055   -1.6153    1.3093 H   0  0  0  0  0  0  0  0  0  0  0  0
    6.8892   -0.0824    0.4374 H   0  0  0  0  0  0  0  0  0  0  0  0
    3.5744   -1.1608   -0.1702 H   0  0  0  0  0  0  0  0  0  0  0  0
    4.1015    0.8269    2.8068 H   0  0  0  0  0  0  0  0  0  0  0  0
    3.3243    2.7432    3.2159 H   0  0  0  0  0  0  0  0  0  0  0  0
    2.8356    1.4118    4.2745 H   0  0  0  0  0  0  0  0  0  0  0  0
    1.8324    2.8475    4.1557 H   0  0  0  0  0  0  0  0  0  0  0  0
    4.4933   -2.4266    4.1839 H   0  0  0  0  0  0  0  0  0  0  0  0
    5.4025    0.4198    4.3795 H   0  0  0  0  0  0  0  0  0  0  0  0
    6.1849   -0.8203    3.4044 H   0  0  0  0  0  0  0  0  0  0  0  0
    6.0355   -0.9993    5.1537 H   0  0  0  0  0  0  0  0  0  0  0  0
    3.7511   -1.5247    6.2681 H   0  0  0  0  0  0  0  0  0  0  0  0
    3.4300   -0.0157    5.5949 H   0  0  0  0  0  0  0  0  0  0  0  0
    1.4164   -0.5480    6.0091 H   0  0  0  0  0  0  0  0  0  0  0  0
    0.4953   -2.1094    3.8470 H   0  0  0  0  0  0  0  0  0  0  0  0
   -0.2726    0.3981    4.4749 H   0  0  0  0  0  0  0  0  0  0  0  0
   -0.8938   -0.7260    3.2898 H   0  0  0  0  0  0  0  0  0  0  0  0
    1.5016   -2.7634    6.9766 H   0  0  0  0  0  0  0  0  0  0  0  0
    0.7984   -4.7827    5.5052 H   0  0  0  0  0  0  0  0  0  0  0  0
    3.5598   -3.4197    5.5351 H   0  0  0  0  0  0  0  0  0  0  0  0
    4.8833   -7.1720    6.8851 H   0  0  0  0  0  0  0  0  0  0  0  0
    3.2329   -7.8122    6.8515 H   0  0  0  0  0  0  0  0  0  0  0  0
    3.9123   -7.1871    8.3624 H   0  0  0  0  0  0  0  0  0  0  0  0
    1.4004   -1.4663    1.9111 H   0  0  0  0  0  0  0  0  0  0  0  0
    2.9265   -6.1219    3.4823 H   0  0  0  0  0  0  0  0  0  0  0  0
    1.9046   -8.0131    3.4815 H   0  0  0  0  0  0  0  0  0  0  0  0
    0.1915   -8.1895    3.8503 H   0  0  0  0  0  0  0  0  0  0  0  0
    1.0805   -6.8164    4.4938 H   0  0  0  0  0  0  0  0  0  0  0  0
    4.6748   -4.6927    2.8302 H   0  0  0  0  0  0  0  0  0  0  0  0
    4.1890   -5.7408    1.5526 H   0  0  0  0  0  0  0  0  0  0  0  0
    4.7766   -3.8724    0.5177 H   0  0  0  0  0  0  0  0  0  0  0  0
    1.8175   -3.3413    0.3936 H   0  0  0  0  0  0  0  0  0  0  0  0
    2.6158   -4.7613   -0.2799 H   0  0  0  0  0  0  0  0  0  0  0  0
    3.0302   -3.1720   -0.8583 H   0  0  0  0  0  0  0  0  0  0  0  0
    5.2148   -2.3576    2.1068 H   0  0  0  0  0  0  0  0  0  0  0  0
  1  2  1  0
  1 39  1  0
  1 40  1  0
  1 41  1  0
  2  3  1  0
  3 38  1  0
  3  4  1  0
  3 42  1  6
  4  5  1  0
  5  6  1  0
 10  5  1  6
  5 43  1  1
  6  7  1  0
  7  8  1  0
  7  9  2  0
  8 44  1  0
  8 45  1  0
  8 46  1  0
 10 29  1  0
 10 38  1  0
 10 11  1  0
 11 12  1  0
 11 13  1  0
 11 47  1  1
 12 48  1  0
 12 49  1  0
 12 50  1  0
 13 14  1  0
 13 51  1  0
 13 52  1  0
 14 20  1  0
 14 15  1  0
 14 53  1  1
 15 29  1  0
 15 16  1  0
 15 54  1  0
 16 17  1  0
 16 55  1  0
 16 56  1  0
 17 18  2  0
 17 19  1  0
 19 20  1  0
 20 21  1  0
 20 57  1  1
 21 27  1  0
 21 22  1  0
 21 58  1  1
 22 23  1  0
 22 27  1  0
 22 59  1  6
 23 24  1  0
 24 25  1  0
 24 26  2  0
 25 60  1  0
 25 61  1  0
 25 62  1  0
 27 28  1  6
 27 30  1  0
 28 29  1  0
 29 63  1  6
 30 31  1  0
 30 35  1  0
 30 64  1  1
 31 32  1  0
 32 33  1  0
 32 34  2  0
 33 65  1  0
 33 66  1  0
 33 67  1  0
 35 36  1  0
 35 68  1  0
 35 69  1  0
 36 37  1  0
 36 38  1  0
 36 70  1  6
 37 71  1  0
 37 72  1  0
 37 73  1  0
 38 74  1  1
M  END
>  <i_m_ct_stereo_status>  (137) 
1

>  <s_m_source_file>  (137) 
/var/tmp/pbs.5076255.sched01/tmpyrjfudeo/454urwji6r.sdf

>  <i_m_source_file_index>  (137) 
15

>  <i_lp_mmshare_version>  (137) 
48012

>  <i_f3d_flags>  (137) 
0

>  <s_epik_input>  (137) 
W0NIM11DKD1PKU9bQ0BASF0xT1tDQEBIXShPW0NIM10pW0NAQEhdMltDQEhdKFtDSDNdKVtDSDJdW0NASF0oT0MoPU8pW0NIM10pW0NAXShPMykoW0NAQEhdNE9DKD1PKVtDSDNdKVtDQEBIXTRbQ0hdKE9DKD1PKVtDSDJdNSlbQ0BIXShbQ0BASF01W0NASF0zW0NAXTEyNilbQ0gyXVtDQEBIXTZbQ0gzXQ==

>  <s_epik_cmdline>  (137) 
J2VwaWtfcHl0aG9uJywgJy1waHQnLCAnMi4wJywgJy1waCcsICc3LjAnLCAnLXRuJywgJzgnLCAnLW1hJywgJzIwMCcsICctaW1hZScsICc8aW5maWxlLm1hZT4nLCAnLW9tYWUnLCAnPG91dGZpbGUubWFlPic=

>  <r_lp_tautomer_probability>  (137) 
1

>  <r_epik_Ionization_Penalty>  (137) 
6.0988e-10

>  <r_epik_Ionization_Penalty_Charging>  (137) 
0

>  <r_epik_Ionization_Penalty_Neutral>  (137) 
6.0988e-10

>  <r_epik_State_Penalty>  (137) 
-0

>  <r_epik_Charging_Adjusted_Penalty>  (137) 
0

>  <i_epik_Tot_Q>  (137) 
0

>  <i_epik_Tot_abs_Q>  (137) 
0

>  <s_epik_Chemistry_Notes>  (137) 
This compound has an ester and may undergo hydrolysis at high or low pH. This compound contains an acetal/aminal-like group ( X-CH(R)-Y where X, Y are N, S, or O) that may be acid/base labile, releasing an aldehyde.

>  <s_lp_Force_Field>  (137) 
OPLS3e

>  <r_lp_Energy>  (137) 
146.385

>  <b_lp_Chiralities_Consistent>  (137) 
1

>  <s_lp_Variant>  (137) 
31:0-1

>  <s_i_glide_gridfile>  (137) 
pfpi4k_grid

>  <i_i_glide_lignum>  (137) 
15

>  <i_i_glide_rotatable_bonds>  (137) 
7

>  <r_i_docking_score>  (137) 
-2.30137

>  <r_i_glide_ligand_efficiency>  (137) 
-0.0605624

>  <r_i_glide_ligand_efficiency_sa>  (137) 
-0.203609

>  <r_i_glide_ligand_efficiency_ln>  (137) 
-0.496243

>  <r_i_glide_gscore>  (137) 
-2.30137

>  <r_i_glide_lipo>  (137) 
-0.0804456

>  <r_i_glide_hbond>  (137) 
-0.226276

>  <r_i_glide_metal>  (137) 
-0

>  <r_i_glide_rewards>  (137) 
-0.0344701

>  <r_i_glide_evdw>  (137) 
-27.8277

>  <r_i_glide_ecoul>  (137) 
-4.4654

>  <r_i_glide_erotb>  (137) 
0.215188

>  <r_i_glide_esite>  (137) 
-0.114174

>  <r_i_glide_emodel>  (137) 
-26.5082

>  <r_i_glide_energy>  (137) 
-32.2931

>  <r_i_glide_einternal>  (137) 
21.3039

>  <r_i_glide_intrahb_reward>  (137) 
-0

>  <i_i_glide_confnum>  (137) 
2

>  <i_i_glide_posenum>  (137) 
1

>  <r_i_glide_eff_state_penalty>  (137) 
0

>  <ligand_id>  (137) 
31

>  <original_smiles>  (137) 
COC1OC(OC(C)=O)C23C(C)CC4C5CC(=O)OC4C4C(OC(C)=O)C4(OC52)C(OC(C)=O)CC(C)C13

>  <smiles>  (137) 
[H]C([H])([H])OC1([H])OC([H])(OC(=O)C([H])([H])[H])C23C4([H])OC5(C([H])(OC(=O)C([H])([H])[H])C([H])([H])C([H])(C([H])([H])[H])C12[H])C([H])(OC(=O)C([H])([H])[H])C5([H])C1([H])OC(=O)C([H])([H])C4([H])C1([H])C([H])([H])C3([H])C([H])([H])[H]

$$$$
31:0:1
     RDKit          3D

 74 79  0  0  1  0  0  0  0  0999 V2000
    2.3365   -0.8957    7.1365 C   0  0  0  0  0  0  0  0  0  0  0  0
    2.9268   -1.9439    6.3833 O   0  0  0  0  0  0  0  0  0  0  0  0
    2.0286   -2.9521    6.0422 C   0  0  2  0  0  0  0  0  0  0  0  0
    1.6312   -3.6954    7.1418 O   0  0  0  0  0  0  0  0  0  0  0  0
    1.0855   -4.8932    6.6864 C   0  0  1  0  0  0  0  0  0  0  0  0
   -0.2851   -4.7639    6.4064 O   0  0  0  0  0  0  0  0  0  0  0  0
   -1.1023   -4.6559    7.4799 C   0  0  0  0  0  0  0  0  0  0  0  0
   -2.5689   -4.5887    7.0753 C   0  0  0  0  0  0  0  0  0  0  0  0
   -0.7756   -4.6522    8.6630 O   0  0  0  0  0  0  0  0  0  0  0  0
    1.9142   -5.2928    5.4098 C   0  0  1  0  0  0  0  0  0  0  0  0
    2.8934   -6.4638    5.7867 C   0  0  1  0  0  0  0  0  0  0  0  0
    3.5940   -6.3747    7.1629 C   0  0  0  0  0  0  0  0  0  0  0  0
    2.3415   -7.9179    5.6044 C   0  0  0  0  0  0  0  0  0  0  0  0
    1.3134   -8.2217    4.4867 C   0  0  1  0  0  0  0  0  0  0  0  0
    0.3599   -7.1086    4.1832 C   0  0  1  0  0  0  0  0  0  0  0  0
   -1.0248   -7.6658    3.8348 C   0  0  0  0  0  0  0  0  0  0  0  0
   -0.8925   -8.8430    2.8130 C   0  0  0  0  0  0  0  0  0  0  0  0
   -1.8900   -9.3130    2.3151 O   0  0  0  0  0  0  0  0  0  0  0  0
    0.4341   -9.2696    2.4805 O   0  0  0  0  0  0  0  0  0  0  0  0
    1.6715   -8.7768    3.0813 C   0  0  1  0  0  0  0  0  0  0  0  0
    2.4492   -7.7766    2.1583 C   0  0  2  0  0  0  0  0  0  0  0  0
    3.6917   -7.3626    2.8316 C   0  0  1  0  0  0  0  0  0  0  0  0
    4.8419   -7.6204    2.0251 O   0  0  0  0  0  0  0  0  0  0  0  0
    6.0560   -7.2732    2.5054 C   0  0  0  0  0  0  0  0  0  0  0  0
    7.2003   -7.5689    1.5384 C   0  0  0  0  0  0  0  0  0  0  0  0
    6.2711   -6.7517    3.5961 O   0  0  0  0  0  0  0  0  0  0  0  0
    2.7272   -6.2556    2.3922 C   0  0  2  0  0  0  0  0  0  0  0  0
    1.6608   -5.4970    2.9903 O   0  0  0  0  0  0  0  0  0  0  0  0
    0.9742   -5.6843    4.2120 C   0  0  2  0  0  0  0  0  0  0  0  0
    3.4655   -5.1264    1.7020 C   0  0  1  0  0  0  0  0  0  0  0  0
    2.6995   -4.4860    0.6861 O   0  0  0  0  0  0  0  0  0  0  0  0
    3.2655   -3.8861   -0.3931 C   0  0  0  0  0  0  0  0  0  0  0  0
    4.7808   -4.0266   -0.5783 C   0  0  0  0  0  0  0  0  0  0  0  0
    2.6146   -3.2650   -1.2328 O   0  0  0  0  0  0  0  0  0  0  0  0
    4.0446   -4.1390    2.7780 C   0  0  0  0  0  0  0  0  0  0  0  0
    3.1131   -3.3282    3.7411 C   0  0  1  0  0  0  0  0  0  0  0  0
    2.0125   -2.5473    2.9916 C   0  0  0  0  0  0  0  0  0  0  0  0
    2.7340   -3.9635    5.1431 C   0  0  1  0  0  0  0  0  0  0  0  0
    3.0889   -0.1450    7.3782 H   0  0  0  0  0  0  0  0  0  0  0  0
    1.9276   -1.2733    8.0740 H   0  0  0  0  0  0  0  0  0  0  0  0
    1.5383   -0.4015    6.5799 H   0  0  0  0  0  0  0  0  0  0  0  0
    1.1384   -2.5330    5.5681 H   0  0  0  0  0  0  0  0  0  0  0  0
    1.1772   -5.6341    7.4826 H   0  0  0  0  0  0  0  0  0  0  0  0
   -2.8331   -5.4501    6.4659 H   0  0  0  0  0  0  0  0  0  0  0  0
   -2.7744   -3.6799    6.5117 H   0  0  0  0  0  0  0  0  0  0  0  0
   -3.1969   -4.6167    7.9653 H   0  0  0  0  0  0  0  0  0  0  0  0
    3.7443   -6.3096    5.1214 H   0  0  0  0  0  0  0  0  0  0  0  0
    2.9291   -6.6621    7.9776 H   0  0  0  0  0  0  0  0  0  0  0  0
    3.9872   -5.3810    7.3865 H   0  0  0  0  0  0  0  0  0  0  0  0
    4.4323   -7.0691    7.1993 H   0  0  0  0  0  0  0  0  0  0  0  0
    3.1673   -8.6119    5.5201 H   0  0  0  0  0  0  0  0  0  0  0  0
    1.8711   -8.2019    6.5568 H   0  0  0  0  0  0  0  0  0  0  0  0
    0.7565   -9.0332    4.9330 H   0  0  0  0  0  0  0  0  0  0  0  0
    0.3304   -6.9574    3.1133 H   0  0  0  0  0  0  0  0  0  0  0  0
   -1.5284   -8.0558    4.7176 H   0  0  0  0  0  0  0  0  0  0  0  0
   -1.6754   -6.9135    3.3903 H   0  0  0  0  0  0  0  0  0  0  0  0
    2.3054   -9.6542    3.2095 H   0  0  0  0  0  0  0  0  0  0  0  0
    2.5187   -8.1217    1.1243 H   0  0  0  0  0  0  0  0  0  0  0  0
    3.8826   -7.7203    3.8306 H   0  0  0  0  0  0  0  0  0  0  0  0
    7.0618   -7.0252    0.6038 H   0  0  0  0  0  0  0  0  0  0  0  0
    7.2468   -8.6383    1.3339 H   0  0  0  0  0  0  0  0  0  0  0  0
    8.1549   -7.2595    1.9701 H   0  0  0  0  0  0  0  0  0  0  0  0
    0.1639   -4.9546    4.1271 H   0  0  0  0  0  0  0  0  0  0  0  0
    4.2923   -5.5897    1.1878 H   0  0  0  0  0  0  0  0  0  0  0  0
    5.3378   -3.5972    0.2555 H   0  0  0  0  0  0  0  0  0  0  0  0
    5.1274   -3.5080   -1.4824 H   0  0  0  0  0  0  0  0  0  0  0  0
    5.0592   -5.0747   -0.6884 H   0  0  0  0  0  0  0  0  0  0  0  0
    4.7650   -4.6780    3.3925 H   0  0  0  0  0  0  0  0  0  0  0  0
    4.6441   -3.3979    2.2559 H   0  0  0  0  0  0  0  0  0  0  0  0
    3.7946   -2.5296    4.0440 H   0  0  0  0  0  0  0  0  0  0  0  0
    1.1449   -3.1555    2.7533 H   0  0  0  0  0  0  0  0  0  0  0  0
    2.3952   -2.1427    2.0544 H   0  0  0  0  0  0  0  0  0  0  0  0
    1.6715   -1.6894    3.5679 H   0  0  0  0  0  0  0  0  0  0  0  0
    3.7002   -4.1142    5.6175 H   0  0  0  0  0  0  0  0  0  0  0  0
  1  2  1  0
  1 39  1  0
  1 40  1  0
  1 41  1  0
  2  3  1  0
  3 38  1  0
  3  4  1  0
  3 42  1  6
  4  5  1  0
  5  6  1  0
 10  5  1  1
  5 43  1  1
  6  7  1  0
  7  8  1  0
  7  9  2  0
  8 44  1  0
  8 45  1  0
  8 46  1  0
 10 29  1  0
 10 38  1  0
 10 11  1  0
 11 12  1  0
 11 13  1  0
 11 47  1  6
 12 48  1  0
 12 49  1  0
 12 50  1  0
 13 14  1  0
 13 51  1  0
 13 52  1  0
 14 20  1  0
 14 15  1  0
 14 53  1  1
 15 29  1  0
 15 16  1  0
 15 54  1  1
 16 17  1  0
 16 55  1  0
 16 56  1  0
 17 18  2  0
 17 19  1  0
 19 20  1  0
 20 21  1  0
 20 57  1  1
 21 27  1  0
 21 22  1  0
 21 58  1  6
 22 23  1  0
 22 27  1  0
 22 59  1  1
 23 24  1  0
 24 25  1  0
 24 26  2  0
 25 60  1  0
 25 61  1  0
 25 62  1  0
 27 28  1  1
 27 30  1  0
 28 29  1  0
 29 63  1  6
 30 31  1  0
 30 35  1  0
 30 64  1  6
 31 32  1  0
 32 33  1  0
 32 34  2  0
 33 65  1  0
 33 66  1  0
 33 67  1  0
 35 36  1  0
 35 68  1  0
 35 69  1  0
 36 37  1  0
 36 38  1  0
 36 70  1  1
 37 71  1  0
 37 72  1  0
 37 73  1  0
 38 74  1  1
M  END
>  <i_m_ct_stereo_status>  (138) 
1

>  <s_m_source_file>  (138) 
/var/tmp/pbs.5076255.sched01/tmpyrjfudeo/454urwji6r.sdf

>  <i_m_source_file_index>  (138) 
15

>  <i_lp_mmshare_version>  (138) 
48012

>  <i_f3d_flags>  (138) 
0

>  <s_epik_input>  (138) 
W0NIM11DKD1PKU9bQ0BASF0xT1tDQEBIXShPW0NIM10pW0NAQEhdMltDQEhdKFtDSDNdKVtDSDJdW0NASF0oT0MoPU8pW0NIM10pW0NAXShPMykoW0NAQEhdNE9DKD1PKVtDSDNdKVtDQEBIXTRbQ0hdKE9DKD1PKVtDSDJdNSlbQ0BIXShbQ0BASF01W0NASF0zW0NAXTEyNilbQ0gyXVtDQEBIXTZbQ0gzXQ==

>  <s_epik_cmdline>  (138) 
J2VwaWtfcHl0aG9uJywgJy1waHQnLCAnMi4wJywgJy1waCcsICc3LjAnLCAnLXRuJywgJzgnLCAnLW1hJywgJzIwMCcsICctaW1hZScsICc8aW5maWxlLm1hZT4nLCAnLW9tYWUnLCAnPG91dGZpbGUubWFlPic=

>  <r_lp_tautomer_probability>  (138) 
1

>  <r_epik_Ionization_Penalty>  (138) 
6.0988e-10

>  <r_epik_Ionization_Penalty_Charging>  (138) 
0

>  <r_epik_Ionization_Penalty_Neutral>  (138) 
6.0988e-10

>  <r_epik_State_Penalty>  (138) 
-0

>  <r_epik_Charging_Adjusted_Penalty>  (138) 
0

>  <i_epik_Tot_Q>  (138) 
0

>  <i_epik_Tot_abs_Q>  (138) 
0

>  <s_epik_Chemistry_Notes>  (138) 
This compound has an ester and may undergo hydrolysis at high or low pH. This compound contains an acetal/aminal-like group ( X-CH(R)-Y where X, Y are N, S, or O) that may be acid/base labile, releasing an aldehyde.

>  <s_lp_Force_Field>  (138) 
OPLS3e

>  <r_lp_Energy>  (138) 
146.385

>  <b_lp_Chiralities_Consistent>  (138) 
1

>  <s_lp_Variant>  (138) 
31:0-1

>  <s_i_glide_gridfile>  (138) 
pfpi4k_grid

>  <i_i_glide_lignum>  (138) 
15

>  <i_i_glide_rotatable_bonds>  (138) 
7

>  <r_i_docking_score>  (138) 
-1.30439

>  <r_i_glide_ligand_efficiency>  (138) 
-0.034326

>  <r_i_glide_ligand_efficiency_sa>  (138) 
-0.115403

>  <r_i_glide_ligand_efficiency_ln>  (138) 
-0.281265

>  <r_i_glide_gscore>  (138) 
-1.30439

>  <r_i_glide_lipo>  (138) 
-0.106297

>  <r_i_glide_hbond>  (138) 
0

>  <r_i_glide_metal>  (138) 
-0

>  <r_i_glide_rewards>  (138) 
-0.0449009

>  <r_i_glide_evdw>  (138) 
-29.3179

>  <r_i_glide_ecoul>  (138) 
0.884107

>  <r_i_glide_erotb>  (138) 
0.215188

>  <r_i_glide_esite>  (138) 
-0.0351008

>  <r_i_glide_emodel>  (138) 
-27.927

>  <r_i_glide_energy>  (138) 
-28.4338

>  <r_i_glide_einternal>  (138) 
6.38984

>  <r_i_glide_intrahb_reward>  (138) 
-0

>  <i_i_glide_confnum>  (138) 
4

>  <i_i_glide_posenum>  (138) 
2

>  <r_i_glide_eff_state_penalty>  (138) 
0

>  <ligand_id>  (138) 
31

>  <original_smiles>  (138) 
COC1OC(OC(C)=O)C23C(C)CC4C5CC(=O)OC4C4C(OC(C)=O)C4(OC52)C(OC(C)=O)CC(C)C13

>  <smiles>  (138) 
[H]C([H])([H])OC1([H])OC([H])(OC(=O)C([H])([H])[H])C23C4([H])OC5(C([H])(OC(=O)C([H])([H])[H])C([H])([H])C([H])(C([H])([H])[H])C12[H])C([H])(OC(=O)C([H])([H])[H])C5([H])C1([H])OC(=O)C([H])([H])C4([H])C1([H])C([H])([H])C3([H])C([H])([H])[H]

$$$$
31:0:2
     RDKit          3D

 74 79  0  0  1  0  0  0  0  0999 V2000
    2.8023   -1.4441    7.3227 C   0  0  0  0  0  0  0  0  0  0  0  0
    3.2924   -2.5170    6.5341 O   0  0  0  0  0  0  0  0  0  0  0  0
    2.3063   -3.4353    6.1809 C   0  0  2  0  0  0  0  0  0  0  0  0
    1.8644   -4.1687    7.2676 O   0  0  0  0  0  0  0  0  0  0  0  0
    1.1817   -5.2851    6.7911 C   0  0  1  0  0  0  0  0  0  0  0  0
   -0.1660   -4.9967    6.5215 O   0  0  0  0  0  0  0  0  0  0  0  0
   -0.9244   -4.6658    7.5978 C   0  0  0  0  0  0  0  0  0  0  0  0
   -2.3685   -4.3766    7.2138 C   0  0  0  0  0  0  0  0  0  0  0  0
   -0.5651   -4.5955    8.7713 O   0  0  0  0  0  0  0  0  0  0  0  0
    1.9628   -5.7378    5.4990 C   0  0  1  0  0  0  0  0  0  0  0  0
    2.8318   -7.0037    5.8380 C   0  0  1  0  0  0  0  0  0  0  0  0
    3.5410   -7.0128    7.2115 C   0  0  0  0  0  0  0  0  0  0  0  0
    2.1465   -8.3959    5.6272 C   0  0  0  0  0  0  0  0  0  0  0  0
    1.0934   -8.5750    4.5073 C   0  0  1  0  0  0  0  0  0  0  0  0
    0.2423   -7.3720    4.2430 C   0  0  1  0  0  0  0  0  0  0  0  0
   -1.1872   -7.7999    3.8787 C   0  0  0  0  0  0  0  0  0  0  0  0
   -1.1376   -8.9471    2.8290 C   0  0  0  0  0  0  0  0  0  0  0  0
   -2.1847   -9.3126    2.3058 O   0  0  0  0  0  0  0  0  0  0  0  0
    0.1159   -9.4895    2.4902 O   0  0  0  0  0  0  0  0  0  0  0  0
    1.3878   -9.1327    3.0936 C   0  0  1  0  0  0  0  0  0  0  0  0
    2.2356   -8.1908    2.1793 C   0  0  2  0  0  0  0  0  0  0  0  0
    3.5213   -7.9057    2.8390 C   0  0  1  0  0  0  0  0  0  0  0  0
    4.6182   -8.2349    1.9870 O   0  0  0  0  0  0  0  0  0  0  0  0
    5.2754   -9.3921    2.1721 C   0  0  0  0  0  0  0  0  0  0  0  0
    6.5083   -9.5178    1.2820 C   0  0  0  0  0  0  0  0  0  0  0  0
    4.9776  -10.2634    2.9893 O   0  0  0  0  0  0  0  0  0  0  0  0
    2.6601   -6.7075    2.4429 C   0  0  2  0  0  0  0  0  0  0  0  0
    1.6839   -5.8591    3.0690 O   0  0  0  0  0  0  0  0  0  0  0  0
    0.9877   -6.0120    4.2993 C   0  0  2  0  0  0  0  0  0  0  0  0
    3.5042   -5.6336    1.7818 C   0  0  1  0  0  0  0  0  0  0  0  0
    2.7908   -4.8804    0.8012 O   0  0  0  0  0  0  0  0  0  0  0  0
    3.4047   -4.2540   -0.2434 C   0  0  0  0  0  0  0  0  0  0  0  0
    4.8884   -4.5745   -0.4887 C   0  0  0  0  0  0  0  0  0  0  0  0
    2.8162   -3.4704   -0.9839 O   0  0  0  0  0  0  0  0  0  0  0  0
    4.1840   -4.7401    2.8816 C   0  0  0  0  0  0  0  0  0  0  0  0
    3.3376   -3.8653    3.8628 C   0  0  1  0  0  0  0  0  0  0  0  0
    2.3091   -2.9588    3.1420 C   0  0  0  0  0  0  0  0  0  0  0  0
    2.9047   -4.4883    5.2524 C   0  0  1  0  0  0  0  0  0  0  0  0
    3.6219   -0.7726    7.5829 H   0  0  0  0  0  0  0  0  0  0  0  0
    2.3634   -1.8052    8.2539 H   0  0  0  0  0  0  0  0  0  0  0  0
    2.0520   -0.8632    6.7879 H   0  0  0  0  0  0  0  0  0  0  0  0
    1.4515   -2.9272    5.7309 H   0  0  0  0  0  0  0  0  0  0  0  0
    1.1858   -6.0495    7.5700 H   0  0  0  0  0  0  0  0  0  0  0  0
   -2.8113   -5.2399    6.7231 H   0  0  0  0  0  0  0  0  0  0  0  0
   -2.4277   -3.5216    6.5401 H   0  0  0  0  0  0  0  0  0  0  0  0
   -2.9472   -4.1686    8.1132 H   0  0  0  0  0  0  0  0  0  0  0  0
    3.6895   -6.9093    5.1727 H   0  0  0  0  0  0  0  0  0  0  0  0
    2.8580   -7.2561    8.0251 H   0  0  0  0  0  0  0  0  0  0  0  0
    4.0293   -6.0677    7.4572 H   0  0  0  0  0  0  0  0  0  0  0  0
    4.3117   -7.7826    7.2277 H   0  0  0  0  0  0  0  0  0  0  0  0
    2.9058   -9.1601    5.5110 H   0  0  0  0  0  0  0  0  0  0  0  0
    1.6586   -8.6689    6.5766 H   0  0  0  0  0  0  0  0  0  0  0  0
    0.4617   -9.3401    4.9398 H   0  0  0  0  0  0  0  0  0  0  0  0
    0.2217   -7.1887    3.1784 H   0  0  0  0  0  0  0  0  0  0  0  0
   -1.7226   -8.1565    4.7567 H   0  0  0  0  0  0  0  0  0  0  0  0
   -1.7671   -6.9750    3.4641 H   0  0  0  0  0  0  0  0  0  0  0  0
    1.9403  -10.0683    3.1903 H   0  0  0  0  0  0  0  0  0  0  0  0
    2.2591   -8.5167    1.1363 H   0  0  0  0  0  0  0  0  0  0  0  0
    3.7055   -8.2676    3.8410 H   0  0  0  0  0  0  0  0  0  0  0  0
    7.2224   -8.7203    1.4937 H   0  0  0  0  0  0  0  0  0  0  0  0
    6.2248   -9.4568    0.2338 H   0  0  0  0  0  0  0  0  0  0  0  0
    7.0011  -10.4764    1.4518 H   0  0  0  0  0  0  0  0  0  0  0  0
    0.2439   -5.2096    4.2343 H   0  0  0  0  0  0  0  0  0  0  0  0
    4.2775   -6.1670    1.2556 H   0  0  0  0  0  0  0  0  0  0  0  0
    5.5123   -4.2983    0.3580 H   0  0  0  0  0  0  0  0  0  0  0  0
    5.2869   -4.0332   -1.3555 H   0  0  0  0  0  0  0  0  0  0  0  0
    5.0217   -5.6371   -0.6888 H   0  0  0  0  0  0  0  0  0  0  0  0
    4.8630   -5.3692    3.4580 H   0  0  0  0  0  0  0  0  0  0  0  0
    4.8447   -4.0379    2.3791 H   0  0  0  0  0  0  0  0  0  0  0  0
    4.0905   -3.1372    4.1784 H   0  0  0  0  0  0  0  0  0  0  0  0
    1.3864   -3.4741    2.8880 H   0  0  0  0  0  0  0  0  0  0  0  0
    2.7244   -2.5594    2.2173 H   0  0  0  0  0  0  0  0  0  0  0  0
    2.0514   -2.0906    3.7470 H   0  0  0  0  0  0  0  0  0  0  0  0
    3.8523   -4.7370    5.7161 H   0  0  0  0  0  0  0  0  0  0  0  0
  1  2  1  0
  1 39  1  0
  1 40  1  0
  1 41  1  0
  2  3  1  0
  3 38  1  0
  3  4  1  0
  3 42  1  6
  4  5  1  0
  5  6  1  0
 10  5  1  1
  5 43  1  1
  6  7  1  0
  7  8  1  0
  7  9  2  0
  8 44  1  0
  8 45  1  0
  8 46  1  0
 10 29  1  0
 10 38  1  0
 10 11  1  0
 11 12  1  0
 11 13  1  0
 11 47  1  6
 12 48  1  0
 12 49  1  0
 12 50  1  0
 13 14  1  0
 13 51  1  0
 13 52  1  0
 14 20  1  0
 14 15  1  0
 14 53  1  1
 15 29  1  0
 15 16  1  0
 15 54  1  1
 16 17  1  0
 16 55  1  0
 16 56  1  0
 17 18  2  0
 17 19  1  0
 19 20  1  0
 20 21  1  0
 20 57  1  1
 21 27  1  0
 21 22  1  0
 21 58  1  6
 22 23  1  0
 22 27  1  0
 22 59  1  1
 23 24  1  0
 24 25  1  0
 24 26  2  0
 25 60  1  0
 25 61  1  0
 25 62  1  0
 27 28  1  1
 27 30  1  0
 28 29  1  0
 29 63  1  6
 30 31  1  0
 30 35  1  0
 30 64  1  6
 31 32  1  0
 32 33  1  0
 32 34  2  0
 33 65  1  0
 33 66  1  0
 33 67  1  0
 35 36  1  0
 35 68  1  0
 35 69  1  0
 36 37  1  0
 36 38  1  0
 36 70  1  1
 37 71  1  0
 37 72  1  0
 37 73  1  0
 38 74  1  1
M  END
>  <i_m_ct_stereo_status>  (139) 
1

>  <s_m_source_file>  (139) 
/var/tmp/pbs.5076255.sched01/tmpyrjfudeo/454urwji6r.sdf

>  <i_m_source_file_index>  (139) 
15

>  <i_lp_mmshare_version>  (139) 
48012

>  <i_f3d_flags>  (139) 
0

>  <s_epik_input>  (139) 
W0NIM11DKD1PKU9bQ0BASF0xT1tDQEBIXShPW0NIM10pW0NAQEhdMltDQEhdKFtDSDNdKVtDSDJdW0NASF0oT0MoPU8pW0NIM10pW0NAXShPMykoW0NAQEhdNE9DKD1PKVtDSDNdKVtDQEBIXTRbQ0hdKE9DKD1PKVtDSDJdNSlbQ0BIXShbQ0BASF01W0NASF0zW0NAXTEyNilbQ0gyXVtDQEBIXTZbQ0gzXQ==

>  <s_epik_cmdline>  (139) 
J2VwaWtfcHl0aG9uJywgJy1waHQnLCAnMi4wJywgJy1waCcsICc3LjAnLCAnLXRuJywgJzgnLCAnLW1hJywgJzIwMCcsICctaW1hZScsICc8aW5maWxlLm1hZT4nLCAnLW9tYWUnLCAnPG91dGZpbGUubWFlPic=

>  <r_lp_tautomer_probability>  (139) 
1

>  <r_epik_Ionization_Penalty>  (139) 
6.0988e-10

>  <r_epik_Ionization_Penalty_Charging>  (139) 
0

>  <r_epik_Ionization_Penalty_Neutral>  (139) 
6.0988e-10

>  <r_epik_State_Penalty>  (139) 
-0

>  <r_epik_Charging_Adjusted_Penalty>  (139) 
0

>  <i_epik_Tot_Q>  (139) 
0

>  <i_epik_Tot_abs_Q>  (139) 
0

>  <s_epik_Chemistry_Notes>  (139) 
This compound has an ester and may undergo hydrolysis at high or low pH. This compound contains an acetal/aminal-like group ( X-CH(R)-Y where X, Y are N, S, or O) that may be acid/base labile, releasing an aldehyde.

>  <s_lp_Force_Field>  (139) 
OPLS3e

>  <r_lp_Energy>  (139) 
146.385

>  <b_lp_Chiralities_Consistent>  (139) 
1

>  <s_lp_Variant>  (139) 
31:0-1

>  <s_i_glide_gridfile>  (139) 
pfpi4k_grid

>  <i_i_glide_lignum>  (139) 
15

>  <i_i_glide_rotatable_bonds>  (139) 
7

>  <r_i_docking_score>  (139) 
-1.26794

>  <r_i_glide_ligand_efficiency>  (139) 
-0.0333669

>  <r_i_glide_ligand_efficiency_sa>  (139) 
-0.112179

>  <r_i_glide_ligand_efficiency_ln>  (139) 
-0.273406

>  <r_i_glide_gscore>  (139) 
-1.26794

>  <r_i_glide_lipo>  (139) 
-0.0392766

>  <r_i_glide_hbond>  (139) 
0

>  <r_i_glide_metal>  (139) 
-0

>  <r_i_glide_rewards>  (139) 
0

>  <r_i_glide_evdw>  (139) 
-30.6794

>  <r_i_glide_ecoul>  (139) 
1.05407

>  <r_i_glide_erotb>  (139) 
0.215188

>  <r_i_glide_esite>  (139) 
-0.0679954

>  <r_i_glide_emodel>  (139) 
-29.43

>  <r_i_glide_energy>  (139) 
-29.6253

>  <r_i_glide_einternal>  (139) 
5.7979

>  <r_i_glide_intrahb_reward>  (139) 
-0

>  <i_i_glide_confnum>  (139) 
6

>  <i_i_glide_posenum>  (139) 
23

>  <r_i_glide_eff_state_penalty>  (139) 
0

>  <ligand_id>  (139) 
31

>  <original_smiles>  (139) 
COC1OC(OC(C)=O)C23C(C)CC4C5CC(=O)OC4C4C(OC(C)=O)C4(OC52)C(OC(C)=O)CC(C)C13

>  <smiles>  (139) 
[H]C([H])([H])OC1([H])OC([H])(OC(=O)C([H])([H])[H])C23C4([H])OC5(C([H])(OC(=O)C([H])([H])[H])C([H])([H])C([H])(C([H])([H])[H])C12[H])C([H])(OC(=O)C([H])([H])[H])C5([H])C1([H])OC(=O)C([H])([H])C4([H])C1([H])C([H])([H])C3([H])C([H])([H])[H]

$$$$
32:0:0
     RDKit          3D

 68 73  0  0  1  0  0  0  0  0999 V2000
    0.6241   -2.3075    4.4515 C   0  0  0  0  0  0  0  0  0  0  0  0
    1.4364   -3.4827    3.8633 C   0  0  2  0  0  0  0  0  0  0  0  0
    0.8391   -4.7960    4.3820 C   0  0  0  0  0  0  0  0  0  0  0  0
    1.0199   -5.9739    3.4108 C   0  0  0  0  0  0  0  0  0  0  0  0
    2.4471   -6.5360    3.2692 C   0  0  2  0  0  0  0  0  0  0  0  0
    2.3835   -7.8572    2.4702 C   0  0  0  0  0  0  0  0  0  0  0  0
    3.0761   -6.7412    4.6587 C   0  0  0  0  0  0  0  0  0  0  0  0
    3.6648   -5.4847    5.0296 O   0  0  0  0  0  0  0  0  0  0  0  0
    3.8948   -4.6533    3.8847 C   0  0  2  0  0  0  0  0  0  0  0  0
    5.4134   -4.3619    3.7392 C   0  0  0  0  0  0  0  0  0  0  0  0
    5.9802   -4.4784    2.2817 C   0  0  0  0  0  0  0  0  0  0  0  0
    4.9962   -4.3375    1.0665 C   0  0  1  0  0  0  0  0  0  0  0  0
    5.5251   -5.4109    0.0835 C   0  0  0  0  0  0  0  0  0  0  0  0
    3.5597   -4.7754    1.4552 C   0  0  1  0  0  0  0  0  0  0  0  0
    2.6027   -4.9643    0.2862 C   0  0  0  0  0  0  0  0  0  0  0  0
    2.8143   -3.8185   -0.7373 C   0  0  0  0  0  0  0  0  0  0  0  0
    3.5460   -2.5397   -0.2232 C   0  0  1  0  0  0  0  0  0  0  0  0
    3.6373   -1.5785   -1.4453 C   0  0  0  0  0  0  0  0  0  0  0  0
    2.7435   -1.7865    0.9093 C   0  0  0  0  0  0  0  0  0  0  0  0
    3.7149   -1.4234    2.0638 C   0  0  1  0  0  0  0  0  0  0  0  0
    3.6257   -0.0131    2.1979 O   0  0  0  0  0  0  0  0  0  0  0  0
    3.5444   -1.9418    3.5601 C   0  0  0  0  0  0  0  0  0  0  0  0
    2.9923   -3.3416    4.0825 C   0  0  1  0  0  0  0  0  0  0  0  0
    5.0662   -1.6524    1.3728 C   0  0  1  0  0  0  0  0  0  0  0  0
    6.1967   -1.5306    2.1878 O   0  0  0  0  0  0  0  0  0  0  0  0
    4.9667   -2.8711    0.4025 C   0  0  1  0  0  0  0  0  0  0  0  0
    6.1344   -2.7231   -0.6228 C   0  0  0  0  0  0  0  0  0  0  0  0
    3.5401   -5.6125    2.7335 C   0  0  2  0  0  0  0  0  0  0  0  0
    0.8630   -2.1473    5.5015 H   0  0  0  0  0  0  0  0  0  0  0  0
   -0.4500   -2.4820    4.3810 H   0  0  0  0  0  0  0  0  0  0  0  0
    0.7975   -1.3775    3.9114 H   0  0  0  0  0  0  0  0  0  0  0  0
    1.2118   -3.4831    2.8084 H   0  0  0  0  0  0  0  0  0  0  0  0
    1.1902   -5.0177    5.3863 H   0  0  0  0  0  0  0  0  0  0  0  0
   -0.2367   -4.6788    4.4973 H   0  0  0  0  0  0  0  0  0  0  0  0
    0.3911   -6.7836    3.7833 H   0  0  0  0  0  0  0  0  0  0  0  0
    0.6084   -5.7294    2.4345 H   0  0  0  0  0  0  0  0  0  0  0  0
    3.3654   -8.3258    2.3746 H   0  0  0  0  0  0  0  0  0  0  0  0
    2.0003   -7.6987    1.4608 H   0  0  0  0  0  0  0  0  0  0  0  0
    1.7337   -8.5829    2.9598 H   0  0  0  0  0  0  0  0  0  0  0  0
    2.3558   -7.0759    5.4087 H   0  0  0  0  0  0  0  0  0  0  0  0
    3.8776   -7.4833    4.6142 H   0  0  0  0  0  0  0  0  0  0  0  0
    5.6951   -3.4167    4.1930 H   0  0  0  0  0  0  0  0  0  0  0  0
    5.9413   -5.0969    4.3494 H   0  0  0  0  0  0  0  0  0  0  0  0
    6.8532   -3.8551    2.0962 H   0  0  0  0  0  0  0  0  0  0  0  0
    6.4262   -5.4725    2.2628 H   0  0  0  0  0  0  0  0  0  0  0  0
    5.0520   -5.4055   -0.8990 H   0  0  0  0  0  0  0  0  0  0  0  0
    5.3885   -6.4113    0.4856 H   0  0  0  0  0  0  0  0  0  0  0  0
    6.5971   -5.2885   -0.0788 H   0  0  0  0  0  0  0  0  0  0  0  0
    3.0990   -3.9108    1.8311 H   0  0  0  0  0  0  0  0  0  0  0  0
    2.7241   -5.9358   -0.1894 H   0  0  0  0  0  0  0  0  0  0  0  0
    1.5869   -4.9190    0.6711 H   0  0  0  0  0  0  0  0  0  0  0  0
    3.4157   -4.2072   -1.5609 H   0  0  0  0  0  0  0  0  0  0  0  0
    1.8575   -3.5531   -1.1939 H   0  0  0  0  0  0  0  0  0  0  0  0
    4.1187   -0.6321   -1.1983 H   0  0  0  0  0  0  0  0  0  0  0  0
    2.6429   -1.3325   -1.8261 H   0  0  0  0  0  0  0  0  0  0  0  0
    4.1787   -2.0142   -2.2863 H   0  0  0  0  0  0  0  0  0  0  0  0
    2.3247   -0.8696    0.4945 H   0  0  0  0  0  0  0  0  0  0  0  0
    1.8588   -2.3297    1.2226 H   0  0  0  0  0  0  0  0  0  0  0  0
    2.7265    0.2088    2.3656 H   0  0  0  0  0  0  0  0  0  0  0  0
    4.4797   -1.7425    4.0785 H   0  0  0  0  0  0  0  0  0  0  0  0
    2.9200   -1.1990    4.0542 H   0  0  0  0  0  0  0  0  0  0  0  0
    3.0604   -3.2013    5.1609 H   0  0  0  0  0  0  0  0  0  0  0  0
    5.2184   -0.7893    0.7253 H   0  0  0  0  0  0  0  0  0  0  0  0
    6.2023   -0.6536    2.5475 H   0  0  0  0  0  0  0  0  0  0  0  0
    6.2419   -1.7056   -0.9927 H   0  0  0  0  0  0  0  0  0  0  0  0
    5.9921   -3.3572   -1.4965 H   0  0  0  0  0  0  0  0  0  0  0  0
    7.0899   -2.9822   -0.1690 H   0  0  0  0  0  0  0  0  0  0  0  0
    4.3566   -6.3257    2.6080 H   0  0  0  0  0  0  0  0  0  0  0  0
  1  2  1  0
  1 29  1  0
  1 30  1  0
  1 31  1  0
  2 23  1  0
  2  3  1  0
  2 32  1  6
  3  4  1  0
  3 33  1  0
  3 34  1  0
  4  5  1  0
  4 35  1  0
  4 36  1  0
  5 28  1  0
  5  6  1  6
  5  7  1  0
  6 37  1  0
  6 38  1  0
  6 39  1  0
  7  8  1  0
  7 40  1  0
  7 41  1  0
  9  8  1  1
  9 23  1  0
  9 28  1  0
  9 10  1  0
 10 11  1  0
 10 42  1  0
 10 43  1  0
 11 12  1  0
 11 44  1  0
 11 45  1  0
 12 26  1  0
 12 13  1  6
 12 14  1  0
 13 46  1  0
 13 47  1  0
 13 48  1  0
 14 15  1  0
 14 28  1  0
 14 49  1  1
 15 16  1  0
 15 50  1  0
 15 51  1  0
 16 17  1  0
 16 52  1  0
 16 53  1  0
 17 26  1  0
 17 18  1  6
 17 19  1  0
 18 54  1  0
 18 55  1  0
 18 56  1  0
 19 20  1  0
 19 57  1  0
 19 58  1  0
 20 21  1  1
 20 22  1  0
 20 24  1  0
 21 59  1  0
 22 23  1  0
 22 60  1  0
 22 61  1  0
 23 62  1  1
 24 25  1  0
 24 26  1  0
 24 63  1  6
 25 64  1  0
 26 27  1  6
 27 65  1  0
 27 66  1  0
 27 67  1  0
 28 68  1  6
M  END
>  <i_m_ct_stereo_status>  (140) 
1

>  <s_m_source_file>  (140) 
/var/tmp/pbs.5076255.sched01/tmpyrjfudeo/454urwji6r.sdf

>  <i_m_source_file_index>  (140) 
17

>  <i_lp_mmshare_version>  (140) 
48012

>  <i_f3d_flags>  (140) 
0

>  <s_epik_input>  (140) 
W0NAQF0xMjNbQ0BASF00W0NASF0oW0NIM10pW0NIMl1bQ0gyXVtDQF0oW0NIM10pKFtDSDJdTzEpW0NASF0zW0NASF01W0NAXShbQ0gzXSkoW0NIMl1bQ0gyXTIpW0NAQF02KFtDSDNdKVtDQEBdKFtDSDNdKShbQ0gyXVtDSDJdNSlbQ0gyXVtDQEBdKFtPSF0pKFtDSDJdNClbQ0BIXTZbT0hd

>  <s_epik_cmdline>  (140) 
J2VwaWtfcHl0aG9uJywgJy1waHQnLCAnMi4wJywgJy1waCcsICc3LjAnLCAnLXRuJywgJzgnLCAnLW1hJywgJzIwMCcsICctaW1hZScsICc8aW5maWxlLm1hZT4nLCAnLW9tYWUnLCAnPG91dGZpbGUubWFlPic=

>  <r_lp_tautomer_probability>  (140) 
1

>  <r_epik_Ionization_Penalty>  (140) 
2.39414e-06

>  <r_epik_Ionization_Penalty_Charging>  (140) 
0

>  <r_epik_Ionization_Penalty_Neutral>  (140) 
2.39414e-06

>  <r_epik_State_Penalty>  (140) 
-0

>  <r_epik_Charging_Adjusted_Penalty>  (140) 
0

>  <i_epik_Tot_Q>  (140) 
0

>  <i_epik_Tot_abs_Q>  (140) 
0

>  <s_lp_Force_Field>  (140) 
OPLS3e

>  <r_lp_Energy>  (140) 
138.769

>  <b_lp_Chiralities_Consistent>  (140) 
1

>  <s_lp_Variant>  (140) 
32:0-1

>  <s_i_glide_gridfile>  (140) 
pfpi4k_grid

>  <i_i_glide_lignum>  (140) 
17

>  <i_i_glide_rotatable_bonds>  (140) 
2

>  <r_i_docking_score>  (140) 
-2.19171

>  <r_i_glide_ligand_efficiency>  (140) 
-0.0782754

>  <r_i_glide_ligand_efficiency_sa>  (140) 
-0.23769

>  <r_i_glide_ligand_efficiency_ln>  (140) 
-0.505912

>  <r_i_glide_gscore>  (140) 
-2.19171

>  <r_i_glide_lipo>  (140) 
-0.298263

>  <r_i_glide_hbond>  (140) 
0

>  <r_i_glide_metal>  (140) 
-0

>  <r_i_glide_rewards>  (140) 
-0.759659

>  <r_i_glide_evdw>  (140) 
-20.1795

>  <r_i_glide_ecoul>  (140) 
-0.832109

>  <r_i_glide_erotb>  (140) 
0

>  <r_i_glide_esite>  (140) 
0

>  <r_i_glide_emodel>  (140) 
-22.8223

>  <r_i_glide_energy>  (140) 
-21.0116

>  <r_i_glide_einternal>  (140) 
0.518009

>  <r_i_glide_intrahb_reward>  (140) 
-0

>  <i_i_glide_confnum>  (140) 
1

>  <i_i_glide_posenum>  (140) 
7

>  <r_i_glide_eff_state_penalty>  (140) 
0

>  <ligand_id>  (140) 
32

>  <original_smiles>  (140) 
CC1CCC2(C)COC34CCC5(C)C(CCC6(C)CC(O)(CC13)C(O)C65C)C24

>  <smiles>  (140) 
[H]OC1([H])C2(O[H])C([H])([H])C3([H])C([H])(C([H])([H])[H])C([H])([H])C([H])([H])C4(C([H])([H])[H])C([H])([H])OC35C([H])([H])C([H])([H])C3(C([H])([H])[H])C([H])(C([H])([H])C([H])([H])C(C([H])([H])[H])(C2([H])[H])C13C([H])([H])[H])C54[H]

$$$$
32:0:1
     RDKit          3D

 68 73  0  0  1  0  0  0  0  0999 V2000
    0.6235   -2.3155    4.4543 C   0  0  0  0  0  0  0  0  0  0  0  0
    1.4376   -3.4915    3.8657 C   0  0  2  0  0  0  0  0  0  0  0  0
    0.8412   -4.8060    4.3820 C   0  0  0  0  0  0  0  0  0  0  0  0
    1.0226   -5.9838    3.4112 C   0  0  0  0  0  0  0  0  0  0  0  0
    2.4492   -6.5431    3.2671 C   0  0  2  0  0  0  0  0  0  0  0  0
    2.3866   -7.8648    2.4690 C   0  0  0  0  0  0  0  0  0  0  0  0
    3.0769   -6.7495    4.6566 C   0  0  0  0  0  0  0  0  0  0  0  0
    3.6662   -5.4942    5.0320 O   0  0  0  0  0  0  0  0  0  0  0  0
    3.8953   -4.6618    3.8870 C   0  0  2  0  0  0  0  0  0  0  0  0
    5.4144   -4.3681    3.7422 C   0  0  0  0  0  0  0  0  0  0  0  0
    5.9821   -4.4816    2.2838 C   0  0  0  0  0  0  0  0  0  0  0  0
    4.9992   -4.3381    1.0680 C   0  0  1  0  0  0  0  0  0  0  0  0
    5.5298   -5.4141    0.0784 C   0  0  0  0  0  0  0  0  0  0  0  0
    3.5598   -4.7785    1.4563 C   0  0  1  0  0  0  0  0  0  0  0  0
    2.6038   -4.9643    0.2875 C   0  0  0  0  0  0  0  0  0  0  0  0
    2.8149   -3.8161   -0.7336 C   0  0  0  0  0  0  0  0  0  0  0  0
    3.5467   -2.5355   -0.2165 C   0  0  1  0  0  0  0  0  0  0  0  0
    3.6387   -1.5766   -1.4391 C   0  0  0  0  0  0  0  0  0  0  0  0
    2.7480   -1.7838    0.9211 C   0  0  0  0  0  0  0  0  0  0  0  0
    3.7221   -1.4257    2.0721 C   0  0  1  0  0  0  0  0  0  0  0  0
    3.6346   -0.0169    2.2199 O   0  0  0  0  0  0  0  0  0  0  0  0
    3.5487   -1.9511    3.5685 C   0  0  0  0  0  0  0  0  0  0  0  0
    2.9937   -3.3493    4.0837 C   0  0  1  0  0  0  0  0  0  0  0  0
    5.0710   -1.6496    1.3759 C   0  0  1  0  0  0  0  0  0  0  0  0
    6.2040   -1.5327    2.1900 O   0  0  0  0  0  0  0  0  0  0  0  0
    4.9692   -2.8685    0.4059 C   0  0  1  0  0  0  0  0  0  0  0  0
    6.1357   -2.7236   -0.6179 C   0  0  0  0  0  0  0  0  0  0  0  0
    3.5411   -5.6200    2.7343 C   0  0  2  0  0  0  0  0  0  0  0  0
    0.8636   -2.1569    5.5041 H   0  0  0  0  0  0  0  0  0  0  0  0
   -0.4505   -2.4908    4.3847 H   0  0  0  0  0  0  0  0  0  0  0  0
    0.7980   -1.3858    3.9144 H   0  0  0  0  0  0  0  0  0  0  0  0
    1.2116   -3.4909    2.8084 H   0  0  0  0  0  0  0  0  0  0  0  0
    1.1884   -5.0274    5.3865 H   0  0  0  0  0  0  0  0  0  0  0  0
   -0.2362   -4.6891    4.4951 H   0  0  0  0  0  0  0  0  0  0  0  0
    0.3927   -6.7948    3.7831 H   0  0  0  0  0  0  0  0  0  0  0  0
    0.6100   -5.7393    2.4341 H   0  0  0  0  0  0  0  0  0  0  0  0
    3.3696   -8.3343    2.3741 H   0  0  0  0  0  0  0  0  0  0  0  0
    2.0049   -7.7064    1.4584 H   0  0  0  0  0  0  0  0  0  0  0  0
    1.7357   -8.5904    2.9580 H   0  0  0  0  0  0  0  0  0  0  0  0
    2.3607   -7.0850    5.4085 H   0  0  0  0  0  0  0  0  0  0  0  0
    3.8791   -7.4912    4.6135 H   0  0  0  0  0  0  0  0  0  0  0  0
    5.6939   -3.4258    4.1997 H   0  0  0  0  0  0  0  0  0  0  0  0
    5.9417   -5.1057    4.3508 H   0  0  0  0  0  0  0  0  0  0  0  0
    6.8543   -3.8572    2.0986 H   0  0  0  0  0  0  0  0  0  0  0  0
    6.4289   -5.4769    2.2625 H   0  0  0  0  0  0  0  0  0  0  0  0
    5.0540   -5.4061   -0.8990 H   0  0  0  0  0  0  0  0  0  0  0  0
    5.3910   -6.4153    0.4853 H   0  0  0  0  0  0  0  0  0  0  0  0
    6.6007   -5.2900   -0.0792 H   0  0  0  0  0  0  0  0  0  0  0  0
    3.1026   -3.9127    1.8312 H   0  0  0  0  0  0  0  0  0  0  0  0
    2.7216   -5.9376   -0.1897 H   0  0  0  0  0  0  0  0  0  0  0  0
    1.5882   -4.9184    0.6720 H   0  0  0  0  0  0  0  0  0  0  0  0
    3.4181   -4.2075   -1.5564 H   0  0  0  0  0  0  0  0  0  0  0  0
    1.8597   -3.5538   -1.1930 H   0  0  0  0  0  0  0  0  0  0  0  0
    4.1207   -0.6287   -1.1940 H   0  0  0  0  0  0  0  0  0  0  0  0
    2.6439   -1.3325   -1.8197 H   0  0  0  0  0  0  0  0  0  0  0  0
    4.1808   -2.0126   -2.2802 H   0  0  0  0  0  0  0  0  0  0  0  0
    2.3235   -0.8621    0.5155 H   0  0  0  0  0  0  0  0  0  0  0  0
    1.8653   -2.3306    1.2347 H   0  0  0  0  0  0  0  0  0  0  0  0
    3.5676    0.3756    1.3636 H   0  0  0  0  0  0  0  0  0  0  0  0
    4.4847   -1.7500    4.0868 H   0  0  0  0  0  0  0  0  0  0  0  0
    2.9180   -1.2126    4.0590 H   0  0  0  0  0  0  0  0  0  0  0  0
    3.0600   -3.2098    5.1605 H   0  0  0  0  0  0  0  0  0  0  0  0
    5.2204   -0.7866    0.7308 H   0  0  0  0  0  0  0  0  0  0  0  0
    6.1977   -0.6653    2.5734 H   0  0  0  0  0  0  0  0  0  0  0  0
    6.2447   -1.7070   -0.9891 H   0  0  0  0  0  0  0  0  0  0  0  0
    5.9962   -3.3586   -1.4917 H   0  0  0  0  0  0  0  0  0  0  0  0
    7.0921   -2.9821   -0.1646 H   0  0  0  0  0  0  0  0  0  0  0  0
    4.3600   -6.3307    2.6082 H   0  0  0  0  0  0  0  0  0  0  0  0
  1  2  1  0
  1 29  1  0
  1 30  1  0
  1 31  1  0
  2 23  1  0
  2  3  1  0
  2 32  1  6
  3  4  1  0
  3 33  1  0
  3 34  1  0
  4  5  1  0
  4 35  1  0
  4 36  1  0
  5 28  1  0
  5  6  1  6
  5  7  1  0
  6 37  1  0
  6 38  1  0
  6 39  1  0
  7  8  1  0
  7 40  1  0
  7 41  1  0
  9  8  1  1
  9 23  1  0
  9 28  1  0
  9 10  1  0
 10 11  1  0
 10 42  1  0
 10 43  1  0
 11 12  1  0
 11 44  1  0
 11 45  1  0
 12 26  1  0
 12 13  1  6
 12 14  1  0
 13 46  1  0
 13 47  1  0
 13 48  1  0
 14 15  1  0
 14 28  1  0
 14 49  1  1
 15 16  1  0
 15 50  1  0
 15 51  1  0
 16 17  1  0
 16 52  1  0
 16 53  1  0
 17 26  1  0
 17 18  1  6
 17 19  1  0
 18 54  1  0
 18 55  1  0
 18 56  1  0
 19 20  1  0
 19 57  1  0
 19 58  1  0
 20 21  1  1
 20 22  1  0
 20 24  1  0
 21 59  1  0
 22 23  1  0
 22 60  1  0
 22 61  1  0
 23 62  1  1
 24 25  1  0
 24 26  1  0
 24 63  1  6
 25 64  1  0
 26 27  1  6
 27 65  1  0
 27 66  1  0
 27 67  1  0
 28 68  1  6
M  END
>  <i_m_ct_stereo_status>  (141) 
1

>  <s_m_source_file>  (141) 
/var/tmp/pbs.5076255.sched01/tmpyrjfudeo/454urwji6r.sdf

>  <i_m_source_file_index>  (141) 
17

>  <i_lp_mmshare_version>  (141) 
48012

>  <i_f3d_flags>  (141) 
0

>  <s_epik_input>  (141) 
W0NAQF0xMjNbQ0BASF00W0NASF0oW0NIM10pW0NIMl1bQ0gyXVtDQF0oW0NIM10pKFtDSDJdTzEpW0NASF0zW0NASF01W0NAXShbQ0gzXSkoW0NIMl1bQ0gyXTIpW0NAQF02KFtDSDNdKVtDQEBdKFtDSDNdKShbQ0gyXVtDSDJdNSlbQ0gyXVtDQEBdKFtPSF0pKFtDSDJdNClbQ0BIXTZbT0hd

>  <s_epik_cmdline>  (141) 
J2VwaWtfcHl0aG9uJywgJy1waHQnLCAnMi4wJywgJy1waCcsICc3LjAnLCAnLXRuJywgJzgnLCAnLW1hJywgJzIwMCcsICctaW1hZScsICc8aW5maWxlLm1hZT4nLCAnLW9tYWUnLCAnPG91dGZpbGUubWFlPic=

>  <r_lp_tautomer_probability>  (141) 
1

>  <r_epik_Ionization_Penalty>  (141) 
2.39414e-06

>  <r_epik_Ionization_Penalty_Charging>  (141) 
0

>  <r_epik_Ionization_Penalty_Neutral>  (141) 
2.39414e-06

>  <r_epik_State_Penalty>  (141) 
-0

>  <r_epik_Charging_Adjusted_Penalty>  (141) 
0

>  <i_epik_Tot_Q>  (141) 
0

>  <i_epik_Tot_abs_Q>  (141) 
0

>  <s_lp_Force_Field>  (141) 
OPLS3e

>  <r_lp_Energy>  (141) 
138.769

>  <b_lp_Chiralities_Consistent>  (141) 
1

>  <s_lp_Variant>  (141) 
32:0-1

>  <s_i_glide_gridfile>  (141) 
pfpi4k_grid

>  <i_i_glide_lignum>  (141) 
17

>  <i_i_glide_rotatable_bonds>  (141) 
2

>  <r_i_docking_score>  (141) 
-2.16297

>  <r_i_glide_ligand_efficiency>  (141) 
-0.0772488

>  <r_i_glide_ligand_efficiency_sa>  (141) 
-0.234573

>  <r_i_glide_ligand_efficiency_ln>  (141) 
-0.499276

>  <r_i_glide_gscore>  (141) 
-2.16297

>  <r_i_glide_lipo>  (141) 
-0.298116

>  <r_i_glide_hbond>  (141) 
0

>  <r_i_glide_metal>  (141) 
-0

>  <r_i_glide_rewards>  (141) 
-0.759659

>  <r_i_glide_evdw>  (141) 
-20.1852

>  <r_i_glide_ecoul>  (141) 
-0.639543

>  <r_i_glide_erotb>  (141) 
0

>  <r_i_glide_esite>  (141) 
0

>  <r_i_glide_emodel>  (141) 
-22.6071

>  <r_i_glide_energy>  (141) 
-20.8247

>  <r_i_glide_einternal>  (141) 
0.483942

>  <r_i_glide_intrahb_reward>  (141) 
-0

>  <i_i_glide_confnum>  (141) 
2

>  <i_i_glide_posenum>  (141) 
25

>  <r_i_glide_eff_state_penalty>  (141) 
0

>  <ligand_id>  (141) 
32

>  <original_smiles>  (141) 
CC1CCC2(C)COC34CCC5(C)C(CCC6(C)CC(O)(CC13)C(O)C65C)C24

>  <smiles>  (141) 
[H]OC1([H])C2(O[H])C([H])([H])C3([H])C([H])(C([H])([H])[H])C([H])([H])C([H])([H])C4(C([H])([H])[H])C([H])([H])OC35C([H])([H])C([H])([H])C3(C([H])([H])[H])C([H])(C([H])([H])C([H])([H])C(C([H])([H])[H])(C2([H])[H])C13C([H])([H])[H])C54[H]

$$$$
32:0:2
     RDKit          3D

 68 73  0  0  1  0  0  0  0  0999 V2000
    0.6263   -2.3595    4.4650 C   0  0  0  0  0  0  0  0  0  0  0  0
    1.4395   -3.5307    3.8683 C   0  0  2  0  0  0  0  0  0  0  0  0
    0.8429   -4.8494    4.3742 C   0  0  0  0  0  0  0  0  0  0  0  0
    1.0262   -6.0215    3.3969 C   0  0  0  0  0  0  0  0  0  0  0  0
    2.4553   -6.5777    3.2483 C   0  0  2  0  0  0  0  0  0  0  0  0
    2.3926   -7.8955    2.4426 C   0  0  0  0  0  0  0  0  0  0  0  0
    3.0838   -6.7934    4.6382 C   0  0  0  0  0  0  0  0  0  0  0  0
    3.6723   -5.5408    5.0201 O   0  0  0  0  0  0  0  0  0  0  0  0
    3.8963   -4.6982    3.8805 C   0  0  2  0  0  0  0  0  0  0  0  0
    5.4111   -4.4012    3.7431 C   0  0  0  0  0  0  0  0  0  0  0  0
    5.9877   -4.4999    2.2849 C   0  0  0  0  0  0  0  0  0  0  0  0
    5.0033   -4.3512    1.0714 C   0  0  1  0  0  0  0  0  0  0  0  0
    5.5321   -5.4253    0.0803 C   0  0  0  0  0  0  0  0  0  0  0  0
    3.5650   -4.8005    1.4495 C   0  0  1  0  0  0  0  0  0  0  0  0
    2.6065   -4.9797    0.2794 C   0  0  0  0  0  0  0  0  0  0  0  0
    2.8191   -3.8328   -0.7393 C   0  0  0  0  0  0  0  0  0  0  0  0
    3.5488   -2.5530   -0.2135 C   0  0  1  0  0  0  0  0  0  0  0  0
    3.6387   -1.5791   -1.4254 C   0  0  0  0  0  0  0  0  0  0  0  0
    2.7403   -1.8134    0.9261 C   0  0  0  0  0  0  0  0  0  0  0  0
    3.7110   -1.4492    2.0807 C   0  0  1  0  0  0  0  0  0  0  0  0
    3.6057   -0.0399    2.2228 O   0  0  0  0  0  0  0  0  0  0  0  0
    3.5436   -1.9823    3.5768 C   0  0  0  0  0  0  0  0  0  0  0  0
    2.9919   -3.3863    4.0876 C   0  0  1  0  0  0  0  0  0  0  0  0
    5.0637   -1.6619    1.3854 C   0  0  1  0  0  0  0  0  0  0  0  0
    6.1798   -1.5860    2.2266 O   0  0  0  0  0  0  0  0  0  0  0  0
    4.9699   -2.8801    0.4121 C   0  0  1  0  0  0  0  0  0  0  0  0
    6.1366   -2.7300   -0.6097 C   0  0  0  0  0  0  0  0  0  0  0  0
    3.5447   -5.6507    2.7213 C   0  0  2  0  0  0  0  0  0  0  0  0
    0.8667   -2.2065    5.5153 H   0  0  0  0  0  0  0  0  0  0  0  0
   -0.4478   -2.5338    4.3960 H   0  0  0  0  0  0  0  0  0  0  0  0
    0.7981   -1.4259    3.9314 H   0  0  0  0  0  0  0  0  0  0  0  0
    1.2134   -3.5238    2.8123 H   0  0  0  0  0  0  0  0  0  0  0  0
    1.1898   -5.0769    5.3784 H   0  0  0  0  0  0  0  0  0  0  0  0
   -0.2341   -4.7338    4.4878 H   0  0  0  0  0  0  0  0  0  0  0  0
    0.3980   -6.8353    3.7657 H   0  0  0  0  0  0  0  0  0  0  0  0
    0.6129   -5.7728    2.4222 H   0  0  0  0  0  0  0  0  0  0  0  0
    3.3750   -8.3642    2.3438 H   0  0  0  0  0  0  0  0  0  0  0  0
    2.0096   -7.7308    1.4337 H   0  0  0  0  0  0  0  0  0  0  0  0
    1.7419   -8.6257    2.9270 H   0  0  0  0  0  0  0  0  0  0  0  0
    2.3674   -7.1346    5.3878 H   0  0  0  0  0  0  0  0  0  0  0  0
    3.8849   -7.5360    4.5899 H   0  0  0  0  0  0  0  0  0  0  0  0
    5.6946   -3.4701    4.2225 H   0  0  0  0  0  0  0  0  0  0  0  0
    5.9422   -5.1491    4.3369 H   0  0  0  0  0  0  0  0  0  0  0  0
    6.8674   -3.8897    2.0975 H   0  0  0  0  0  0  0  0  0  0  0  0
    6.4247   -5.5002    2.2586 H   0  0  0  0  0  0  0  0  0  0  0  0
    5.0593   -5.4163   -0.8975 H   0  0  0  0  0  0  0  0  0  0  0  0
    5.3961   -6.4313    0.4750 H   0  0  0  0  0  0  0  0  0  0  0  0
    6.6015   -5.3040   -0.0843 H   0  0  0  0  0  0  0  0  0  0  0  0
    3.1041   -3.9396    1.8321 H   0  0  0  0  0  0  0  0  0  0  0  0
    2.7211   -5.9469   -0.2061 H   0  0  0  0  0  0  0  0  0  0  0  0
    1.5900   -4.9314    0.6615 H   0  0  0  0  0  0  0  0  0  0  0  0
    3.4167   -4.2339   -1.5598 H   0  0  0  0  0  0  0  0  0  0  0  0
    1.8649   -3.5569   -1.1926 H   0  0  0  0  0  0  0  0  0  0  0  0
    4.1190   -0.6328   -1.1699 H   0  0  0  0  0  0  0  0  0  0  0  0
    2.6443   -1.3325   -1.8039 H   0  0  0  0  0  0  0  0  0  0  0  0
    4.1810   -2.0077   -2.2687 H   0  0  0  0  0  0  0  0  0  0  0  0
    2.3145   -0.8937    0.5204 H   0  0  0  0  0  0  0  0  0  0  0  0
    1.8571   -2.3622    1.2366 H   0  0  0  0  0  0  0  0  0  0  0  0
    2.7031    0.1719    2.4011 H   0  0  0  0  0  0  0  0  0  0  0  0
    4.4772   -1.7847    4.0986 H   0  0  0  0  0  0  0  0  0  0  0  0
    2.9180   -1.2461    4.0784 H   0  0  0  0  0  0  0  0  0  0  0  0
    3.0616   -3.2587    5.1673 H   0  0  0  0  0  0  0  0  0  0  0  0
    5.2203   -0.7895    0.7507 H   0  0  0  0  0  0  0  0  0  0  0  0
    6.1179   -2.2838    2.8586 H   0  0  0  0  0  0  0  0  0  0  0  0
    6.2428   -1.7118   -0.9739 H   0  0  0  0  0  0  0  0  0  0  0  0
    5.9949   -3.3596   -1.4879 H   0  0  0  0  0  0  0  0  0  0  0  0
    7.0933   -2.9924   -0.1621 H   0  0  0  0  0  0  0  0  0  0  0  0
    4.3651   -6.3599    2.5907 H   0  0  0  0  0  0  0  0  0  0  0  0
  1  2  1  0
  1 29  1  0
  1 30  1  0
  1 31  1  0
  2 23  1  0
  2  3  1  0
  2 32  1  6
  3  4  1  0
  3 33  1  0
  3 34  1  0
  4  5  1  0
  4 35  1  0
  4 36  1  0
  5 28  1  0
  5  6  1  6
  5  7  1  0
  6 37  1  0
  6 38  1  0
  6 39  1  0
  7  8  1  0
  7 40  1  0
  7 41  1  0
  9  8  1  1
  9 23  1  0
  9 28  1  0
  9 10  1  0
 10 11  1  0
 10 42  1  0
 10 43  1  0
 11 12  1  0
 11 44  1  0
 11 45  1  0
 12 26  1  0
 12 13  1  6
 12 14  1  0
 13 46  1  0
 13 47  1  0
 13 48  1  0
 14 15  1  0
 14 28  1  0
 14 49  1  1
 15 16  1  0
 15 50  1  0
 15 51  1  0
 16 17  1  0
 16 52  1  0
 16 53  1  0
 17 26  1  0
 17 18  1  6
 17 19  1  0
 18 54  1  0
 18 55  1  0
 18 56  1  0
 19 20  1  0
 19 57  1  0
 19 58  1  0
 20 21  1  1
 20 22  1  0
 20 24  1  0
 21 59  1  0
 22 23  1  0
 22 60  1  0
 22 61  1  0
 23 62  1  1
 24 25  1  0
 24 26  1  0
 24 63  1  6
 25 64  1  0
 26 27  1  6
 27 65  1  0
 27 66  1  0
 27 67  1  0
 28 68  1  6
M  END
>  <i_m_ct_stereo_status>  (142) 
1

>  <s_m_source_file>  (142) 
/var/tmp/pbs.5076255.sched01/tmpyrjfudeo/454urwji6r.sdf

>  <i_m_source_file_index>  (142) 
17

>  <i_lp_mmshare_version>  (142) 
48012

>  <i_f3d_flags>  (142) 
0

>  <s_epik_input>  (142) 
W0NAQF0xMjNbQ0BASF00W0NASF0oW0NIM10pW0NIMl1bQ0gyXVtDQF0oW0NIM10pKFtDSDJdTzEpW0NASF0zW0NASF01W0NAXShbQ0gzXSkoW0NIMl1bQ0gyXTIpW0NAQF02KFtDSDNdKVtDQEBdKFtDSDNdKShbQ0gyXVtDSDJdNSlbQ0gyXVtDQEBdKFtPSF0pKFtDSDJdNClbQ0BIXTZbT0hd

>  <s_epik_cmdline>  (142) 
J2VwaWtfcHl0aG9uJywgJy1waHQnLCAnMi4wJywgJy1waCcsICc3LjAnLCAnLXRuJywgJzgnLCAnLW1hJywgJzIwMCcsICctaW1hZScsICc8aW5maWxlLm1hZT4nLCAnLW9tYWUnLCAnPG91dGZpbGUubWFlPic=

>  <r_lp_tautomer_probability>  (142) 
1

>  <r_epik_Ionization_Penalty>  (142) 
2.39414e-06

>  <r_epik_Ionization_Penalty_Charging>  (142) 
0

>  <r_epik_Ionization_Penalty_Neutral>  (142) 
2.39414e-06

>  <r_epik_State_Penalty>  (142) 
-0

>  <r_epik_Charging_Adjusted_Penalty>  (142) 
0

>  <i_epik_Tot_Q>  (142) 
0

>  <i_epik_Tot_abs_Q>  (142) 
0

>  <s_lp_Force_Field>  (142) 
OPLS3e

>  <r_lp_Energy>  (142) 
138.769

>  <b_lp_Chiralities_Consistent>  (142) 
1

>  <s_lp_Variant>  (142) 
32:0-1

>  <s_i_glide_gridfile>  (142) 
pfpi4k_grid

>  <i_i_glide_lignum>  (142) 
17

>  <i_i_glide_rotatable_bonds>  (142) 
2

>  <r_i_docking_score>  (142) 
-2.10737

>  <r_i_glide_ligand_efficiency>  (142) 
-0.0752631

>  <r_i_glide_ligand_efficiency_sa>  (142) 
-0.228543

>  <r_i_glide_ligand_efficiency_ln>  (142) 
-0.486442

>  <r_i_glide_gscore>  (142) 
-2.10737

>  <r_i_glide_lipo>  (142) 
-0.297787

>  <r_i_glide_hbond>  (142) 
0

>  <r_i_glide_metal>  (142) 
-0

>  <r_i_glide_rewards>  (142) 
-0.759659

>  <r_i_glide_evdw>  (142) 
-19.8968

>  <r_i_glide_ecoul>  (142) 
-0.367222

>  <r_i_glide_erotb>  (142) 
0

>  <r_i_glide_esite>  (142) 
0

>  <r_i_glide_emodel>  (142) 
-22.1401

>  <r_i_glide_energy>  (142) 
-20.264

>  <r_i_glide_einternal>  (142) 
0.135512

>  <r_i_glide_intrahb_reward>  (142) 
-0

>  <i_i_glide_confnum>  (142) 
2

>  <i_i_glide_posenum>  (142) 
20

>  <r_i_glide_eff_state_penalty>  (142) 
0

>  <ligand_id>  (142) 
32

>  <original_smiles>  (142) 
CC1CCC2(C)COC34CCC5(C)C(CCC6(C)CC(O)(CC13)C(O)C65C)C24

>  <smiles>  (142) 
[H]OC1([H])C2(O[H])C([H])([H])C3([H])C([H])(C([H])([H])[H])C([H])([H])C([H])([H])C4(C([H])([H])[H])C([H])([H])OC35C([H])([H])C([H])([H])C3(C([H])([H])[H])C([H])(C([H])([H])C([H])([H])C(C([H])([H])[H])(C2([H])[H])C13C([H])([H])[H])C54[H]

$$$$
33:0:0
     RDKit          3D

 75 78  0  0  1  0  0  0  0  0999 V2000
    4.5147  -10.4925    5.4362 C   0  0  0  0  0  0  0  0  0  0  0  0
    4.9195   -9.2669    4.8584 O   0  0  0  0  0  0  0  0  0  0  0  0
    4.0507   -8.5440    4.0581 C   0  0  0  0  0  0  0  0  0  0  0  0
    2.7867   -8.8231    3.6450 C   0  0  0  0  0  0  0  0  0  0  0  0
    1.7939   -9.9668    4.0850 C   0  0  2  0  0  0  0  0  0  0  0  0
    1.6516  -10.9946    2.9209 C   0  0  0  0  0  0  0  0  0  0  0  0
    0.4072   -9.4045    4.5412 C   0  0  0  0  0  0  0  0  0  0  0  0
    0.4000   -8.5948    5.8801 C   0  0  0  0  0  0  0  0  0  0  0  0
    1.2103   -7.3041    5.8476 C   0  0  0  0  0  0  0  0  0  0  0  0
    0.8733   -9.3958    7.1182 C   0  0  0  0  0  0  0  0  0  0  0  0
    2.3190   -7.7622    2.6531 C   0  0  0  0  0  0  0  0  0  0  0  0
    3.6623   -7.0509    2.2695 C   0  0  1  0  0  0  0  0  0  0  0  0
    4.1490   -7.8872    1.2105 O   0  0  0  0  0  0  0  0  0  0  0  0
    3.6967   -5.5813    1.7605 C   0  0  2  0  0  0  0  0  0  0  0  0
    2.8630   -5.3022    0.4902 C   0  0  1  0  0  0  0  0  0  0  0  0
    1.5514   -5.8487    0.5392 O   0  0  0  0  0  0  0  0  0  0  0  0
    2.8180   -3.7894    0.1474 C   0  0  0  0  0  0  0  0  0  0  0  0
    3.9440   -2.9738    0.8301 C   0  0  2  0  0  0  0  0  0  0  0  0
    4.0017   -1.5213    0.2832 C   0  0  0  0  0  0  0  0  0  0  0  0
    5.0466   -0.6587    1.0085 C   0  0  1  0  0  0  0  0  0  0  0  0
    4.5894   -0.3397    2.3136 O   0  0  0  0  0  0  0  0  0  0  0  0
    6.4053   -1.3519    1.1121 C   0  0  0  0  0  0  0  0  0  0  0  0
    6.3039   -2.8007    1.6385 C   0  0  0  0  0  0  0  0  0  0  0  0
    5.3260   -3.6944    0.8302 C   0  0  2  0  0  0  0  0  0  0  0  0
    5.8767   -3.8454   -0.6086 C   0  0  0  0  0  0  0  0  0  0  0  0
    5.1921   -5.1641    1.4461 C   0  0  1  0  0  0  0  0  0  0  0  0
    6.2121   -5.5616    2.5664 C   0  0  0  0  0  0  0  0  0  0  0  0
    6.0186   -6.9957    3.1629 C   0  0  1  0  0  0  0  0  0  0  0  0
    6.8688   -7.1450    4.2932 O   0  0  0  0  0  0  0  0  0  0  0  0
    4.5321   -7.1975    3.5554 C   0  0  2  0  0  0  0  0  0  0  0  0
    4.1472   -6.1307    4.6675 C   0  0  0  0  0  0  0  0  0  0  0  0
    5.2773  -11.0076    5.9689 H   0  0  0  0  0  0  0  0  0  0  0  0
    4.1578  -11.1968    4.6459 H   0  0  0  0  0  0  0  0  0  0  0  0
    3.6463  -10.2951    6.0805 H   0  0  0  0  0  0  0  0  0  0  0  0
    2.1584  -10.5292    4.9046 H   0  0  0  0  0  0  0  0  0  0  0  0
    2.6274  -11.3880    2.6337 H   0  0  0  0  0  0  0  0  0  0  0  0
    1.1606  -10.5869    2.0413 H   0  0  0  0  0  0  0  0  0  0  0  0
    1.0561  -11.8520    3.2546 H   0  0  0  0  0  0  0  0  0  0  0  0
   -0.1259   -8.8583    3.7423 H   0  0  0  0  0  0  0  0  0  0  0  0
   -0.1862  -10.2877    4.7182 H   0  0  0  0  0  0  0  0  0  0  0  0
   -0.6479   -8.3321    6.0609 H   0  0  0  0  0  0  0  0  0  0  0  0
    2.2589   -7.5466    5.7000 H   0  0  0  0  0  0  0  0  0  0  0  0
    1.1708   -6.7262    6.7806 H   0  0  0  0  0  0  0  0  0  0  0  0
    0.8408   -6.6727    5.0248 H   0  0  0  0  0  0  0  0  0  0  0  0
    1.9094   -9.7132    7.0362 H   0  0  0  0  0  0  0  0  0  0  0  0
    0.2502  -10.2777    7.2855 H   0  0  0  0  0  0  0  0  0  0  0  0
    0.8193   -8.7718    8.0197 H   0  0  0  0  0  0  0  0  0  0  0  0
    1.7928   -8.1608    1.7810 H   0  0  0  0  0  0  0  0  0  0  0  0
    1.6978   -7.0261    3.1283 H   0  0  0  0  0  0  0  0  0  0  0  0
    5.0352   -7.6680    1.0356 H   0  0  0  0  0  0  0  0  0  0  0  0
    3.2949   -4.9397    2.5465 H   0  0  0  0  0  0  0  0  0  0  0  0
    3.3670   -5.8100   -0.3227 H   0  0  0  0  0  0  0  0  0  0  0  0
    1.6380   -6.7944    0.5757 H   0  0  0  0  0  0  0  0  0  0  0  0
    2.8160   -3.6459   -0.9332 H   0  0  0  0  0  0  0  0  0  0  0  0
    1.8830   -3.3685    0.5140 H   0  0  0  0  0  0  0  0  0  0  0  0
    3.6498   -2.8629    1.8707 H   0  0  0  0  0  0  0  0  0  0  0  0
    4.2385   -1.5454   -0.7778 H   0  0  0  0  0  0  0  0  0  0  0  0
    3.0223   -1.0570    0.3554 H   0  0  0  0  0  0  0  0  0  0  0  0
    5.1597    0.2812    0.4736 H   0  0  0  0  0  0  0  0  0  0  0  0
    4.4214   -1.1315    2.7601 H   0  0  0  0  0  0  0  0  0  0  0  0
    6.8939   -1.3465    0.1357 H   0  0  0  0  0  0  0  0  0  0  0  0
    7.0520   -0.7726    1.7656 H   0  0  0  0  0  0  0  0  0  0  0  0
    7.3031   -3.2370    1.6501 H   0  0  0  0  0  0  0  0  0  0  0  0
    5.9679   -2.7398    2.6742 H   0  0  0  0  0  0  0  0  0  0  0  0
    6.8807   -4.2651   -0.5912 H   0  0  0  0  0  0  0  0  0  0  0  0
    5.9643   -2.8955   -1.1353 H   0  0  0  0  0  0  0  0  0  0  0  0
    5.2459   -4.4851   -1.2294 H   0  0  0  0  0  0  0  0  0  0  0  0
    5.4888   -5.8278    0.6384 H   0  0  0  0  0  0  0  0  0  0  0  0
    7.2270   -5.5149    2.1755 H   0  0  0  0  0  0  0  0  0  0  0  0
    6.2028   -4.8337    3.3697 H   0  0  0  0  0  0  0  0  0  0  0  0
    6.3386   -7.7546    2.4549 H   0  0  0  0  0  0  0  0  0  0  0  0
    6.7471   -8.0042    4.6458 H   0  0  0  0  0  0  0  0  0  0  0  0
    4.5537   -5.1303    4.4752 H   0  0  0  0  0  0  0  0  0  0  0  0
    4.6074   -6.4273    5.6269 H   0  0  0  0  0  0  0  0  0  0  0  0
    3.0958   -6.0669    4.7965 H   0  0  0  0  0  0  0  0  0  0  0  0
  1  2  1  0
  1 32  1  0
  1 33  1  0
  1 34  1  0
  2  3  1  0
  3 30  1  0
  3  4  2  0
  4  5  1  0
  4 11  1  0
  5  6  1  0
  5  7  1  0
  5 35  1  1
  6 36  1  0
  6 37  1  0
  6 38  1  0
  7  8  1  0
  7 39  1  0
  7 40  1  0
  8  9  1  0
  8 10  1  0
  8 41  1  0
  9 42  1  0
  9 43  1  0
  9 44  1  0
 10 45  1  0
 10 46  1  0
 10 47  1  0
 11 12  1  0
 11 48  1  0
 11 49  1  0
 12 30  1  0
 12 13  1  6
 12 14  1  0
 13 50  1  0
 14 26  1  0
 14 15  1  0
 14 51  1  1
 15 16  1  0
 15 17  1  0
 15 52  1  6
 16 53  1  0
 17 18  1  0
 17 54  1  0
 17 55  1  0
 18 24  1  0
 18 19  1  0
 18 56  1  1
 19 20  1  0
 19 57  1  0
 19 58  1  0
 20 21  1  0
 20 22  1  0
 20 59  1  6
 21 60  1  0
 22 23  1  0
 22 61  1  0
 22 62  1  0
 23 24  1  0
 23 63  1  0
 23 64  1  0
 24 25  1  6
 24 26  1  0
 25 65  1  0
 25 66  1  0
 25 67  1  0
 26 27  1  0
 26 68  1  6
 27 28  1  0
 27 69  1  0
 27 70  1  0
 28 29  1  0
 28 30  1  0
 28 71  1  6
 29 72  1  0
 30 31  1  1
 31 73  1  0
 31 74  1  0
 31 75  1  0
M  END
>  <i_m_ct_stereo_status>  (143) 
1

>  <s_m_source_file>  (143) 
/var/tmp/pbs.5076255.sched01/tmpyrjfudeo/454urwji6r.sdf

>  <i_m_source_file_index>  (143) 
18

>  <i_lp_mmshare_version>  (143) 
48012

>  <i_f3d_flags>  (143) 
0

>  <s_epik_input>  (143) 
W0NIM11bQ0hdKFtDSDNdKVtDSDJdW0NAQEhdKFtDSDNdKUMoW0NIMl0xKT1DKE9bQ0gzXSlbQ0BAXTIoW0NIM10pW0NASF0oW09IXSlbQ0gyXVtDQEBIXShbQ0BASF0zW0NAXTEyW09IXSlbQ0BAXTQoW0NIM10pW0NASF0oW0NIMl1bQ0BASF0zW09IXSlbQ0gyXVtDQEBIXShbT0hdKVtDSDJdW0NIMl00

>  <s_epik_cmdline>  (143) 
J2VwaWtfcHl0aG9uJywgJy1waHQnLCAnMi4wJywgJy1waCcsICc3LjAnLCAnLXRuJywgJzgnLCAnLW1hJywgJzIwMCcsICctaW1hZScsICc8aW5maWxlLm1hZT4nLCAnLW9tYWUnLCAnPG91dGZpbGUubWFlPic=

>  <r_lp_tautomer_probability>  (143) 
1

>  <r_epik_Ionization_Penalty>  (143) 
4.2005e-06

>  <r_epik_Ionization_Penalty_Charging>  (143) 
0

>  <r_epik_Ionization_Penalty_Neutral>  (143) 
4.2005e-06

>  <r_epik_State_Penalty>  (143) 
-0

>  <r_epik_Charging_Adjusted_Penalty>  (143) 
0

>  <i_epik_Tot_Q>  (143) 
0

>  <i_epik_Tot_abs_Q>  (143) 
0

>  <s_lp_Force_Field>  (143) 
OPLS3e

>  <r_lp_Energy>  (143) 
44.203

>  <b_lp_Chiralities_Consistent>  (143) 
1

>  <s_lp_Variant>  (143) 
33:0-1

>  <s_i_glide_gridfile>  (143) 
pfpi4k_grid

>  <i_i_glide_lignum>  (143) 
18

>  <i_i_glide_rotatable_bonds>  (143) 
8

>  <r_i_docking_score>  (143) 
-3.02549

>  <r_i_glide_ligand_efficiency>  (143) 
-0.0975966

>  <r_i_glide_ligand_efficiency_sa>  (143) 
-0.306588

>  <r_i_glide_ligand_efficiency_ln>  (143) 
-0.682342

>  <r_i_glide_gscore>  (143) 
-3.02549

>  <r_i_glide_lipo>  (143) 
-0.63462

>  <r_i_glide_hbond>  (143) 
0

>  <r_i_glide_metal>  (143) 
-0

>  <r_i_glide_rewards>  (143) 
-0.932105

>  <r_i_glide_evdw>  (143) 
-21.6525

>  <r_i_glide_ecoul>  (143) 
-3.90184

>  <r_i_glide_erotb>  (143) 
0.20913

>  <r_i_glide_esite>  (143) 
0

>  <r_i_glide_emodel>  (143) 
-32.2945

>  <r_i_glide_energy>  (143) 
-25.5543

>  <r_i_glide_einternal>  (143) 
1.83583

>  <r_i_glide_intrahb_reward>  (143) 
-0.5

>  <i_i_glide_confnum>  (143) 
5

>  <i_i_glide_posenum>  (143) 
1

>  <r_i_glide_eff_state_penalty>  (143) 
0

>  <ligand_id>  (143) 
33

>  <original_smiles>  (143) 
COC1=C(C(C)CC(C)C)CC2(O)C3C(O)CC4CC(O)CCC4(C)C3CC(O)C12C

>  <smiles>  (143) 
[H]OC1([H])C([H])([H])C([H])([H])C2(C([H])([H])[H])C([H])(C1([H])[H])C([H])([H])C([H])(O[H])C1([H])C2([H])C([H])([H])C([H])(O[H])C2(C([H])([H])[H])C(OC([H])([H])[H])=C(C([H])(C([H])([H])[H])C([H])([H])C([H])(C([H])([H])[H])C([H])([H])[H])C([H])([H])C12O[H]

$$$$
33:0:1
     RDKit          3D

 75 78  0  0  1  0  0  0  0  0999 V2000
    3.5910   -9.7554    5.6567 C   0  0  0  0  0  0  0  0  0  0  0  0
    4.0343   -8.4917    5.1799 O   0  0  0  0  0  0  0  0  0  0  0  0
    3.3950   -7.9393    4.0914 C   0  0  0  0  0  0  0  0  0  0  0  0
    2.3661   -8.3729    3.3414 C   0  0  0  0  0  0  0  0  0  0  0  0
    1.4722   -9.6177    3.5212 C   0  0  2  0  0  0  0  0  0  0  0  0
    2.0471  -10.8168    2.7417 C   0  0  0  0  0  0  0  0  0  0  0  0
   -0.0189   -9.3752    3.1723 C   0  0  0  0  0  0  0  0  0  0  0  0
   -0.6500   -8.0964    3.7784 C   0  0  0  0  0  0  0  0  0  0  0  0
   -0.3247   -7.8880    5.2775 C   0  0  0  0  0  0  0  0  0  0  0  0
   -2.1603   -8.0854    3.5542 C   0  0  0  0  0  0  0  0  0  0  0  0
    2.1017   -7.3732    2.2035 C   0  0  0  0  0  0  0  0  0  0  0  0
    3.3996   -6.5412    2.1815 C   0  0  1  0  0  0  0  0  0  0  0  0
    4.2964   -7.3093    1.3806 O   0  0  0  0  0  0  0  0  0  0  0  0
    3.4088   -5.0889    1.6121 C   0  0  2  0  0  0  0  0  0  0  0  0
    2.9798   -4.9271    0.1319 C   0  0  1  0  0  0  0  0  0  0  0  0
    1.7645   -5.5623   -0.2042 O   0  0  0  0  0  0  0  0  0  0  0  0
    2.8442   -3.4525   -0.2859 C   0  0  0  0  0  0  0  0  0  0  0  0
    3.5965   -2.4799    0.6419 C   0  0  2  0  0  0  0  0  0  0  0  0
    3.6420   -1.0504    0.0536 C   0  0  0  0  0  0  0  0  0  0  0  0
    4.2804   -0.0334    1.0075 C   0  0  1  0  0  0  0  0  0  0  0  0
    3.3969    0.2385    2.0767 O   0  0  0  0  0  0  0  0  0  0  0  0
    5.6260   -0.5317    1.5559 C   0  0  0  0  0  0  0  0  0  0  0  0
    5.5455   -1.9681    2.1135 C   0  0  0  0  0  0  0  0  0  0  0  0
    4.9863   -3.0151    1.1053 C   0  0  2  0  0  0  0  0  0  0  0  0
    5.9668   -3.1126   -0.0964 C   0  0  0  0  0  0  0  0  0  0  0  0
    4.8520   -4.4722    1.7363 C   0  0  1  0  0  0  0  0  0  0  0  0
    5.5215   -4.7099    3.1327 C   0  0  0  0  0  0  0  0  0  0  0  0
    5.3210   -6.1268    3.7477 C   0  0  1  0  0  0  0  0  0  0  0  0
    5.8043   -6.1316    5.0777 O   0  0  0  0  0  0  0  0  0  0  0  0
    3.8265   -6.5369    3.6792 C   0  0  2  0  0  0  0  0  0  0  0  0
    2.9748   -5.5842    4.5833 C   0  0  0  0  0  0  0  0  0  0  0  0
    4.2239  -10.1222    6.4663 H   0  0  0  0  0  0  0  0  0  0  0  0
    3.6384  -10.5119    4.8793 H   0  0  0  0  0  0  0  0  0  0  0  0
    2.5853   -9.6683    6.0153 H   0  0  0  0  0  0  0  0  0  0  0  0
    1.4531   -9.9113    4.5298 H   0  0  0  0  0  0  0  0  0  0  0  0
    3.0887  -11.0478    2.9786 H   0  0  0  0  0  0  0  0  0  0  0  0
    2.0564  -10.5938    1.6758 H   0  0  0  0  0  0  0  0  0  0  0  0
    1.4584  -11.7258    2.8977 H   0  0  0  0  0  0  0  0  0  0  0  0
   -0.1956   -9.3796    2.0875 H   0  0  0  0  0  0  0  0  0  0  0  0
   -0.5640  -10.2453    3.5377 H   0  0  0  0  0  0  0  0  0  0  0  0
   -0.2967   -7.2207    3.2536 H   0  0  0  0  0  0  0  0  0  0  0  0
   -0.6418   -8.7180    5.9063 H   0  0  0  0  0  0  0  0  0  0  0  0
   -0.7900   -6.9749    5.6514 H   0  0  0  0  0  0  0  0  0  0  0  0
    0.7419   -7.7575    5.4389 H   0  0  0  0  0  0  0  0  0  0  0  0
   -2.6300   -8.9196    4.0766 H   0  0  0  0  0  0  0  0  0  0  0  0
   -2.3871   -8.1828    2.4917 H   0  0  0  0  0  0  0  0  0  0  0  0
   -2.5963   -7.1454    3.9039 H   0  0  0  0  0  0  0  0  0  0  0  0
    1.8934   -7.8615    1.2560 H   0  0  0  0  0  0  0  0  0  0  0  0
    1.3035   -6.6875    2.4259 H   0  0  0  0  0  0  0  0  0  0  0  0
    3.9410   -7.3411    0.5059 H   0  0  0  0  0  0  0  0  0  0  0  0
    2.7107   -4.4987    2.2043 H   0  0  0  0  0  0  0  0  0  0  0  0
    3.7492   -5.3863   -0.4892 H   0  0  0  0  0  0  0  0  0  0  0  0
    1.8453   -5.7972   -1.1253 H   0  0  0  0  0  0  0  0  0  0  0  0
    3.1573   -3.3406   -1.3277 H   0  0  0  0  0  0  0  0  0  0  0  0
    1.7974   -3.1590   -0.2721 H   0  0  0  0  0  0  0  0  0  0  0  0
    2.9838   -2.3952    1.5423 H   0  0  0  0  0  0  0  0  0  0  0  0
    4.1724   -1.0548   -0.8941 H   0  0  0  0  0  0  0  0  0  0  0  0
    2.6310   -0.7134   -0.1743 H   0  0  0  0  0  0  0  0  0  0  0  0
    4.4211    0.9043    0.4778 H   0  0  0  0  0  0  0  0  0  0  0  0
    3.1487   -0.5820    2.4718 H   0  0  0  0  0  0  0  0  0  0  0  0
    6.3770   -0.4735    0.7661 H   0  0  0  0  0  0  0  0  0  0  0  0
    5.9701    0.1354    2.3442 H   0  0  0  0  0  0  0  0  0  0  0  0
    6.5413   -2.2531    2.4459 H   0  0  0  0  0  0  0  0  0  0  0  0
    4.9131   -1.9352    2.9963 H   0  0  0  0  0  0  0  0  0  0  0  0
    6.9576   -3.4242    0.2323 H   0  0  0  0  0  0  0  0  0  0  0  0
    6.0941   -2.1711   -0.6219 H   0  0  0  0  0  0  0  0  0  0  0  0
    5.6287   -3.8352   -0.8407 H   0  0  0  0  0  0  0  0  0  0  0  0
    5.4639   -5.1109    1.1037 H   0  0  0  0  0  0  0  0  0  0  0  0
    6.5810   -4.5746    3.0202 H   0  0  0  0  0  0  0  0  0  0  0  0
    5.1719   -3.9632    3.8522 H   0  0  0  0  0  0  0  0  0  0  0  0
    5.9309   -6.8448    3.2049 H   0  0  0  0  0  0  0  0  0  0  0  0
    5.6984   -7.0068    5.4248 H   0  0  0  0  0  0  0  0  0  0  0  0
    3.1298   -4.5168    4.3915 H   0  0  0  0  0  0  0  0  0  0  0  0
    3.2053   -5.7442    5.6407 H   0  0  0  0  0  0  0  0  0  0  0  0
    1.9042   -5.7671    4.4768 H   0  0  0  0  0  0  0  0  0  0  0  0
  1  2  1  0
  1 32  1  0
  1 33  1  0
  1 34  1  0
  2  3  1  0
  3 30  1  0
  3  4  2  0
  4  5  1  0
  4 11  1  0
  5  6  1  0
  5  7  1  0
  5 35  1  1
  6 36  1  0
  6 37  1  0
  6 38  1  0
  7  8  1  0
  7 39  1  0
  7 40  1  0
  8  9  1  0
  8 10  1  0
  8 41  1  0
  9 42  1  0
  9 43  1  0
  9 44  1  0
 10 45  1  0
 10 46  1  0
 10 47  1  0
 11 12  1  0
 11 48  1  0
 11 49  1  0
 12 30  1  0
 12 13  1  6
 12 14  1  0
 13 50  1  0
 14 26  1  0
 14 15  1  0
 14 51  1  1
 15 16  1  0
 15 17  1  0
 15 52  1  6
 16 53  1  0
 17 18  1  0
 17 54  1  0
 17 55  1  0
 18 24  1  0
 18 19  1  0
 18 56  1  1
 19 20  1  0
 19 57  1  0
 19 58  1  0
 20 21  1  0
 20 22  1  0
 20 59  1  6
 21 60  1  0
 22 23  1  0
 22 61  1  0
 22 62  1  0
 23 24  1  0
 23 63  1  0
 23 64  1  0
 24 25  1  6
 24 26  1  0
 25 65  1  0
 25 66  1  0
 25 67  1  0
 26 27  1  0
 26 68  1  6
 27 28  1  0
 27 69  1  0
 27 70  1  0
 28 29  1  0
 28 30  1  0
 28 71  1  6
 29 72  1  0
 30 31  1  1
 31 73  1  0
 31 74  1  0
 31 75  1  0
M  END
>  <i_m_ct_stereo_status>  (144) 
1

>  <s_m_source_file>  (144) 
/var/tmp/pbs.5076255.sched01/tmpyrjfudeo/454urwji6r.sdf

>  <i_m_source_file_index>  (144) 
18

>  <i_lp_mmshare_version>  (144) 
48012

>  <i_f3d_flags>  (144) 
0

>  <s_epik_input>  (144) 
W0NIM11bQ0hdKFtDSDNdKVtDSDJdW0NAQEhdKFtDSDNdKUMoW0NIMl0xKT1DKE9bQ0gzXSlbQ0BAXTIoW0NIM10pW0NASF0oW09IXSlbQ0gyXVtDQEBIXShbQ0BASF0zW0NAXTEyW09IXSlbQ0BAXTQoW0NIM10pW0NASF0oW0NIMl1bQ0BASF0zW09IXSlbQ0gyXVtDQEBIXShbT0hdKVtDSDJdW0NIMl00

>  <s_epik_cmdline>  (144) 
J2VwaWtfcHl0aG9uJywgJy1waHQnLCAnMi4wJywgJy1waCcsICc3LjAnLCAnLXRuJywgJzgnLCAnLW1hJywgJzIwMCcsICctaW1hZScsICc8aW5maWxlLm1hZT4nLCAnLW9tYWUnLCAnPG91dGZpbGUubWFlPic=

>  <r_lp_tautomer_probability>  (144) 
1

>  <r_epik_Ionization_Penalty>  (144) 
4.2005e-06

>  <r_epik_Ionization_Penalty_Charging>  (144) 
0

>  <r_epik_Ionization_Penalty_Neutral>  (144) 
4.2005e-06

>  <r_epik_State_Penalty>  (144) 
-0

>  <r_epik_Charging_Adjusted_Penalty>  (144) 
0

>  <i_epik_Tot_Q>  (144) 
0

>  <i_epik_Tot_abs_Q>  (144) 
0

>  <s_lp_Force_Field>  (144) 
OPLS3e

>  <r_lp_Energy>  (144) 
44.203

>  <b_lp_Chiralities_Consistent>  (144) 
1

>  <s_lp_Variant>  (144) 
33:0-1

>  <s_i_glide_gridfile>  (144) 
pfpi4k_grid

>  <i_i_glide_lignum>  (144) 
18

>  <i_i_glide_rotatable_bonds>  (144) 
8

>  <r_i_docking_score>  (144) 
-2.90118

>  <r_i_glide_ligand_efficiency>  (144) 
-0.0935864

>  <r_i_glide_ligand_efficiency_sa>  (144) 
-0.293991

>  <r_i_glide_ligand_efficiency_ln>  (144) 
-0.654305

>  <r_i_glide_gscore>  (144) 
-2.90118

>  <r_i_glide_lipo>  (144) 
-0.44906

>  <r_i_glide_hbond>  (144) 
0

>  <r_i_glide_metal>  (144) 
-0

>  <r_i_glide_rewards>  (144) 
-0.932105

>  <r_i_glide_evdw>  (144) 
-19.8028

>  <r_i_glide_ecoul>  (144) 
-4.92669

>  <r_i_glide_erotb>  (144) 
0.20913

>  <r_i_glide_esite>  (144) 
0

>  <r_i_glide_emodel>  (144) 
-30.5458

>  <r_i_glide_energy>  (144) 
-24.7295

>  <r_i_glide_einternal>  (144) 
3.46996

>  <r_i_glide_intrahb_reward>  (144) 
-0.5

>  <i_i_glide_confnum>  (144) 
6

>  <i_i_glide_posenum>  (144) 
6

>  <r_i_glide_eff_state_penalty>  (144) 
0

>  <ligand_id>  (144) 
33

>  <original_smiles>  (144) 
COC1=C(C(C)CC(C)C)CC2(O)C3C(O)CC4CC(O)CCC4(C)C3CC(O)C12C

>  <smiles>  (144) 
[H]OC1([H])C([H])([H])C([H])([H])C2(C([H])([H])[H])C([H])(C1([H])[H])C([H])([H])C([H])(O[H])C1([H])C2([H])C([H])([H])C([H])(O[H])C2(C([H])([H])[H])C(OC([H])([H])[H])=C(C([H])(C([H])([H])[H])C([H])([H])C([H])(C([H])([H])[H])C([H])([H])[H])C([H])([H])C12O[H]

$$$$
33:0:2
     RDKit          3D

 75 78  0  0  1  0  0  0  0  0999 V2000
    2.2837   -9.1981    6.6885 C   0  0  0  0  0  0  0  0  0  0  0  0
    2.4873   -7.8153    6.4708 O   0  0  0  0  0  0  0  0  0  0  0  0
    2.3865   -7.3184    5.1788 C   0  0  0  0  0  0  0  0  0  0  0  0
    2.1055   -7.9268    4.0042 C   0  0  0  0  0  0  0  0  0  0  0  0
    1.6945   -9.3879    3.6913 C   0  0  2  0  0  0  0  0  0  0  0  0
    2.8082  -10.1238    2.9138 C   0  0  0  0  0  0  0  0  0  0  0  0
    0.2987   -9.5375    3.0248 C   0  0  0  0  0  0  0  0  0  0  0  0
   -0.7239   -8.3887    3.2639 C   0  0  0  0  0  0  0  0  0  0  0  0
   -1.0472   -8.1169    4.7587 C   0  0  0  0  0  0  0  0  0  0  0  0
   -2.0146   -8.6527    2.4827 C   0  0  0  0  0  0  0  0  0  0  0  0
    2.1932   -6.8908    2.8740 C   0  0  0  0  0  0  0  0  0  0  0  0
    2.9672   -5.7283    3.5416 C   0  0  1  0  0  0  0  0  0  0  0  0
    4.3328   -6.1041    3.4076 O   0  0  0  0  0  0  0  0  0  0  0  0
    2.8172   -4.2677    3.0104 C   0  0  2  0  0  0  0  0  0  0  0  0
    3.2142   -4.0503    1.5272 C   0  0  1  0  0  0  0  0  0  0  0  0
    2.6328   -4.9927    0.6489 O   0  0  0  0  0  0  0  0  0  0  0  0
    2.8455   -2.6310    1.0419 C   0  0  0  0  0  0  0  0  0  0  0  0
    2.6481   -1.6142    2.1913 C   0  0  2  0  0  0  0  0  0  0  0  0
    2.5563   -0.1593    1.6679 C   0  0  0  0  0  0  0  0  0  0  0  0
    2.2312    0.8588    2.7718 C   0  0  1  0  0  0  0  0  0  0  0  0
    0.8842    0.7181    3.1709 O   0  0  0  0  0  0  0  0  0  0  0  0
    3.1561    0.6945    3.9846 C   0  0  0  0  0  0  0  0  0  0  0  0
    3.2473   -0.7691    4.4677 C   0  0  0  0  0  0  0  0  0  0  0  0
    3.6686   -1.7837    3.3655 C   0  0  2  0  0  0  0  0  0  0  0  0
    5.1067   -1.4366    2.8956 C   0  0  0  0  0  0  0  0  0  0  0  0
    3.6865   -3.2903    3.8822 C   0  0  1  0  0  0  0  0  0  0  0  0
    3.5333   -3.5154    5.4272 C   0  0  0  0  0  0  0  0  0  0  0  0
    3.5073   -5.0086    5.8863 C   0  0  1  0  0  0  0  0  0  0  0  0
    3.1730   -5.0616    7.2617 O   0  0  0  0  0  0  0  0  0  0  0  0
    2.5036   -5.8129    5.0270 C   0  0  2  0  0  0  0  0  0  0  0  0
    1.0510   -5.2680    5.2717 C   0  0  0  0  0  0  0  0  0  0  0  0
    2.4427   -9.5096    7.7136 H   0  0  0  0  0  0  0  0  0  0  0  0
    2.9689   -9.7947    6.0727 H   0  0  0  0  0  0  0  0  0  0  0  0
    1.2553   -9.4573    6.4065 H   0  0  0  0  0  0  0  0  0  0  0  0
    1.5783   -9.9845    4.5835 H   0  0  0  0  0  0  0  0  0  0  0  0
    3.7393  -10.0810    3.4801 H   0  0  0  0  0  0  0  0  0  0  0  0
    2.9956   -9.7322    1.9123 H   0  0  0  0  0  0  0  0  0  0  0  0
    2.5541  -11.1796    2.8218 H   0  0  0  0  0  0  0  0  0  0  0  0
    0.4096   -9.6922    1.9544 H   0  0  0  0  0  0  0  0  0  0  0  0
   -0.1256  -10.4649    3.4043 H   0  0  0  0  0  0  0  0  0  0  0  0
   -0.3609   -7.4743    2.8212 H   0  0  0  0  0  0  0  0  0  0  0  0
   -1.4442   -8.9827    5.2834 H   0  0  0  0  0  0  0  0  0  0  0  0
   -1.7508   -7.2845    4.8465 H   0  0  0  0  0  0  0  0  0  0  0  0
   -0.1685   -7.8166    5.3146 H   0  0  0  0  0  0  0  0  0  0  0  0
   -2.5608   -9.5300    2.8376 H   0  0  0  0  0  0  0  0  0  0  0  0
   -1.7725   -8.7887    1.4269 H   0  0  0  0  0  0  0  0  0  0  0  0
   -2.6528   -7.7707    2.5592 H   0  0  0  0  0  0  0  0  0  0  0  0
    2.7008   -7.2971    1.9930 H   0  0  0  0  0  0  0  0  0  0  0  0
    1.2454   -6.4790    2.5661 H   0  0  0  0  0  0  0  0  0  0  0  0
    4.5284   -6.1517    2.4822 H   0  0  0  0  0  0  0  0  0  0  0  0
    1.7646   -3.9943    3.0943 H   0  0  0  0  0  0  0  0  0  0  0  0
    4.2956   -4.1576    1.4375 H   0  0  0  0  0  0  0  0  0  0  0  0
    3.1086   -5.8124    0.7269 H   0  0  0  0  0  0  0  0  0  0  0  0
    3.6039   -2.2849    0.3351 H   0  0  0  0  0  0  0  0  0  0  0  0
    1.9152   -2.6679    0.4723 H   0  0  0  0  0  0  0  0  0  0  0  0
    1.6609   -1.8261    2.6043 H   0  0  0  0  0  0  0  0  0  0  0  0
    3.4845    0.1179    1.1676 H   0  0  0  0  0  0  0  0  0  0  0  0
    1.7874   -0.0886    0.9107 H   0  0  0  0  0  0  0  0  0  0  0  0
    2.3357    1.8666    2.3652 H   0  0  0  0  0  0  0  0  0  0  0  0
    0.7423   -0.1874    3.4105 H   0  0  0  0  0  0  0  0  0  0  0  0
    4.1459    1.0660    3.7285 H   0  0  0  0  0  0  0  0  0  0  0  0
    2.8076    1.3342    4.7925 H   0  0  0  0  0  0  0  0  0  0  0  0
    3.9382   -0.8074    5.3113 H   0  0  0  0  0  0  0  0  0  0  0  0
    2.2659   -1.0430    4.8561 H   0  0  0  0  0  0  0  0  0  0  0  0
    5.8093   -1.4949    3.7267 H   0  0  0  0  0  0  0  0  0  0  0  0
    5.1937   -0.4322    2.4889 H   0  0  0  0  0  0  0  0  0  0  0  0
    5.4625   -2.1148    2.1208 H   0  0  0  0  0  0  0  0  0  0  0  0
    4.7058   -3.6380    3.7119 H   0  0  0  0  0  0  0  0  0  0  0  0
    4.3646   -3.0317    5.9355 H   0  0  0  0  0  0  0  0  0  0  0  0
    2.6379   -3.0187    5.7937 H   0  0  0  0  0  0  0  0  0  0  0  0
    4.5026   -5.4424    5.7975 H   0  0  0  0  0  0  0  0  0  0  0  0
    3.1994   -5.9720    7.5319 H   0  0  0  0  0  0  0  0  0  0  0  0
    0.9418   -4.1882    5.1621 H   0  0  0  0  0  0  0  0  0  0  0  0
    0.7082   -5.5122    6.2836 H   0  0  0  0  0  0  0  0  0  0  0  0
    0.3277   -5.7074    4.5870 H   0  0  0  0  0  0  0  0  0  0  0  0
  1  2  1  0
  1 32  1  0
  1 33  1  0
  1 34  1  0
  2  3  1  0
  3 30  1  0
  3  4  2  0
  4  5  1  0
  4 11  1  0
  5  6  1  0
  5  7  1  0
  5 35  1  1
  6 36  1  0
  6 37  1  0
  6 38  1  0
  7  8  1  0
  7 39  1  0
  7 40  1  0
  8  9  1  0
  8 10  1  0
  8 41  1  0
  9 42  1  0
  9 43  1  0
  9 44  1  0
 10 45  1  0
 10 46  1  0
 10 47  1  0
 11 12  1  0
 11 48  1  0
 11 49  1  0
 12 30  1  0
 12 13  1  1
 12 14  1  0
 13 50  1  0
 14 26  1  0
 14 15  1  0
 14 51  1  6
 15 16  1  0
 15 17  1  0
 15 52  1  1
 16 53  1  0
 17 18  1  0
 17 54  1  0
 17 55  1  0
 18 24  1  0
 18 19  1  0
 18 56  1  1
 19 20  1  0
 19 57  1  0
 19 58  1  0
 20 21  1  0
 20 22  1  0
 20 59  1  6
 21 60  1  0
 22 23  1  0
 22 61  1  0
 22 62  1  0
 23 24  1  0
 23 63  1  0
 23 64  1  0
 24 25  1  6
 24 26  1  0
 25 65  1  0
 25 66  1  0
 25 67  1  0
 26 27  1  0
 26 68  1  6
 27 28  1  0
 27 69  1  0
 27 70  1  0
 28 29  1  0
 28 30  1  0
 28 71  1  1
 29 72  1  0
 30 31  1  6
 31 73  1  0
 31 74  1  0
 31 75  1  0
M  END
>  <i_m_ct_stereo_status>  (145) 
1

>  <s_m_source_file>  (145) 
/var/tmp/pbs.5076255.sched01/tmpyrjfudeo/454urwji6r.sdf

>  <i_m_source_file_index>  (145) 
18

>  <i_lp_mmshare_version>  (145) 
48012

>  <i_f3d_flags>  (145) 
0

>  <s_epik_input>  (145) 
W0NIM11bQ0hdKFtDSDNdKVtDSDJdW0NAQEhdKFtDSDNdKUMoW0NIMl0xKT1DKE9bQ0gzXSlbQ0BAXTIoW0NIM10pW0NASF0oW09IXSlbQ0gyXVtDQEBIXShbQ0BASF0zW0NAXTEyW09IXSlbQ0BAXTQoW0NIM10pW0NASF0oW0NIMl1bQ0BASF0zW09IXSlbQ0gyXVtDQEBIXShbT0hdKVtDSDJdW0NIMl00

>  <s_epik_cmdline>  (145) 
J2VwaWtfcHl0aG9uJywgJy1waHQnLCAnMi4wJywgJy1waCcsICc3LjAnLCAnLXRuJywgJzgnLCAnLW1hJywgJzIwMCcsICctaW1hZScsICc8aW5maWxlLm1hZT4nLCAnLW9tYWUnLCAnPG91dGZpbGUubWFlPic=

>  <r_lp_tautomer_probability>  (145) 
1

>  <r_epik_Ionization_Penalty>  (145) 
4.2005e-06

>  <r_epik_Ionization_Penalty_Charging>  (145) 
0

>  <r_epik_Ionization_Penalty_Neutral>  (145) 
4.2005e-06

>  <r_epik_State_Penalty>  (145) 
-0

>  <r_epik_Charging_Adjusted_Penalty>  (145) 
0

>  <i_epik_Tot_Q>  (145) 
0

>  <i_epik_Tot_abs_Q>  (145) 
0

>  <s_lp_Force_Field>  (145) 
OPLS3e

>  <r_lp_Energy>  (145) 
44.203

>  <b_lp_Chiralities_Consistent>  (145) 
1

>  <s_lp_Variant>  (145) 
33:0-1

>  <s_i_glide_gridfile>  (145) 
pfpi4k_grid

>  <i_i_glide_lignum>  (145) 
18

>  <i_i_glide_rotatable_bonds>  (145) 
8

>  <r_i_docking_score>  (145) 
-2.2805

>  <r_i_glide_ligand_efficiency>  (145) 
-0.0735647

>  <r_i_glide_ligand_efficiency_sa>  (145) 
-0.231095

>  <r_i_glide_ligand_efficiency_ln>  (145) 
-0.514324

>  <r_i_glide_gscore>  (145) 
-2.2805

>  <r_i_glide_lipo>  (145) 
-0.277821

>  <r_i_glide_hbond>  (145) 
0

>  <r_i_glide_metal>  (145) 
-0

>  <r_i_glide_rewards>  (145) 
-0.932105

>  <r_i_glide_evdw>  (145) 
-21.2243

>  <r_i_glide_ecoul>  (145) 
-1.45664

>  <r_i_glide_erotb>  (145) 
0.20913

>  <r_i_glide_esite>  (145) 
0

>  <r_i_glide_emodel>  (145) 
-28.2329

>  <r_i_glide_energy>  (145) 
-22.6809

>  <r_i_glide_einternal>  (145) 
3.48745

>  <r_i_glide_intrahb_reward>  (145) 
-0.5

>  <i_i_glide_confnum>  (145) 
6

>  <i_i_glide_posenum>  (145) 
7

>  <r_i_glide_eff_state_penalty>  (145) 
0

>  <ligand_id>  (145) 
33

>  <original_smiles>  (145) 
COC1=C(C(C)CC(C)C)CC2(O)C3C(O)CC4CC(O)CCC4(C)C3CC(O)C12C

>  <smiles>  (145) 
[H]OC1([H])C([H])([H])C([H])([H])C2(C([H])([H])[H])C([H])(C1([H])[H])C([H])([H])C([H])(O[H])C1([H])C2([H])C([H])([H])C([H])(O[H])C2(C([H])([H])[H])C(OC([H])([H])[H])=C(C([H])(C([H])([H])[H])C([H])([H])C([H])(C([H])([H])[H])C([H])([H])[H])C([H])([H])C12O[H]

$$$$
34:0:0
     RDKit          3D

 88 94  0  0  1  0  0  0  0  0999 V2000
    0.0081   -8.6387    4.9564 C   0  0  0  0  0  0  0  0  0  0  0  0
   -0.5988   -8.1859    3.6399 C   0  0  0  0  0  0  0  0  0  0  0  0
   -2.0765   -7.9039    3.7361 C   0  0  0  0  0  0  0  0  0  0  0  0
    0.0743   -8.0305    2.4786 C   0  0  0  0  0  0  0  0  0  0  0  0
    1.5641   -8.2332    2.1937 C   0  0  0  0  0  0  0  0  0  0  0  0
    2.4606   -6.9401    2.2040 C   0  0  1  0  0  0  0  0  0  0  0  0
    1.8083   -6.0576    1.0768 C   0  0  0  0  0  0  0  0  0  0  0  0
    2.4138   -6.1719    3.5657 C   0  0  0  0  0  0  0  0  0  0  0  0
    1.5018   -4.9489    3.6617 C   0  0  0  0  0  0  0  0  0  0  0  0
    3.4322   -6.3051    4.4561 C   0  0  0  0  0  0  0  0  0  0  0  0
    4.0678   -7.6540    4.6714 C   0  0  1  0  0  0  0  0  0  0  0  0
    3.1758   -8.7159    4.7476 O   0  0  0  0  0  0  0  0  0  0  0  0
    5.3357   -7.8057    3.8427 C   0  0  0  0  0  0  0  0  0  0  0  0
    5.0067   -8.2738    2.3703 C   0  0  0  0  0  0  0  0  0  0  0  0
    6.2628   -8.4478    1.4628 C   0  0  0  0  0  0  0  0  0  0  0  0
    4.4891   -9.7490    2.2848 C   0  0  0  0  0  0  0  0  0  0  0  0
    3.9868   -7.1815    1.7138 C   0  0  2  0  0  0  0  0  0  0  0  0
    4.7227   -5.8004    1.3860 C   0  0  0  0  0  0  0  0  0  0  0  0
    4.6231   -4.5001    2.2195 C   0  0  0  0  0  0  0  0  0  0  0  0
    4.4460   -4.1946    3.5749 C   0  0  0  0  0  0  0  0  0  0  0  0
    4.2594   -2.8002    3.6761 N   0  0  0  0  0  0  0  0  0  0  0  0
    3.8368   -2.0358    4.8343 C   0  0  0  0  0  0  0  0  0  0  0  0
    4.5646   -2.2003    2.4691 C   0  0  0  0  0  0  0  0  0  0  0  0
    4.6436   -0.8423    2.0915 C   0  0  0  0  0  0  0  0  0  0  0  0
    4.9776   -0.5034    0.7752 C   0  0  0  0  0  0  0  0  0  0  0  0
    5.2222   -1.5198   -0.1655 C   0  0  0  0  0  0  0  0  0  0  0  0
    5.1265   -2.8676    0.2157 C   0  0  0  0  0  0  0  0  0  0  0  0
    4.7991   -3.2406    1.5430 C   0  0  0  0  0  0  0  0  0  0  0  0
    4.3513   -5.1242    4.8014 C   0  0  1  0  0  0  0  0  0  0  0  0
    4.5435   -4.6950    6.2512 C   0  0  0  0  0  0  0  0  0  0  0  0
    5.7371   -5.2823    5.5413 C   0  0  1  0  0  0  0  0  0  0  0  0
    6.4197   -6.6208    5.9672 C   0  0  2  0  0  0  0  0  0  0  0  0
    5.7919   -7.1402    7.3403 C   0  0  0  0  0  0  0  0  0  0  0  0
    7.8840   -6.6144    6.4675 C   0  0  0  0  0  0  0  0  0  0  0  0
    8.2897   -7.9858    6.2538 O   0  0  0  0  0  0  0  0  0  0  0  0
    7.5197   -8.6469    5.2209 C   0  0  1  0  0  0  0  0  0  0  0  0
    6.7377   -9.8776    5.7251 C   0  0  0  0  0  0  0  0  0  0  0  0
    6.6800   -7.5035    4.6445 C   0  0  1  0  0  0  0  0  0  0  0  0
    7.6769   -6.7660    3.6515 C   0  0  0  0  0  0  0  0  0  0  0  0
   -0.6216   -9.4009    5.4262 H   0  0  0  0  0  0  0  0  0  0  0  0
    0.0876   -7.7982    5.6517 H   0  0  0  0  0  0  0  0  0  0  0  0
    0.9710   -9.0922    4.7954 H   0  0  0  0  0  0  0  0  0  0  0  0
   -2.5841   -8.8106    4.0703 H   0  0  0  0  0  0  0  0  0  0  0  0
   -2.5052   -7.5885    2.7838 H   0  0  0  0  0  0  0  0  0  0  0  0
   -2.2312   -7.1229    4.4777 H   0  0  0  0  0  0  0  0  0  0  0  0
   -0.4882   -7.7197    1.6108 H   0  0  0  0  0  0  0  0  0  0  0  0
    1.9159   -9.0428    2.8105 H   0  0  0  0  0  0  0  0  0  0  0  0
    1.6243   -8.6581    1.1928 H   0  0  0  0  0  0  0  0  0  0  0  0
    1.8902   -6.5201    0.0920 H   0  0  0  0  0  0  0  0  0  0  0  0
    2.2473   -5.0661    0.9754 H   0  0  0  0  0  0  0  0  0  0  0  0
    0.7471   -5.8768    1.2346 H   0  0  0  0  0  0  0  0  0  0  0  0
    0.4567   -5.2433    3.5819 H   0  0  0  0  0  0  0  0  0  0  0  0
    1.7039   -4.1810    2.9156 H   0  0  0  0  0  0  0  0  0  0  0  0
    1.6099   -4.4689    4.6352 H   0  0  0  0  0  0  0  0  0  0  0  0
    4.2804   -7.7688    5.6941 H   0  0  0  0  0  0  0  0  0  0  0  0
    3.6140   -9.4351    5.1648 H   0  0  0  0  0  0  0  0  0  0  0  0
    5.4347   -6.8147    3.4656 H   0  0  0  0  0  0  0  0  0  0  0  0
    5.9798   -8.8585    0.4908 H   0  0  0  0  0  0  0  0  0  0  0  0
    6.9728   -9.1526    1.9022 H   0  0  0  0  0  0  0  0  0  0  0  0
    6.8421   -7.5591    1.2452 H   0  0  0  0  0  0  0  0  0  0  0  0
    4.0364   -9.9416    1.3123 H   0  0  0  0  0  0  0  0  0  0  0  0
    3.7638  -10.0915    3.0039 H   0  0  0  0  0  0  0  0  0  0  0  0
    5.3021  -10.4681    2.4012 H   0  0  0  0  0  0  0  0  0  0  0  0
    3.8533   -7.6196    0.7278 H   0  0  0  0  0  0  0  0  0  0  0  0
    5.7679   -5.9154    1.1511 H   0  0  0  0  0  0  0  0  0  0  0  0
    4.3431   -5.5478    0.4001 H   0  0  0  0  0  0  0  0  0  0  0  0
    3.3232   -1.1299    4.5109 H   0  0  0  0  0  0  0  0  0  0  0  0
    4.7064   -1.7432    5.4262 H   0  0  0  0  0  0  0  0  0  0  0  0
    3.1227   -2.5987    5.4363 H   0  0  0  0  0  0  0  0  0  0  0  0
    4.4510   -0.0700    2.8131 H   0  0  0  0  0  0  0  0  0  0  0  0
    5.0340    0.5382    0.4853 H   0  0  0  0  0  0  0  0  0  0  0  0
    5.4674   -1.2610   -1.1834 H   0  0  0  0  0  0  0  0  0  0  0  0
    5.3127   -3.6351   -0.5139 H   0  0  0  0  0  0  0  0  0  0  0  0
    4.6988   -3.6660    6.5493 H   0  0  0  0  0  0  0  0  0  0  0  0
    3.9776   -5.2646    6.9848 H   0  0  0  0  0  0  0  0  0  0  0  0
    6.4818   -4.5509    5.2308 H   0  0  0  0  0  0  0  0  0  0  0  0
    6.2067   -8.0840    7.6839 H   0  0  0  0  0  0  0  0  0  0  0  0
    4.7183   -7.2033    7.4686 H   0  0  0  0  0  0  0  0  0  0  0  0
    6.0214   -6.4232    8.1281 H   0  0  0  0  0  0  0  0  0  0  0  0
    8.5203   -5.8906    5.9722 H   0  0  0  0  0  0  0  0  0  0  0  0
    8.0184   -6.3618    7.5186 H   0  0  0  0  0  0  0  0  0  0  0  0
    8.2293   -9.0289    4.4835 H   0  0  0  0  0  0  0  0  0  0  0  0
    6.4191  -10.4922    4.8835 H   0  0  0  0  0  0  0  0  0  0  0  0
    5.8361   -9.6347    6.2817 H   0  0  0  0  0  0  0  0  0  0  0  0
    7.3666  -10.5006    6.3608 H   0  0  0  0  0  0  0  0  0  0  0  0
    8.6086   -6.3983    4.0675 H   0  0  0  0  0  0  0  0  0  0  0  0
    7.2392   -5.9114    3.1296 H   0  0  0  0  0  0  0  0  0  0  0  0
    8.0678   -7.4571    2.9128 H   0  0  0  0  0  0  0  0  0  0  0  0
  1  2  1  0
  1 40  1  0
  1 41  1  0
  1 42  1  0
  2  3  1  0
  2  4  2  3
  3 43  1  0
  3 44  1  0
  3 45  1  0
  4  5  1  0
  4 46  1  0
  6  5  1  1
  5 47  1  0
  5 48  1  0
  6 17  1  0
  6  7  1  0
  6  8  1  0
  7 49  1  0
  7 50  1  0
  7 51  1  0
  8  9  1  0
  8 10  2  0
  9 52  1  0
  9 53  1  0
  9 54  1  0
 10 29  1  0
 10 11  1  0
 11 12  1  0
 11 13  1  0
 11 55  1  1
 12 56  1  0
 13 38  1  0
 13 14  1  0
 13 57  1  0
 14 15  1  0
 14 16  1  0
 14 17  1  0
 15 58  1  0
 15 59  1  0
 15 60  1  0
 16 61  1  0
 16 62  1  0
 16 63  1  0
 17 18  1  0
 17 64  1  6
 18 19  1  0
 18 65  1  0
 18 66  1  0
 19 28  1  0
 19 20  2  0
 20 21  1  0
 20 29  1  0
 21 22  1  0
 21 23  1  0
 22 67  1  0
 22 68  1  0
 22 69  1  0
 23 28  2  0
 23 24  1  0
 24 25  2  0
 24 70  1  0
 25 26  1  0
 25 71  1  0
 26 27  2  0
 26 72  1  0
 27 28  1  0
 27 73  1  0
 29 31  1  0
 29 30  1  1
 30 31  1  0
 30 74  1  0
 30 75  1  0
 31 32  1  0
 31 76  1  6
 32 38  1  0
 32 33  1  1
 32 34  1  0
 33 77  1  0
 33 78  1  0
 33 79  1  0
 34 35  1  0
 34 80  1  0
 34 81  1  0
 35 36  1  0
 36 37  1  0
 36 38  1  0
 36 82  1  6
 37 83  1  0
 37 84  1  0
 37 85  1  0
 38 39  1  6
 39 86  1  0
 39 87  1  0
 39 88  1  0
M  END
>  <i_m_ct_stereo_status>  (146) 
1

>  <s_m_source_file>  (146) 
/var/tmp/pbs.5076255.sched01/tmpyrjfudeo/454urwji6r.sdf

>  <i_m_source_file_index>  (146) 
19

>  <i_lp_mmshare_version>  (146) 
48012

>  <i_f3d_flags>  (146) 
0

>  <s_epik_input>  (146) 
W0NIM11bQ0BASF0xT1tDSDJdW0NAQF0oW0NIM10pKFtDQEBIXTJbQ0gyXTMpW0NAXTEoW0NIM10pW0NASF0oW0NAQEhdNFtPSF0pQyhbQ0gzXSkoW0NIM10pW0NAQEhdKFtDQF0oW0NIM10pKEMoW0NIM10pPUM0W0NAXTIzNSlbQ0gyXVtDSF09QyhbQ0gzXSlbQ0gzXSlbQ0gyXWM2YzVuKFtDSDNdKWM3YzZbY0hdW2NIXVtjSF1bY0hdNw==

>  <s_epik_cmdline>  (146) 
J2VwaWtfcHl0aG9uJywgJy1waHQnLCAnMi4wJywgJy1waCcsICc3LjAnLCAnLXRuJywgJzgnLCAnLW1hJywgJzIwMCcsICctaW1hZScsICc8aW5maWxlLm1hZT4nLCAnLW9tYWUnLCAnPG91dGZpbGUubWFlPic=

>  <r_lp_tautomer_probability>  (146) 
1

>  <r_epik_Ionization_Penalty>  (146) 
3.43152e-07

>  <r_epik_Ionization_Penalty_Charging>  (146) 
0

>  <r_epik_Ionization_Penalty_Neutral>  (146) 
3.43152e-07

>  <r_epik_State_Penalty>  (146) 
-0

>  <r_epik_Charging_Adjusted_Penalty>  (146) 
0

>  <i_epik_Tot_Q>  (146) 
0

>  <i_epik_Tot_abs_Q>  (146) 
0

>  <s_lp_Force_Field>  (146) 
OPLS3e

>  <r_lp_Energy>  (146) 
208.051

>  <b_lp_Chiralities_Consistent>  (146) 
1

>  <s_lp_Variant>  (146) 
34:0-1

>  <s_i_glide_gridfile>  (146) 
pfpi4k_grid

>  <i_i_glide_lignum>  (146) 
19

>  <i_i_glide_rotatable_bonds>  (146) 
3

>  <r_i_docking_score>  (146) 
-1.69983

>  <r_i_glide_ligand_efficiency>  (146) 
-0.0435854

>  <r_i_glide_ligand_efficiency_sa>  (146) 
-0.147807

>  <r_i_glide_ligand_efficiency_ln>  (146) 
-0.364492

>  <r_i_glide_gscore>  (146) 
-1.69983

>  <r_i_glide_lipo>  (146) 
-0.590947

>  <r_i_glide_hbond>  (146) 
0

>  <r_i_glide_metal>  (146) 
-0

>  <r_i_glide_rewards>  (146) 
-0.0104576

>  <r_i_glide_evdw>  (146) 
-25.4984

>  <r_i_glide_ecoul>  (146) 
0.190712

>  <r_i_glide_erotb>  (146) 
0.147889

>  <r_i_glide_esite>  (146) 
0

>  <r_i_glide_emodel>  (146) 
-26.7095

>  <r_i_glide_energy>  (146) 
-25.3077

>  <r_i_glide_einternal>  (146) 
1.50283

>  <r_i_glide_intrahb_reward>  (146) 
-0

>  <i_i_glide_confnum>  (146) 
1

>  <i_i_glide_posenum>  (146) 
16

>  <r_i_glide_eff_state_penalty>  (146) 
0

>  <ligand_id>  (146) 
34

>  <original_smiles>  (146) 
CC(C)=CCC1(C)C(C)=C2C(O)C3C(C)(C)C1Cc1c(n(C)c4ccccc14)C21CC1C1(C)COC(C)C31C

>  <smiles>  (146) 
[H]OC1([H])C2=C(C([H])([H])[H])C(C([H])([H])[H])(C([H])([H])C([H])=C(C([H])([H])[H])C([H])([H])[H])C3([H])C([H])([H])c4c(n(C([H])([H])[H])c5c([H])c([H])c([H])c([H])c45)C24C([H])([H])C4([H])C2(C([H])([H])[H])C([H])([H])OC([H])(C([H])([H])[H])C2(C([H])([H])[H])C1([H])C3(C([H])([H])[H])C([H])([H])[H]

$$$$
34:0:1
     RDKit          3D

 88 94  0  0  1  0  0  0  0  0999 V2000
    0.4556  -10.1627    3.9804 C   0  0  0  0  0  0  0  0  0  0  0  0
    0.0108   -9.0934    2.9993 C   0  0  0  0  0  0  0  0  0  0  0  0
   -1.4915   -8.8883    2.9441 C   0  0  0  0  0  0  0  0  0  0  0  0
    0.8291   -8.3627    2.2177 C   0  0  0  0  0  0  0  0  0  0  0  0
    2.3619   -8.3804    2.1406 C   0  0  0  0  0  0  0  0  0  0  0  0
    3.0923   -6.9872    2.2518 C   0  0  1  0  0  0  0  0  0  0  0  0
    2.4843   -6.1569    1.0643 C   0  0  0  0  0  0  0  0  0  0  0  0
    2.8358   -6.2391    3.6037 C   0  0  0  0  0  0  0  0  0  0  0  0
    1.7948   -5.1199    3.6038 C   0  0  0  0  0  0  0  0  0  0  0  0
    3.7796   -6.2613    4.5816 C   0  0  0  0  0  0  0  0  0  0  0  0
    4.5237   -7.5443    4.8773 C   0  0  1  0  0  0  0  0  0  0  0  0
    3.7106   -8.6882    4.9024 O   0  0  0  0  0  0  0  0  0  0  0  0
    5.8740   -7.5602    4.1635 C   0  0  0  0  0  0  0  0  0  0  0  0
    5.7439   -8.0419    2.6656 C   0  0  0  0  0  0  0  0  0  0  0  0
    7.0921   -8.0722    1.8720 C   0  0  0  0  0  0  0  0  0  0  0  0
    5.3989   -9.5628    2.5563 C   0  0  0  0  0  0  0  0  0  0  0  0
    4.6776   -7.0646    1.9099 C   0  0  2  0  0  0  0  0  0  0  0  0
    5.2923   -5.6153    1.6372 C   0  0  0  0  0  0  0  0  0  0  0  0
    4.9761   -4.3403    2.4409 C   0  0  0  0  0  0  0  0  0  0  0  0
    4.6360   -4.0550    3.7699 C   0  0  0  0  0  0  0  0  0  0  0  0
    4.3001   -2.6870    3.8407 N   0  0  0  0  0  0  0  0  0  0  0  0
    3.6920   -1.9691    4.9472 C   0  0  0  0  0  0  0  0  0  0  0  0
    4.6371   -2.0576    2.6570 C   0  0  0  0  0  0  0  0  0  0  0  0
    4.5987   -0.6998    2.2701 C   0  0  0  0  0  0  0  0  0  0  0  0
    4.9994   -0.3322    0.9791 C   0  0  0  0  0  0  0  0  0  0  0  0
    5.4420   -1.3136    0.0791 C   0  0  0  0  0  0  0  0  0  0  0  0
    5.4664   -2.6649    0.4705 C   0  0  0  0  0  0  0  0  0  0  0  0
    5.0685   -3.0700    1.7692 C   0  0  0  0  0  0  0  0  0  0  0  0
    4.5365   -4.9853    4.9941 C   0  0  1  0  0  0  0  0  0  0  0  0
    4.5592   -4.5337    6.4479 C   0  0  0  0  0  0  0  0  0  0  0  0
    5.8643   -4.9905    5.8497 C   0  0  1  0  0  0  0  0  0  0  0  0
    6.6520   -6.2426    6.3483 C   0  0  2  0  0  0  0  0  0  0  0  0
    5.9685   -6.8233    7.6668 C   0  0  0  0  0  0  0  0  0  0  0  0
    8.0556   -6.0710    6.9736 C   0  0  0  0  0  0  0  0  0  0  0  0
    8.6283   -7.3863    6.8097 O   0  0  0  0  0  0  0  0  0  0  0  0
    8.0272   -8.1318    5.7267 C   0  0  1  0  0  0  0  0  0  0  0  0
    7.3519   -9.4416    6.1759 C   0  0  0  0  0  0  0  0  0  0  0  0
    7.1100   -7.0961    5.0652 C   0  0  1  0  0  0  0  0  0  0  0  0
    8.1047   -6.2537    4.1528 C   0  0  0  0  0  0  0  0  0  0  0  0
   -0.1227  -11.0697    3.7973 H   0  0  0  0  0  0  0  0  0  0  0  0
    0.2633   -9.8444    5.0067 H   0  0  0  0  0  0  0  0  0  0  0  0
    1.5054  -10.4372    3.8905 H   0  0  0  0  0  0  0  0  0  0  0  0
   -1.9872   -9.8049    2.6228 H   0  0  0  0  0  0  0  0  0  0  0  0
   -1.7710   -8.0971    2.2464 H   0  0  0  0  0  0  0  0  0  0  0  0
   -1.8754   -8.6198    3.9286 H   0  0  0  0  0  0  0  0  0  0  0  0
    0.3296   -7.6862    1.5455 H   0  0  0  0  0  0  0  0  0  0  0  0
    2.7402   -9.1054    2.8389 H   0  0  0  0  0  0  0  0  0  0  0  0
    2.6080   -8.8208    1.1746 H   0  0  0  0  0  0  0  0  0  0  0  0
    2.7198   -6.6272    0.1101 H   0  0  0  0  0  0  0  0  0  0  0  0
    2.8613   -5.1369    0.9897 H   0  0  0  0  0  0  0  0  0  0  0  0
    1.4029   -6.0375    1.1014 H   0  0  0  0  0  0  0  0  0  0  0  0
    0.8006   -5.5312    3.4366 H   0  0  0  0  0  0  0  0  0  0  0  0
    1.9827   -4.3379    2.8695 H   0  0  0  0  0  0  0  0  0  0  0  0
    1.7711   -4.6320    4.5785 H   0  0  0  0  0  0  0  0  0  0  0  0
    4.6755   -7.6215    5.9103 H   0  0  0  0  0  0  0  0  0  0  0  0
    3.0183   -8.5581    5.5343 H   0  0  0  0  0  0  0  0  0  0  0  0
    5.8955   -6.5625    3.7874 H   0  0  0  0  0  0  0  0  0  0  0  0
    6.9575   -8.5059    0.8787 H   0  0  0  0  0  0  0  0  0  0  0  0
    7.8316   -8.6836    2.3882 H   0  0  0  0  0  0  0  0  0  0  0  0
    7.5865   -7.1280    1.6966 H   0  0  0  0  0  0  0  0  0  0  0  0
    5.0605   -9.8254    1.5546 H   0  0  0  0  0  0  0  0  0  0  0  0
    4.6560   -9.9524    3.2337 H   0  0  0  0  0  0  0  0  0  0  0  0
    6.2730  -10.1841    2.7579 H   0  0  0  0  0  0  0  0  0  0  0  0
    4.6862   -7.5221    0.9195 H   0  0  0  0  0  0  0  0  0  0  0  0
    6.3587   -5.6152    1.4903 H   0  0  0  0  0  0  0  0  0  0  0  0
    4.9775   -5.4098    0.6183 H   0  0  0  0  0  0  0  0  0  0  0  0
    3.1099   -1.1276    4.5693 H   0  0  0  0  0  0  0  0  0  0  0  0
    4.4673   -1.5780    5.6070 H   0  0  0  0  0  0  0  0  0  0  0  0
    2.9959   -2.6069    5.4932 H   0  0  0  0  0  0  0  0  0  0  0  0
    4.2604    0.0502    2.9622 H   0  0  0  0  0  0  0  0  0  0  0  0
    4.9583    0.7036    0.6770 H   0  0  0  0  0  0  0  0  0  0  0  0
    5.7466   -1.0270   -0.9151 H   0  0  0  0  0  0  0  0  0  0  0  0
    5.8016   -3.4076   -0.2343 H   0  0  0  0  0  0  0  0  0  0  0  0
    4.5768   -3.4929    6.7444 H   0  0  0  0  0  0  0  0  0  0  0  0
    4.0011   -5.1596    7.1409 H   0  0  0  0  0  0  0  0  0  0  0  0
    6.5494   -4.1829    5.6013 H   0  0  0  0  0  0  0  0  0  0  0  0
    6.4533   -7.7150    8.0567 H   0  0  0  0  0  0  0  0  0  0  0  0
    4.9006   -7.0084    7.6985 H   0  0  0  0  0  0  0  0  0  0  0  0
    6.0473   -6.0853    8.4655 H   0  0  0  0  0  0  0  0  0  0  0  0
    8.6513   -5.2800    6.5309 H   0  0  0  0  0  0  0  0  0  0  0  0
    8.0733   -5.8036    8.0309 H   0  0  0  0  0  0  0  0  0  0  0  0
    8.8351   -8.4315    5.0571 H   0  0  0  0  0  0  0  0  0  0  0  0
    7.1802  -10.0897    5.3143 H   0  0  0  0  0  0  0  0  0  0  0  0
    6.3799   -9.3001    6.6433 H   0  0  0  0  0  0  0  0  0  0  0  0
    7.9883   -9.9873    6.8720 H   0  0  0  0  0  0  0  0  0  0  0  0
    8.9473   -5.7838    4.6459 H   0  0  0  0  0  0  0  0  0  0  0  0
    7.6280   -5.4551    3.5832 H   0  0  0  0  0  0  0  0  0  0  0  0
    8.6423   -6.8967    3.4662 H   0  0  0  0  0  0  0  0  0  0  0  0
  1  2  1  0
  1 40  1  0
  1 41  1  0
  1 42  1  0
  2  3  1  0
  2  4  2  3
  3 43  1  0
  3 44  1  0
  3 45  1  0
  4  5  1  0
  4 46  1  0
  6  5  1  1
  5 47  1  0
  5 48  1  0
  6 17  1  0
  6  7  1  0
  6  8  1  0
  7 49  1  0
  7 50  1  0
  7 51  1  0
  8  9  1  0
  8 10  2  0
  9 52  1  0
  9 53  1  0
  9 54  1  0
 10 29  1  0
 10 11  1  0
 11 12  1  0
 11 13  1  0
 11 55  1  1
 12 56  1  0
 13 38  1  0
 13 14  1  0
 13 57  1  0
 14 15  1  0
 14 16  1  0
 14 17  1  0
 15 58  1  0
 15 59  1  0
 15 60  1  0
 16 61  1  0
 16 62  1  0
 16 63  1  0
 17 18  1  0
 17 64  1  6
 18 19  1  0
 18 65  1  0
 18 66  1  0
 19 28  1  0
 19 20  2  0
 20 21  1  0
 20 29  1  0
 21 22  1  0
 21 23  1  0
 22 67  1  0
 22 68  1  0
 22 69  1  0
 23 28  2  0
 23 24  1  0
 24 25  2  0
 24 70  1  0
 25 26  1  0
 25 71  1  0
 26 27  2  0
 26 72  1  0
 27 28  1  0
 27 73  1  0
 29 31  1  0
 29 30  1  1
 30 31  1  0
 30 74  1  0
 30 75  1  0
 31 32  1  0
 31 76  1  6
 32 38  1  0
 32 33  1  1
 32 34  1  0
 33 77  1  0
 33 78  1  0
 33 79  1  0
 34 35  1  0
 34 80  1  0
 34 81  1  0
 35 36  1  0
 36 37  1  0
 36 38  1  0
 36 82  1  6
 37 83  1  0
 37 84  1  0
 37 85  1  0
 38 39  1  6
 39 86  1  0
 39 87  1  0
 39 88  1  0
M  END
>  <i_m_ct_stereo_status>  (147) 
1

>  <s_m_source_file>  (147) 
/var/tmp/pbs.5076255.sched01/tmpyrjfudeo/454urwji6r.sdf

>  <i_m_source_file_index>  (147) 
19

>  <i_lp_mmshare_version>  (147) 
48012

>  <i_f3d_flags>  (147) 
0

>  <s_epik_input>  (147) 
W0NIM11bQ0BASF0xT1tDSDJdW0NAQF0oW0NIM10pKFtDQEBIXTJbQ0gyXTMpW0NAXTEoW0NIM10pW0NASF0oW0NAQEhdNFtPSF0pQyhbQ0gzXSkoW0NIM10pW0NAQEhdKFtDQF0oW0NIM10pKEMoW0NIM10pPUM0W0NAXTIzNSlbQ0gyXVtDSF09QyhbQ0gzXSlbQ0gzXSlbQ0gyXWM2YzVuKFtDSDNdKWM3YzZbY0hdW2NIXVtjSF1bY0hdNw==

>  <s_epik_cmdline>  (147) 
J2VwaWtfcHl0aG9uJywgJy1waHQnLCAnMi4wJywgJy1waCcsICc3LjAnLCAnLXRuJywgJzgnLCAnLW1hJywgJzIwMCcsICctaW1hZScsICc8aW5maWxlLm1hZT4nLCAnLW9tYWUnLCAnPG91dGZpbGUubWFlPic=

>  <r_lp_tautomer_probability>  (147) 
1

>  <r_epik_Ionization_Penalty>  (147) 
3.43152e-07

>  <r_epik_Ionization_Penalty_Charging>  (147) 
0

>  <r_epik_Ionization_Penalty_Neutral>  (147) 
3.43152e-07

>  <r_epik_State_Penalty>  (147) 
-0

>  <r_epik_Charging_Adjusted_Penalty>  (147) 
0

>  <i_epik_Tot_Q>  (147) 
0

>  <i_epik_Tot_abs_Q>  (147) 
0

>  <s_lp_Force_Field>  (147) 
OPLS3e

>  <r_lp_Energy>  (147) 
208.051

>  <b_lp_Chiralities_Consistent>  (147) 
1

>  <s_lp_Variant>  (147) 
34:0-1

>  <s_i_glide_gridfile>  (147) 
pfpi4k_grid

>  <i_i_glide_lignum>  (147) 
19

>  <i_i_glide_rotatable_bonds>  (147) 
3

>  <r_i_docking_score>  (147) 
-1.68724

>  <r_i_glide_ligand_efficiency>  (147) 
-0.0432625

>  <r_i_glide_ligand_efficiency_sa>  (147) 
-0.146712

>  <r_i_glide_ligand_efficiency_ln>  (147) 
-0.361791

>  <r_i_glide_gscore>  (147) 
-1.68724

>  <r_i_glide_lipo>  (147) 
-0.686921

>  <r_i_glide_hbond>  (147) 
0

>  <r_i_glide_metal>  (147) 
-0

>  <r_i_glide_rewards>  (147) 
-0.0131245

>  <r_i_glide_evdw>  (147) 
-24.8938

>  <r_i_glide_ecoul>  (147) 
0.730718

>  <r_i_glide_erotb>  (147) 
0.147889

>  <r_i_glide_esite>  (147) 
0

>  <r_i_glide_emodel>  (147) 
-26.4506

>  <r_i_glide_energy>  (147) 
-24.163

>  <r_i_glide_einternal>  (147) 
0.779992

>  <r_i_glide_intrahb_reward>  (147) 
-0

>  <i_i_glide_confnum>  (147) 
2

>  <i_i_glide_posenum>  (147) 
19

>  <r_i_glide_eff_state_penalty>  (147) 
0

>  <ligand_id>  (147) 
34

>  <original_smiles>  (147) 
CC(C)=CCC1(C)C(C)=C2C(O)C3C(C)(C)C1Cc1c(n(C)c4ccccc14)C21CC1C1(C)COC(C)C31C

>  <smiles>  (147) 
[H]OC1([H])C2=C(C([H])([H])[H])C(C([H])([H])[H])(C([H])([H])C([H])=C(C([H])([H])[H])C([H])([H])[H])C3([H])C([H])([H])c4c(n(C([H])([H])[H])c5c([H])c([H])c([H])c([H])c45)C24C([H])([H])C4([H])C2(C([H])([H])[H])C([H])([H])OC([H])(C([H])([H])[H])C2(C([H])([H])[H])C1([H])C3(C([H])([H])[H])C([H])([H])[H]

$$$$
34:0:2
     RDKit          3D

 88 94  0  0  1  0  0  0  0  0999 V2000
    6.1242   -3.0775   -0.7208 C   0  0  0  0  0  0  0  0  0  0  0  0
    4.8194   -3.7982   -1.0178 C   0  0  0  0  0  0  0  0  0  0  0  0
    4.0785   -3.2338   -2.2156 C   0  0  0  0  0  0  0  0  0  0  0  0
    4.3354   -4.8508   -0.3237 C   0  0  0  0  0  0  0  0  0  0  0  0
    4.9483   -5.5424    0.8942 C   0  0  0  0  0  0  0  0  0  0  0  0
    4.0057   -5.6853    2.1452 C   0  0  1  0  0  0  0  0  0  0  0  0
    3.5204   -4.2065    2.3746 C   0  0  0  0  0  0  0  0  0  0  0  0
    2.7668   -6.6227    1.9284 C   0  0  0  0  0  0  0  0  0  0  0  0
    1.4201   -5.9629    1.6418 C   0  0  0  0  0  0  0  0  0  0  0  0
    2.7853   -7.8896    2.4177 C   0  0  0  0  0  0  0  0  0  0  0  0
    4.0468   -8.7085    2.2911 C   0  0  1  0  0  0  0  0  0  0  0  0
    4.6680   -8.6217    1.0329 O   0  0  0  0  0  0  0  0  0  0  0  0
    4.8543   -8.6648    3.5893 C   0  0  0  0  0  0  0  0  0  0  0  0
    5.7655   -7.3786    3.6678 C   0  0  0  0  0  0  0  0  0  0  0  0
    6.6111   -7.2557    4.9770 C   0  0  0  0  0  0  0  0  0  0  0  0
    6.9473   -7.4318    2.6475 C   0  0  0  0  0  0  0  0  0  0  0  0
    4.8072   -6.0684    3.5022 C   0  0  2  0  0  0  0  0  0  0  0  0
    3.9224   -5.8044    4.8046 C   0  0  0  0  0  0  0  0  0  0  0  0
    2.4254   -6.1269    4.9571 C   0  0  0  0  0  0  0  0  0  0  0  0
    1.5589   -7.1016    4.4487 C   0  0  0  0  0  0  0  0  0  0  0  0
    0.2472   -6.7541    4.8392 N   0  0  0  0  0  0  0  0  0  0  0  0
   -1.0035   -7.3422    4.3919 C   0  0  0  0  0  0  0  0  0  0  0  0
    0.2895   -5.7231    5.7603 C   0  0  0  0  0  0  0  0  0  0  0  0
   -0.7228   -5.1023    6.5251 C   0  0  0  0  0  0  0  0  0  0  0  0
   -0.3994   -4.0640    7.4098 C   0  0  0  0  0  0  0  0  0  0  0  0
    0.9359   -3.6417    7.5236 C   0  0  0  0  0  0  0  0  0  0  0  0
    1.9357   -4.2595    6.7487 C   0  0  0  0  0  0  0  0  0  0  0  0
    1.6403   -5.3196    5.8537 C   0  0  0  0  0  0  0  0  0  0  0  0
    1.8509   -8.3271    3.5586 C   0  0  1  0  0  0  0  0  0  0  0  0
    0.9378   -9.5348    3.3940 C   0  0  0  0  0  0  0  0  0  0  0  0
    2.0540   -9.6475    4.4018 C   0  0  1  0  0  0  0  0  0  0  0  0
    3.2296  -10.6650    4.2793 C   0  0  2  0  0  0  0  0  0  0  0  0
    2.9604  -11.6519    3.0614 C   0  0  0  0  0  0  0  0  0  0  0  0
    3.3969  -11.7808    5.3362 C   0  0  0  0  0  0  0  0  0  0  0  0
    4.7897  -12.1354    5.1902 O   0  0  0  0  0  0  0  0  0  0  0  0
    5.5867  -11.0692    4.6292 C   0  0  1  0  0  0  0  0  0  0  0  0
    6.2594  -11.4367    3.2932 C   0  0  0  0  0  0  0  0  0  0  0  0
    4.6042   -9.8931    4.5836 C   0  0  1  0  0  0  0  0  0  0  0  0
    4.6175   -9.3442    6.0769 C   0  0  0  0  0  0  0  0  0  0  0  0
    5.9489   -2.0021   -0.6881 H   0  0  0  0  0  0  0  0  0  0  0  0
    6.8460   -3.2782   -1.5141 H   0  0  0  0  0  0  0  0  0  0  0  0
    6.5818   -3.3537    0.2254 H   0  0  0  0  0  0  0  0  0  0  0  0
    3.8210   -2.1868   -2.0461 H   0  0  0  0  0  0  0  0  0  0  0  0
    3.1517   -3.7758   -2.4148 H   0  0  0  0  0  0  0  0  0  0  0  0
    4.7007   -3.2902   -3.1103 H   0  0  0  0  0  0  0  0  0  0  0  0
    3.4026   -5.2815   -0.6510 H   0  0  0  0  0  0  0  0  0  0  0  0
    5.3248   -6.4706    0.4917 H   0  0  0  0  0  0  0  0  0  0  0  0
    5.8374   -5.0138    1.2307 H   0  0  0  0  0  0  0  0  0  0  0  0
    4.3655   -3.5480    2.5835 H   0  0  0  0  0  0  0  0  0  0  0  0
    2.8178   -4.0844    3.1984 H   0  0  0  0  0  0  0  0  0  0  0  0
    3.0041   -3.7679    1.5198 H   0  0  0  0  0  0  0  0  0  0  0  0
    1.4444   -5.4732    0.6701 H   0  0  0  0  0  0  0  0  0  0  0  0
    1.1114   -5.2424    2.3987 H   0  0  0  0  0  0  0  0  0  0  0  0
    0.6387   -6.7229    1.5902 H   0  0  0  0  0  0  0  0  0  0  0  0
    3.7808   -9.6989    2.0893 H   0  0  0  0  0  0  0  0  0  0  0  0
    4.9506   -9.4926    0.7863 H   0  0  0  0  0  0  0  0  0  0  0  0
    4.1643   -8.1484    4.2172 H   0  0  0  0  0  0  0  0  0  0  0  0
    7.2854   -6.3991    4.9292 H   0  0  0  0  0  0  0  0  0  0  0  0
    7.2346   -8.1370    5.1297 H   0  0  0  0  0  0  0  0  0  0  0  0
    6.0702   -7.1265    5.9038 H   0  0  0  0  0  0  0  0  0  0  0  0
    7.4156   -6.4555    2.5330 H   0  0  0  0  0  0  0  0  0  0  0  0
    6.7212   -7.7762    1.6503 H   0  0  0  0  0  0  0  0  0  0  0  0
    7.7348   -8.1061    2.9910 H   0  0  0  0  0  0  0  0  0  0  0  0
    5.5626   -5.2840    3.5612 H   0  0  0  0  0  0  0  0  0  0  0  0
    4.3923   -6.1281    5.7169 H   0  0  0  0  0  0  0  0  0  0  0  0
    4.0069   -4.7297    4.9321 H   0  0  0  0  0  0  0  0  0  0  0  0
   -1.8045   -6.6051    4.4525 H   0  0  0  0  0  0  0  0  0  0  0  0
   -1.2700   -8.1848    5.0313 H   0  0  0  0  0  0  0  0  0  0  0  0
   -0.9404   -7.6539    3.3480 H   0  0  0  0  0  0  0  0  0  0  0  0
   -1.7382   -5.4431    6.4444 H   0  0  0  0  0  0  0  0  0  0  0  0
   -1.1753   -3.6075    8.0057 H   0  0  0  0  0  0  0  0  0  0  0  0
    1.1997   -2.8517    8.2111 H   0  0  0  0  0  0  0  0  0  0  0  0
    2.9563   -3.9341    6.8576 H   0  0  0  0  0  0  0  0  0  0  0  0
   -0.0411   -9.6071    3.8512 H   0  0  0  0  0  0  0  0  0  0  0  0
    0.9875  -10.0322    2.4270 H   0  0  0  0  0  0  0  0  0  0  0  0
    1.7286   -9.5621    5.4378 H   0  0  0  0  0  0  0  0  0  0  0  0
    3.7484  -12.3836    2.8996 H   0  0  0  0  0  0  0  0  0  0  0  0
    2.6982  -11.2553    2.0892 H   0  0  0  0  0  0  0  0  0  0  0  0
    2.0670  -12.2434    3.2667 H   0  0  0  0  0  0  0  0  0  0  0  0
    3.1269  -11.4868    6.3445 H   0  0  0  0  0  0  0  0  0  0  0  0
    2.7780  -12.6661    5.1877 H   0  0  0  0  0  0  0  0  0  0  0  0
    6.4020  -10.8784    5.3286 H   0  0  0  0  0  0  0  0  0  0  0  0
    7.0604  -10.7298    3.0689 H   0  0  0  0  0  0  0  0  0  0  0  0
    5.5854  -11.4175    2.4389 H   0  0  0  0  0  0  0  0  0  0  0  0
    6.7059  -12.4293    3.3474 H   0  0  0  0  0  0  0  0  0  0  0  0
    4.3681  -10.0480    6.8629 H   0  0  0  0  0  0  0  0  0  0  0  0
    3.9654   -8.4860    6.2494 H   0  0  0  0  0  0  0  0  0  0  0  0
    5.6228   -9.0853    6.3868 H   0  0  0  0  0  0  0  0  0  0  0  0
  1  2  1  0
  1 40  1  0
  1 41  1  0
  1 42  1  0
  2  3  1  0
  2  4  2  3
  3 43  1  0
  3 44  1  0
  3 45  1  0
  4  5  1  0
  4 46  1  0
  6  5  1  6
  5 47  1  0
  5 48  1  0
  6 17  1  0
  6  7  1  0
  6  8  1  0
  7 49  1  0
  7 50  1  0
  7 51  1  0
  8  9  1  0
  8 10  2  0
  9 52  1  0
  9 53  1  0
  9 54  1  0
 10 29  1  0
 10 11  1  0
 11 12  1  0
 11 13  1  0
 11 55  1  6
 12 56  1  0
 13 38  1  0
 13 14  1  0
 13 57  1  0
 14 15  1  0
 14 16  1  0
 14 17  1  0
 15 58  1  0
 15 59  1  0
 15 60  1  0
 16 61  1  0
 16 62  1  0
 16 63  1  0
 17 18  1  0
 17 64  1  1
 18 19  1  0
 18 65  1  0
 18 66  1  0
 19 28  1  0
 19 20  2  0
 20 21  1  0
 20 29  1  0
 21 22  1  0
 21 23  1  0
 22 67  1  0
 22 68  1  0
 22 69  1  0
 23 28  2  0
 23 24  1  0
 24 25  2  0
 24 70  1  0
 25 26  1  0
 25 71  1  0
 26 27  2  0
 26 72  1  0
 27 28  1  0
 27 73  1  0
 29 31  1  0
 29 30  1  6
 30 31  1  0
 30 74  1  0
 30 75  1  0
 31 32  1  0
 31 76  1  1
 32 38  1  0
 32 33  1  6
 32 34  1  0
 33 77  1  0
 33 78  1  0
 33 79  1  0
 34 35  1  0
 34 80  1  0
 34 81  1  0
 35 36  1  0
 36 37  1  0
 36 38  1  0
 36 82  1  1
 37 83  1  0
 37 84  1  0
 37 85  1  0
 38 39  1  1
 39 86  1  0
 39 87  1  0
 39 88  1  0
M  END
>  <i_m_ct_stereo_status>  (148) 
1

>  <s_m_source_file>  (148) 
/var/tmp/pbs.5076255.sched01/tmpyrjfudeo/454urwji6r.sdf

>  <i_m_source_file_index>  (148) 
19

>  <i_lp_mmshare_version>  (148) 
48012

>  <i_f3d_flags>  (148) 
0

>  <s_epik_input>  (148) 
W0NIM11bQ0BASF0xT1tDSDJdW0NAQF0oW0NIM10pKFtDQEBIXTJbQ0gyXTMpW0NAXTEoW0NIM10pW0NASF0oW0NAQEhdNFtPSF0pQyhbQ0gzXSkoW0NIM10pW0NAQEhdKFtDQF0oW0NIM10pKEMoW0NIM10pPUM0W0NAXTIzNSlbQ0gyXVtDSF09QyhbQ0gzXSlbQ0gzXSlbQ0gyXWM2YzVuKFtDSDNdKWM3YzZbY0hdW2NIXVtjSF1bY0hdNw==

>  <s_epik_cmdline>  (148) 
J2VwaWtfcHl0aG9uJywgJy1waHQnLCAnMi4wJywgJy1waCcsICc3LjAnLCAnLXRuJywgJzgnLCAnLW1hJywgJzIwMCcsICctaW1hZScsICc8aW5maWxlLm1hZT4nLCAnLW9tYWUnLCAnPG91dGZpbGUubWFlPic=

>  <r_lp_tautomer_probability>  (148) 
1

>  <r_epik_Ionization_Penalty>  (148) 
3.43152e-07

>  <r_epik_Ionization_Penalty_Charging>  (148) 
0

>  <r_epik_Ionization_Penalty_Neutral>  (148) 
3.43152e-07

>  <r_epik_State_Penalty>  (148) 
-0

>  <r_epik_Charging_Adjusted_Penalty>  (148) 
0

>  <i_epik_Tot_Q>  (148) 
0

>  <i_epik_Tot_abs_Q>  (148) 
0

>  <s_lp_Force_Field>  (148) 
OPLS3e

>  <r_lp_Energy>  (148) 
208.051

>  <b_lp_Chiralities_Consistent>  (148) 
1

>  <s_lp_Variant>  (148) 
34:0-1

>  <s_i_glide_gridfile>  (148) 
pfpi4k_grid

>  <i_i_glide_lignum>  (148) 
19

>  <i_i_glide_rotatable_bonds>  (148) 
3

>  <r_i_docking_score>  (148) 
-1.61057

>  <r_i_glide_ligand_efficiency>  (148) 
-0.0412968

>  <r_i_glide_ligand_efficiency_sa>  (148) 
-0.140046

>  <r_i_glide_ligand_efficiency_ln>  (148) 
-0.345353

>  <r_i_glide_gscore>  (148) 
-1.61057

>  <r_i_glide_lipo>  (148) 
-0.216085

>  <r_i_glide_hbond>  (148) 
0

>  <r_i_glide_metal>  (148) 
-0

>  <r_i_glide_rewards>  (148) 
0

>  <r_i_glide_evdw>  (148) 
-27.028

>  <r_i_glide_ecoul>  (148) 
-1.14659

>  <r_i_glide_erotb>  (148) 
0.147889

>  <r_i_glide_esite>  (148) 
-0.018991

>  <r_i_glide_emodel>  (148) 
-29.8437

>  <r_i_glide_energy>  (148) 
-28.1746

>  <r_i_glide_einternal>  (148) 
1.49547

>  <r_i_glide_intrahb_reward>  (148) 
-0

>  <i_i_glide_confnum>  (148) 
2

>  <i_i_glide_posenum>  (148) 
10

>  <r_i_glide_eff_state_penalty>  (148) 
0

>  <ligand_id>  (148) 
34

>  <original_smiles>  (148) 
CC(C)=CCC1(C)C(C)=C2C(O)C3C(C)(C)C1Cc1c(n(C)c4ccccc14)C21CC1C1(C)COC(C)C31C

>  <smiles>  (148) 
[H]OC1([H])C2=C(C([H])([H])[H])C(C([H])([H])[H])(C([H])([H])C([H])=C(C([H])([H])[H])C([H])([H])[H])C3([H])C([H])([H])c4c(n(C([H])([H])[H])c5c([H])c([H])c([H])c([H])c45)C24C([H])([H])C4([H])C2(C([H])([H])[H])C([H])([H])OC([H])(C([H])([H])[H])C2(C([H])([H])[H])C1([H])C3(C([H])([H])[H])C([H])([H])[H]

$$$$
35:0:0
     RDKit          3D

 27 33  0  0  1  0  0  0  0  0999 V2000
    3.0464   -3.2855   -3.9006 C   0  0  0  0  0  0  0  0  0  0  0  0
    2.7264   -2.8237   -2.4927 C   0  0  2  0  0  0  0  0  0  0  0  0
    3.8430   -2.1841   -3.2389 C   0  0  1  0  0  0  0  0  0  0  0  0
    5.1100   -2.4581   -2.4646 C   0  0  2  0  0  0  0  0  0  0  0  0
    4.8105   -3.7300   -1.6044 C   0  0  2  0  0  0  0  0  0  0  0  0
    3.3059   -3.4790   -1.2619 C   0  0  1  0  0  0  0  0  0  0  0  0
    3.3945   -2.5475   -0.0621 C   0  0  2  0  0  0  0  0  0  0  0  0
    4.2379   -1.2544   -0.3319 C   0  0  2  0  0  0  0  0  0  0  0  0
    5.3818   -1.4066   -1.3946 C   0  0  1  0  0  0  0  0  0  0  0  0
    6.1760   -2.1407   -0.3093 C   0  0  2  0  0  0  0  0  0  0  0  0
    5.5991   -3.5671   -0.2933 C   0  0  1  0  0  0  0  0  0  0  0  0
    4.5902   -3.0551    0.7520 C   0  0  1  0  0  0  0  0  0  0  0  0
    5.2060   -1.6792    0.7524 C   0  0  2  0  0  0  0  0  0  0  0  0
    2.3360   -3.0150   -4.6804 H   0  0  0  0  0  0  0  0  0  0  0  0
    3.5164   -4.2567   -4.0131 H   0  0  0  0  0  0  0  0  0  0  0  0
    1.8155   -2.2600   -2.3565 H   0  0  0  0  0  0  0  0  0  0  0  0
    3.6897   -1.1729   -3.5982 H   0  0  0  0  0  0  0  0  0  0  0  0
    5.9539   -2.6137   -3.1242 H   0  0  0  0  0  0  0  0  0  0  0  0
    4.9869   -4.6664   -2.1418 H   0  0  0  0  0  0  0  0  0  0  0  0
    2.7727   -4.3903   -1.0165 H   0  0  0  0  0  0  0  0  0  0  0  0
    2.4956   -2.3617    0.5280 H   0  0  0  0  0  0  0  0  0  0  0  0
    3.7751   -0.2921   -0.1684 H   0  0  0  0  0  0  0  0  0  0  0  0
    5.7950   -0.4433   -1.6962 H   0  0  0  0  0  0  0  0  0  0  0  0
    7.2423   -1.9702   -0.1640 H   0  0  0  0  0  0  0  0  0  0  0  0
    6.2733   -4.3482    0.0493 H   0  0  0  0  0  0  0  0  0  0  0  0
    4.4478   -3.5805    1.6974 H   0  0  0  0  0  0  0  0  0  0  0  0
    5.4643   -1.0984    1.6429 H   0  0  0  0  0  0  0  0  0  0  0  0
  1  3  1  0
  1  2  1  0
  1 14  1  0
  1 15  1  0
  2  6  1  0
  2  3  1  0
  2 16  1  1
  3  4  1  0
  3 17  1  6
  4  9  1  0
  4  5  1  0
  4 18  1  6
  5 11  1  0
  5  6  1  0
  5 19  1  6
  6  7  1  0
  6 20  1  1
  7 12  1  0
  7  8  1  0
  7 21  1  1
  8 13  1  0
  8  9  1  0
  8 22  1  1
  9 10  1  0
  9 23  1  6
 10 13  1  0
 10 11  1  0
 10 24  1  1
 11 12  1  0
 11 25  1  1
 12 13  1  0
 12 26  1  1
 13 27  1  1
M  END
>  <i_m_ct_stereo_status>  (149) 
1

>  <s_m_source_file>  (149) 
/var/tmp/pbs.5076255.sched01/tmpyrjfudeo/454urwji6r.sdf

>  <i_m_source_file_index>  (149) 
21

>  <i_lp_mmshare_version>  (149) 
48012

>  <i_f3d_flags>  (149) 
2

>  <s_epik_input>  (149) 
W0NIMl0xW0NASF0oW0NASF0xMilbQ0BASF0zW0NAQEhdNFtDQEhdMltDQEBIXTVbQ0BASF02W0NASF0zW0NAQEhdN1tDQEhdNFtDQEhdNVtDQEhdNjc=

>  <s_epik_cmdline>  (149) 
J2VwaWtfcHl0aG9uJywgJy1waHQnLCAnMi4wJywgJy1waCcsICc3LjAnLCAnLXRuJywgJzgnLCAnLW1hJywgJzIwMCcsICctaW1hZScsICc8aW5maWxlLm1hZT4nLCAnLW9tYWUnLCAnPG91dGZpbGUubWFlPic=

>  <r_lp_tautomer_probability>  (149) 
1

>  <r_epik_Ionization_Penalty>  (149) 
0

>  <r_epik_Ionization_Penalty_Charging>  (149) 
0

>  <r_epik_Ionization_Penalty_Neutral>  (149) 
0

>  <r_epik_State_Penalty>  (149) 
-0

>  <r_epik_Charging_Adjusted_Penalty>  (149) 
0

>  <i_epik_Tot_Q>  (149) 
0

>  <i_epik_Tot_abs_Q>  (149) 
0

>  <s_lp_Force_Field>  (149) 
OPLS3e

>  <r_lp_Energy>  (149) 
72.5988

>  <b_lp_Chiralities_Consistent>  (149) 
0

>  <s_lp_Variant>  (149) 
35:0-1

>  <s_i_glide_gridfile>  (149) 
pfpi4k_grid

>  <i_i_glide_lignum>  (149) 
21

>  <i_i_glide_rotatable_bonds>  (149) 
0

>  <r_i_docking_score>  (149) 
-3.91154

>  <r_i_glide_ligand_efficiency>  (149) 
-0.300888

>  <r_i_glide_ligand_efficiency_sa>  (149) 
-0.707487

>  <r_i_glide_ligand_efficiency_ln>  (149) 
-1.09722

>  <r_i_glide_gscore>  (149) 
-3.91154

>  <r_i_glide_lipo>  (149) 
-0.609476

>  <r_i_glide_hbond>  (149) 
0

>  <r_i_glide_metal>  (149) 
-0

>  <r_i_glide_rewards>  (149) 
-2.24829

>  <r_i_glide_evdw>  (149) 
-19.2535

>  <r_i_glide_ecoul>  (149) 
-0.607293

>  <r_i_glide_erotb>  (149) 
0

>  <r_i_glide_esite>  (149) 
0

>  <r_i_glide_emodel>  (149) 
-24.9969

>  <r_i_glide_energy>  (149) 
-19.8608

>  <r_i_glide_einternal>  (149) 
0

>  <r_i_glide_intrahb_reward>  (149) 
-0

>  <i_i_glide_confnum>  (149) 
2

>  <i_i_glide_posenum>  (149) 
32

>  <r_i_glide_eff_state_penalty>  (149) 
0

>  <ligand_id>  (149) 
35

>  <original_smiles>  (149) 
C1C2C1C1C3C2C2C4C1C1C3C2C41

>  <smiles>  (149) 
[H]C1([H])C2([H])C1([H])C1([H])C3([H])C2([H])C2([H])C4([H])C1([H])C1([H])C3([H])C2([H])C41[H]

$$$$
35:0:1
     RDKit          3D

 27 33  0  0  1  0  0  0  0  0999 V2000
    3.4891   -2.3600   -3.7506 C   0  0  0  0  0  0  0  0  0  0  0  0
    3.4553   -3.0511   -2.4040 C   0  0  2  0  0  0  0  0  0  0  0  0
    3.6259   -1.5727   -2.4698 C   0  0  1  0  0  0  0  0  0  0  0  0
    4.9514   -1.2478   -1.8391 C   0  0  2  0  0  0  0  0  0  0  0  0
    5.7978   -2.5586   -1.9533 C   0  0  2  0  0  0  0  0  0  0  0  0
    4.6812   -3.6267   -1.7480 C   0  0  1  0  0  0  0  0  0  0  0  0
    4.5573   -3.6866   -0.2171 C   0  0  2  0  0  0  0  0  0  0  0  0
    4.2819   -2.2941    0.4396 C   0  0  2  0  0  0  0  0  0  0  0  0
    4.8539   -1.0511   -0.3184 C   0  0  1  0  0  0  0  0  0  0  0  0
    6.2276   -1.4583    0.2101 C   0  0  2  0  0  0  0  0  0  0  0  0
    6.6916   -2.6081   -0.6929 C   0  0  1  0  0  0  0  0  0  0  0  0
    5.9906   -3.5542    0.2886 C   0  0  1  0  0  0  0  0  0  0  0  0
    5.5935   -2.4116    1.1895 C   0  0  2  0  0  0  0  0  0  0  0  0
    2.5519   -2.2832   -4.2912 H   0  0  0  0  0  0  0  0  0  0  0  0
    4.3925   -2.4932   -4.3443 H   0  0  0  0  0  0  0  0  0  0  0  0
    2.4971   -3.4398   -2.0906 H   0  0  0  0  0  0  0  0  0  0  0  0
    2.7799   -0.9628   -2.1911 H   0  0  0  0  0  0  0  0  0  0  0  0
    5.4054   -0.3875   -2.3170 H   0  0  0  0  0  0  0  0  0  0  0  0
    6.3192   -2.6770   -2.8997 H   0  0  0  0  0  0  0  0  0  0  0  0
    4.9374   -4.6005   -2.1619 H   0  0  0  0  0  0  0  0  0  0  0  0
    3.9961   -4.5043    0.2391 H   0  0  0  0  0  0  0  0  0  0  0  0
    3.4239   -2.1682    1.0839 H   0  0  0  0  0  0  0  0  0  0  0  0
    4.4946   -0.1000    0.0744 H   0  0  0  0  0  0  0  0  0  0  0  0
    6.9282   -0.7256    0.5969 H   0  0  0  0  0  0  0  0  0  0  0  0
    7.7700   -2.7373   -0.7783 H   0  0  0  0  0  0  0  0  0  0  0  0
    6.5181   -4.3962    0.7300 H   0  0  0  0  0  0  0  0  0  0  0  0
    5.7243   -2.3826    2.2814 H   0  0  0  0  0  0  0  0  0  0  0  0
  1  3  1  0
  1  2  1  0
  1 14  1  0
  1 15  1  0
  2  6  1  0
  2  3  1  0
  2 16  1  1
  3  4  1  0
  3 17  1  1
  4  9  1  0
  4  5  1  0
  4 18  1  6
  5 11  1  0
  5  6  1  0
  5 19  1  6
  6  7  1  0
  6 20  1  6
  7 12  1  0
  7  8  1  0
  7 21  1  6
  8 13  1  0
  8  9  1  0
  8 22  1  1
  9 10  1  0
  9 23  1  6
 10 13  1  0
 10 11  1  0
 10 24  1  1
 11 12  1  0
 11 25  1  6
 12 13  1  0
 12 26  1  1
 13 27  1  1
M  END
>  <i_m_ct_stereo_status>  (150) 
1

>  <s_m_source_file>  (150) 
/var/tmp/pbs.5076255.sched01/tmpyrjfudeo/454urwji6r.sdf

>  <i_m_source_file_index>  (150) 
21

>  <i_lp_mmshare_version>  (150) 
48012

>  <i_f3d_flags>  (150) 
2

>  <s_epik_input>  (150) 
W0NIMl0xW0NASF0oW0NASF0xMilbQ0BASF0zW0NAQEhdNFtDQEhdMltDQEBIXTVbQ0BASF02W0NASF0zW0NAQEhdN1tDQEhdNFtDQEhdNVtDQEhdNjc=

>  <s_epik_cmdline>  (150) 
J2VwaWtfcHl0aG9uJywgJy1waHQnLCAnMi4wJywgJy1waCcsICc3LjAnLCAnLXRuJywgJzgnLCAnLW1hJywgJzIwMCcsICctaW1hZScsICc8aW5maWxlLm1hZT4nLCAnLW9tYWUnLCAnPG91dGZpbGUubWFlPic=

>  <r_lp_tautomer_probability>  (150) 
1

>  <r_epik_Ionization_Penalty>  (150) 
0

>  <r_epik_Ionization_Penalty_Charging>  (150) 
0

>  <r_epik_Ionization_Penalty_Neutral>  (150) 
0

>  <r_epik_State_Penalty>  (150) 
-0

>  <r_epik_Charging_Adjusted_Penalty>  (150) 
0

>  <i_epik_Tot_Q>  (150) 
0

>  <i_epik_Tot_abs_Q>  (150) 
0

>  <s_lp_Force_Field>  (150) 
OPLS3e

>  <r_lp_Energy>  (150) 
72.5988

>  <b_lp_Chiralities_Consistent>  (150) 
0

>  <s_lp_Variant>  (150) 
35:0-1

>  <s_i_glide_gridfile>  (150) 
pfpi4k_grid

>  <i_i_glide_lignum>  (150) 
21

>  <i_i_glide_rotatable_bonds>  (150) 
0

>  <r_i_docking_score>  (150) 
-3.73533

>  <r_i_glide_ligand_efficiency>  (150) 
-0.287333

>  <r_i_glide_ligand_efficiency_sa>  (150) 
-0.675616

>  <r_i_glide_ligand_efficiency_ln>  (150) 
-1.04779

>  <r_i_glide_gscore>  (150) 
-3.73533

>  <r_i_glide_lipo>  (150) 
-0.357665

>  <r_i_glide_hbond>  (150) 
0

>  <r_i_glide_metal>  (150) 
-0

>  <r_i_glide_rewards>  (150) 
-2.24829

>  <r_i_glide_evdw>  (150) 
-21.169

>  <r_i_glide_ecoul>  (150) 
-0.472813

>  <r_i_glide_erotb>  (150) 
0

>  <r_i_glide_esite>  (150) 
0

>  <r_i_glide_emodel>  (150) 
-26.5531

>  <r_i_glide_energy>  (150) 
-21.6418

>  <r_i_glide_einternal>  (150) 
0

>  <r_i_glide_intrahb_reward>  (150) 
-0

>  <i_i_glide_confnum>  (150) 
2

>  <i_i_glide_posenum>  (150) 
5

>  <r_i_glide_eff_state_penalty>  (150) 
0

>  <ligand_id>  (150) 
35

>  <original_smiles>  (150) 
C1C2C1C1C3C2C2C4C1C1C3C2C41

>  <smiles>  (150) 
[H]C1([H])C2([H])C1([H])C1([H])C3([H])C2([H])C2([H])C4([H])C1([H])C1([H])C3([H])C2([H])C41[H]

$$$$
35:0:2
     RDKit          3D

 27 33  0  0  1  0  0  0  0  0999 V2000
    6.3892   -4.3128    0.5464 C   0  0  0  0  0  0  0  0  0  0  0  0
    6.2177   -2.9528   -0.0910 C   0  0  2  0  0  0  0  0  0  0  0  0
    5.0260   -3.6690    0.4443 C   0  0  1  0  0  0  0  0  0  0  0  0
    4.0871   -3.9249   -0.7100 C   0  0  2  0  0  0  0  0  0  0  0  0
    4.9824   -3.8762   -1.9926 C   0  0  2  0  0  0  0  0  0  0  0  0
    6.0088   -2.7669   -1.5758 C   0  0  1  0  0  0  0  0  0  0  0  0
    5.2380   -1.4868   -1.9105 C   0  0  2  0  0  0  0  0  0  0  0  0
    3.8318   -1.4071   -1.2248 C   0  0  2  0  0  0  0  0  0  0  0  0
    3.1170   -2.7735   -0.9577 C   0  0  1  0  0  0  0  0  0  0  0  0
    2.8079   -2.8215   -2.4553 C   0  0  2  0  0  0  0  0  0  0  0  0
    4.1153   -3.2760   -3.1185 C   0  0  1  0  0  0  0  0  0  0  0  0
    4.5037   -1.7975   -3.2141 C   0  0  1  0  0  0  0  0  0  0  0  0
    3.1973   -1.3700   -2.6025 C   0  0  2  0  0  0  0  0  0  0  0  0
    6.8533   -4.3576    1.5238 H   0  0  0  0  0  0  0  0  0  0  0  0
    6.5905   -5.1637   -0.1073 H   0  0  0  0  0  0  0  0  0  0  0  0
    6.5907   -2.0941    0.4669 H   0  0  0  0  0  0  0  0  0  0  0  0
    4.5784   -3.3128    1.3720 H   0  0  0  0  0  0  0  0  0  0  0  0
    3.5651   -4.8770   -0.5976 H   0  0  0  0  0  0  0  0  0  0  0  0
    5.4138   -4.8404   -2.2216 H   0  0  0  0  0  0  0  0  0  0  0  0
    6.9483   -2.8337   -2.1288 H   0  0  0  0  0  0  0  0  0  0  0  0
    5.7673   -0.5344   -1.9117 H   0  0  0  0  0  0  0  0  0  0  0  0
    3.6006   -0.5713   -0.5646 H   0  0  0  0  0  0  0  0  0  0  0  0
    2.2352   -2.6848   -0.3211 H   0  0  0  0  0  0  0  0  0  0  0  0
    1.8362   -3.1628   -2.8258 H   0  0  0  0  0  0  0  0  0  0  0  0
    4.0027   -3.8117   -4.0625 H   0  0  0  0  0  0  0  0  0  0  0  0
    4.8033   -1.3594   -4.1670 H   0  0  0  0  0  0  0  0  0  0  0  0
    2.5652   -0.5631   -2.9814 H   0  0  0  0  0  0  0  0  0  0  0  0
  1  3  1  0
  1  2  1  0
  1 14  1  0
  1 15  1  0
  2  6  1  0
  2  3  1  0
  2 16  1  1
  3  4  1  0
  3 17  1  1
  4  9  1  0
  4  5  1  0
  4 18  1  1
  5 11  1  0
  5  6  1  0
  5 19  1  6
  6  7  1  0
  6 20  1  6
  7 12  1  0
  7  8  1  0
  7 21  1  6
  8 13  1  0
  8  9  1  0
  8 22  1  1
  9 10  1  0
  9 23  1  1
 10 13  1  0
 10 11  1  0
 10 24  1  1
 11 12  1  0
 11 25  1  6
 12 13  1  0
 12 26  1  6
 13 27  1  6
M  END
>  <i_m_ct_stereo_status>  (151) 
1

>  <s_m_source_file>  (151) 
/var/tmp/pbs.5076255.sched01/tmpyrjfudeo/454urwji6r.sdf

>  <i_m_source_file_index>  (151) 
21

>  <i_lp_mmshare_version>  (151) 
48012

>  <i_f3d_flags>  (151) 
2

>  <s_epik_input>  (151) 
W0NIMl0xW0NASF0oW0NASF0xMilbQ0BASF0zW0NAQEhdNFtDQEhdMltDQEBIXTVbQ0BASF02W0NASF0zW0NAQEhdN1tDQEhdNFtDQEhdNVtDQEhdNjc=

>  <s_epik_cmdline>  (151) 
J2VwaWtfcHl0aG9uJywgJy1waHQnLCAnMi4wJywgJy1waCcsICc3LjAnLCAnLXRuJywgJzgnLCAnLW1hJywgJzIwMCcsICctaW1hZScsICc8aW5maWxlLm1hZT4nLCAnLW9tYWUnLCAnPG91dGZpbGUubWFlPic=

>  <r_lp_tautomer_probability>  (151) 
1

>  <r_epik_Ionization_Penalty>  (151) 
0

>  <r_epik_Ionization_Penalty_Charging>  (151) 
0

>  <r_epik_Ionization_Penalty_Neutral>  (151) 
0

>  <r_epik_State_Penalty>  (151) 
-0

>  <r_epik_Charging_Adjusted_Penalty>  (151) 
0

>  <i_epik_Tot_Q>  (151) 
0

>  <i_epik_Tot_abs_Q>  (151) 
0

>  <s_lp_Force_Field>  (151) 
OPLS3e

>  <r_lp_Energy>  (151) 
72.5988

>  <b_lp_Chiralities_Consistent>  (151) 
0

>  <s_lp_Variant>  (151) 
35:0-1

>  <s_i_glide_gridfile>  (151) 
pfpi4k_grid

>  <i_i_glide_lignum>  (151) 
21

>  <i_i_glide_rotatable_bonds>  (151) 
0

>  <r_i_docking_score>  (151) 
-3.46073

>  <r_i_glide_ligand_efficiency>  (151) 
-0.26621

>  <r_i_glide_ligand_efficiency_sa>  (151) 
-0.625949

>  <r_i_glide_ligand_efficiency_ln>  (151) 
-0.970765

>  <r_i_glide_gscore>  (151) 
-3.46073

>  <r_i_glide_lipo>  (151) 
-0.313124

>  <r_i_glide_hbond>  (151) 
0

>  <r_i_glide_metal>  (151) 
-0

>  <r_i_glide_rewards>  (151) 
-2.24829

>  <r_i_glide_evdw>  (151) 
-18.2292

>  <r_i_glide_ecoul>  (151) 
0.0809957

>  <r_i_glide_erotb>  (151) 
0

>  <r_i_glide_esite>  (151) 
0

>  <r_i_glide_emodel>  (151) 
-22.7076

>  <r_i_glide_energy>  (151) 
-18.1482

>  <r_i_glide_einternal>  (151) 
0

>  <r_i_glide_intrahb_reward>  (151) 
-0

>  <i_i_glide_confnum>  (151) 
1

>  <i_i_glide_posenum>  (151) 
6

>  <r_i_glide_eff_state_penalty>  (151) 
0

>  <ligand_id>  (151) 
35

>  <original_smiles>  (151) 
C1C2C1C1C3C2C2C4C1C1C3C2C41

>  <smiles>  (151) 
[H]C1([H])C2([H])C1([H])C1([H])C3([H])C2([H])C2([H])C4([H])C1([H])C1([H])C3([H])C2([H])C41[H]

$$$$
37:0:0
     RDKit          3D

 28 30  0  0  1  0  0  0  0  0999 V2000
    5.3781   -3.8592   -3.8941 O   0  0  0  0  0  0  0  0  0  0  0  0
    4.7170   -3.1867   -3.1213 C   0  0  0  0  0  0  0  0  0  0  0  0
    3.4093   -2.5589   -3.5759 C   0  0  0  0  0  0  0  0  0  0  0  0
    2.3761   -2.5414   -2.4844 C   0  0  1  0  0  0  0  0  0  0  0  0
    1.9152   -3.7954   -1.9585 N   0  0  0  0  0  0  0  0  0  0  0  0
    2.6942   -2.9775   -1.0537 C   0  0  1  0  0  0  0  0  0  0  0  0
    4.0603   -3.5489   -0.7202 C   0  0  2  0  0  0  0  0  0  0  0  0
    4.4466   -3.2745    0.7529 C   0  0  0  0  0  0  0  0  0  0  0  0
    4.7320   -1.7850    1.0341 C   0  0  0  0  0  0  0  0  0  0  0  0
    5.7989   -1.2227    0.0831 C   0  0  0  0  0  0  0  0  0  0  0  0
    5.3832   -1.4557   -1.3742 C   0  0  0  0  0  0  0  0  0  0  0  0
    5.1342   -2.9573   -1.6649 C   0  0  2  0  0  0  0  0  0  0  0  0
    3.6137   -1.5167   -3.8068 H   0  0  0  0  0  0  0  0  0  0  0  0
    3.0130   -3.0240   -4.4784 H   0  0  0  0  0  0  0  0  0  0  0  0
    1.5121   -1.9647   -2.7183 H   0  0  0  0  0  0  0  0  0  0  0  0
    0.9244   -3.7312   -1.8593 H   0  0  0  0  0  0  0  0  0  0  0  0
    2.0408   -2.6923   -0.2344 H   0  0  0  0  0  0  0  0  0  0  0  0
    4.0262   -4.6383   -0.8586 H   0  0  0  0  0  0  0  0  0  0  0  0
    3.6597   -3.6334    1.4197 H   0  0  0  0  0  0  0  0  0  0  0  0
    5.3403   -3.8486    0.9828 H   0  0  0  0  0  0  0  0  0  0  0  0
    3.8185   -1.1913    0.9381 H   0  0  0  0  0  0  0  0  0  0  0  0
    5.0699   -1.6667    2.0620 H   0  0  0  0  0  0  0  0  0  0  0  0
    5.9367   -0.1570    0.2747 H   0  0  0  0  0  0  0  0  0  0  0  0
    6.7619   -1.6957    0.2879 H   0  0  0  0  0  0  0  0  0  0  0  0
    4.4987   -0.8485   -1.5842 H   0  0  0  0  0  0  0  0  0  0  0  0
    6.1578   -1.0866   -2.0405 H   0  0  0  0  0  0  0  0  0  0  0  0
    6.0691   -3.4908   -1.4995 H   0  0  0  0  0  0  0  0  0  0  0  0
    2.3547   -4.6143   -2.3592 H   0  0  0  0  0  0  0  0  0  0  0  0
  1  2  2  0
  2 12  1  0
  2  3  1  0
  3  4  1  0
  3 13  1  0
  3 14  1  0
  4  6  1  0
  4  5  1  0
  4 15  1  1
  5  6  1  0
  5 16  1  0
  5 28  1  0
  6  7  1  0
  6 17  1  1
  7 12  1  0
  7  8  1  0
  7 18  1  1
  8  9  1  0
  8 19  1  0
  8 20  1  0
  9 10  1  0
  9 21  1  0
  9 22  1  0
 10 11  1  0
 10 23  1  0
 10 24  1  0
 11 12  1  0
 11 25  1  0
 11 26  1  0
 12 27  1  6
M  CHG  1   5   1
M  END
>  <i_m_ct_stereo_status>  (152) 
1

>  <s_m_source_file>  (152) 
/var/tmp/pbs.5076255.sched01/tmpyrjfudeo/454urwji6r.sdf

>  <i_m_source_file_index>  (152) 
24

>  <i_lp_mmshare_version>  (152) 
48012

>  <i_f3d_flags>  (152) 
0

>  <s_epik_input>  (152) 
W0NASF0xMltDQEBIXShbTkhdMilbQ0BIXTNbQ0BASF0oQyg9TylbQ0gyXTEpW0NIMl1bQ0gyXVtDSDJdW0NIMl0z

>  <s_epik_cmdline>  (152) 
J2VwaWtfcHl0aG9uJywgJy1waHQnLCAnMi4wJywgJy1waCcsICc3LjAnLCAnLXRuJywgJzgnLCAnLW1hJywgJzIwMCcsICctaW1hZScsICc8aW5maWxlLm1hZT4nLCAnLW9tYWUnLCAnPG91dGZpbGUubWFlPic=

>  <r_lp_tautomer_probability>  (152) 
1

>  <r_epik_Ionization_Penalty>  (152) 
0.13993

>  <r_epik_Ionization_Penalty_Charging>  (152) 
0.13993

>  <r_epik_Ionization_Penalty_Neutral>  (152) 
6.63514e-12

>  <r_epik_State_Penalty>  (152) 
0.129252

>  <r_epik_Charging_Adjusted_Penalty>  (152) 
0.269182

>  <i_epik_Tot_Q>  (152) 
1

>  <i_epik_Tot_abs_Q>  (152) 
1

>  <s_lp_Force_Field>  (152) 
OPLS3e

>  <r_lp_Energy>  (152) 
18.9298

>  <b_lp_Chiralities_Consistent>  (152) 
1

>  <s_lp_Variant>  (152) 
37:0-1

>  <s_i_glide_gridfile>  (152) 
pfpi4k_grid

>  <i_i_glide_lignum>  (152) 
24

>  <i_i_glide_rotatable_bonds>  (152) 
0

>  <r_i_docking_score>  (152) 
-4.77104

>  <r_i_glide_ligand_efficiency>  (152) 
-0.397586

>  <r_i_glide_ligand_efficiency_sa>  (152) 
-0.910245

>  <r_i_glide_ligand_efficiency_ln>  (152) 
-1.36906

>  <r_i_glide_gscore>  (152) 
-4.77104

>  <r_i_glide_lipo>  (152) 
-0.327447

>  <r_i_glide_hbond>  (152) 
0

>  <r_i_glide_metal>  (152) 
-0

>  <r_i_glide_rewards>  (152) 
-2.46803

>  <r_i_glide_evdw>  (152) 
-11.51

>  <r_i_glide_ecoul>  (152) 
-9.33372

>  <r_i_glide_erotb>  (152) 
0

>  <r_i_glide_esite>  (152) 
0

>  <r_i_glide_emodel>  (152) 
-27.0274

>  <r_i_glide_energy>  (152) 
-20.8437

>  <r_i_glide_einternal>  (152) 
0

>  <r_i_glide_intrahb_reward>  (152) 
-0

>  <i_i_glide_confnum>  (152) 
1

>  <i_i_glide_posenum>  (152) 
2

>  <r_i_glide_eff_state_penalty>  (152) 
0

>  <ligand_id>  (152) 
37

>  <original_smiles>  (152) 
O=C1CC2NC2C2CCCCC12

>  <smiles>  (152) 
[H]C1([H])C(=O)C2([H])C([H])([H])C([H])([H])C([H])([H])C([H])([H])C2([H])C2([H])C1([H])[N+]2([H])[H]

$$$$
37:0:1
     RDKit          3D

 28 30  0  0  1  0  0  0  0  0999 V2000
    7.7135   -1.8799   -0.1757 O   0  0  0  0  0  0  0  0  0  0  0  0
    6.5418   -2.2693   -0.2266 C   0  0  0  0  0  0  0  0  0  0  0  0
    5.7908   -2.7627    1.0129 C   0  0  0  0  0  0  0  0  0  0  0  0
    4.3237   -2.3340    1.0366 C   0  0  1  0  0  0  0  0  0  0  0  0
    4.0858   -0.9091    1.0239 N   0  0  0  0  0  0  0  0  0  0  0  0
    3.6994   -1.6546   -0.1580 C   0  0  1  0  0  0  0  0  0  0  0  0
    4.5418   -1.2648   -1.3731 C   0  0  2  0  0  0  0  0  0  0  0  0
    3.7174   -1.1903   -2.6693 C   0  0  0  0  0  0  0  0  0  0  0  0
    3.2894   -2.5830   -3.1626 C   0  0  0  0  0  0  0  0  0  0  0  0
    4.5111   -3.5056   -3.3150 C   0  0  0  0  0  0  0  0  0  0  0  0
    5.3092   -3.5941   -2.0078 C   0  0  0  0  0  0  0  0  0  0  0  0
    5.7531   -2.2018   -1.5355 C   0  0  2  0  0  0  0  0  0  0  0  0
    5.7987   -3.8454    0.9885 H   0  0  0  0  0  0  0  0  0  0  0  0
    6.2955   -2.4533    1.9343 H   0  0  0  0  0  0  0  0  0  0  0  0
    3.6678   -2.8126    1.7553 H   0  0  0  0  0  0  0  0  0  0  0  0
    3.3212   -0.6269    1.6044 H   0  0  0  0  0  0  0  0  0  0  0  0
    2.6197   -1.6102   -0.2370 H   0  0  0  0  0  0  0  0  0  0  0  0
    4.9360   -0.2608   -1.1924 H   0  0  0  0  0  0  0  0  0  0  0  0
    2.8364   -0.5618   -2.5389 H   0  0  0  0  0  0  0  0  0  0  0  0
    4.3184   -0.7117   -3.4469 H   0  0  0  0  0  0  0  0  0  0  0  0
    2.5853   -3.0263   -2.4596 H   0  0  0  0  0  0  0  0  0  0  0  0
    2.7697   -2.4995   -4.1124 H   0  0  0  0  0  0  0  0  0  0  0  0
    4.2173   -4.5110   -3.6212 H   0  0  0  0  0  0  0  0  0  0  0  0
    5.1400   -3.1389   -4.1206 H   0  0  0  0  0  0  0  0  0  0  0  0
    4.7057   -4.0990   -1.2598 H   0  0  0  0  0  0  0  0  0  0  0  0
    6.1862   -4.2053   -2.1742 H   0  0  0  0  0  0  0  0  0  0  0  0
    6.4039   -1.7970   -2.3077 H   0  0  0  0  0  0  0  0  0  0  0  0
    4.9126   -0.3433    0.9527 H   0  0  0  0  0  0  0  0  0  0  0  0
  1  2  2  0
  2 12  1  0
  2  3  1  0
  3  4  1  0
  3 13  1  0
  3 14  1  0
  4  6  1  0
  4  5  1  0
  4 15  1  1
  5  6  1  0
  5 16  1  0
  5 28  1  0
  6  7  1  0
  6 17  1  6
  7 12  1  0
  7  8  1  0
  7 18  1  1
  8  9  1  0
  8 19  1  0
  8 20  1  0
  9 10  1  0
  9 21  1  0
  9 22  1  0
 10 11  1  0
 10 23  1  0
 10 24  1  0
 11 12  1  0
 11 25  1  0
 11 26  1  0
 12 27  1  6
M  CHG  1   5   1
M  END
>  <i_m_ct_stereo_status>  (153) 
1

>  <s_m_source_file>  (153) 
/var/tmp/pbs.5076255.sched01/tmpyrjfudeo/454urwji6r.sdf

>  <i_m_source_file_index>  (153) 
24

>  <i_lp_mmshare_version>  (153) 
48012

>  <i_f3d_flags>  (153) 
0

>  <s_epik_input>  (153) 
W0NASF0xMltDQEBIXShbTkhdMilbQ0BIXTNbQ0BASF0oQyg9TylbQ0gyXTEpW0NIMl1bQ0gyXVtDSDJdW0NIMl0z

>  <s_epik_cmdline>  (153) 
J2VwaWtfcHl0aG9uJywgJy1waHQnLCAnMi4wJywgJy1waCcsICc3LjAnLCAnLXRuJywgJzgnLCAnLW1hJywgJzIwMCcsICctaW1hZScsICc8aW5maWxlLm1hZT4nLCAnLW9tYWUnLCAnPG91dGZpbGUubWFlPic=

>  <r_lp_tautomer_probability>  (153) 
1

>  <r_epik_Ionization_Penalty>  (153) 
0.13993

>  <r_epik_Ionization_Penalty_Charging>  (153) 
0.13993

>  <r_epik_Ionization_Penalty_Neutral>  (153) 
6.63514e-12

>  <r_epik_State_Penalty>  (153) 
0.129252

>  <r_epik_Charging_Adjusted_Penalty>  (153) 
0.269182

>  <i_epik_Tot_Q>  (153) 
1

>  <i_epik_Tot_abs_Q>  (153) 
1

>  <s_lp_Force_Field>  (153) 
OPLS3e

>  <r_lp_Energy>  (153) 
18.9298

>  <b_lp_Chiralities_Consistent>  (153) 
1

>  <s_lp_Variant>  (153) 
37:0-1

>  <s_i_glide_gridfile>  (153) 
pfpi4k_grid

>  <i_i_glide_lignum>  (153) 
24

>  <i_i_glide_rotatable_bonds>  (153) 
0

>  <r_i_docking_score>  (153) 
-4.27616

>  <r_i_glide_ligand_efficiency>  (153) 
-0.356347

>  <r_i_glide_ligand_efficiency_sa>  (153) 
-0.81583

>  <r_i_glide_ligand_efficiency_ln>  (153) 
-1.22705

>  <r_i_glide_gscore>  (153) 
-4.27616

>  <r_i_glide_lipo>  (153) 
-0.373718

>  <r_i_glide_hbond>  (153) 
-0.133755

>  <r_i_glide_metal>  (153) 
-0

>  <r_i_glide_rewards>  (153) 
-2.25

>  <r_i_glide_evdw>  (153) 
-17.2876

>  <r_i_glide_ecoul>  (153) 
-4.25905

>  <r_i_glide_erotb>  (153) 
0

>  <r_i_glide_esite>  (153) 
-0.0154476

>  <r_i_glide_emodel>  (153) 
-27.471

>  <r_i_glide_energy>  (153) 
-21.5466

>  <r_i_glide_einternal>  (153) 
0

>  <r_i_glide_intrahb_reward>  (153) 
-0

>  <i_i_glide_confnum>  (153) 
1

>  <i_i_glide_posenum>  (153) 
1

>  <r_i_glide_eff_state_penalty>  (153) 
0

>  <ligand_id>  (153) 
37

>  <original_smiles>  (153) 
O=C1CC2NC2C2CCCCC12

>  <smiles>  (153) 
[H]C1([H])C(=O)C2([H])C([H])([H])C([H])([H])C([H])([H])C([H])([H])C2([H])C2([H])C1([H])[N+]2([H])[H]

$$$$
37:0:2
     RDKit          3D

 28 30  0  0  1  0  0  0  0  0999 V2000
    7.3119   -3.3103    0.3195 O   0  0  0  0  0  0  0  0  0  0  0  0
    6.1033   -3.1106    0.1359 C   0  0  0  0  0  0  0  0  0  0  0  0
    5.0762   -3.2702    1.2604 C   0  0  0  0  0  0  0  0  0  0  0  0
    3.9471   -2.2374    1.1953 C   0  0  1  0  0  0  0  0  0  0  0  0
    4.3684   -0.8604    1.2958 N   0  0  0  0  0  0  0  0  0  0  0  0
    3.8314   -1.2945    0.0246 C   0  0  1  0  0  0  0  0  0  0  0  0
    4.8928   -1.2717   -1.0747 C   0  0  2  0  0  0  0  0  0  0  0  0
    4.3172   -0.8205   -2.4224 C   0  0  0  0  0  0  0  0  0  0  0  0
    3.3731   -1.8441   -3.0574 C   0  0  0  0  0  0  0  0  0  0  0  0
    4.0791   -3.1997   -3.2002 C   0  0  0  0  0  0  0  0  0  0  0  0
    4.6244   -3.6834   -1.8470 C   0  0  0  0  0  0  0  0  0  0  0  0
    5.5833   -2.6434   -1.2244 C   0  0  2  0  0  0  0  0  0  0  0  0
    4.6133   -4.2366    1.1463 H   0  0  0  0  0  0  0  0  0  0  0  0
    5.5565   -3.2519    2.2468 H   0  0  0  0  0  0  0  0  0  0  0  0
    3.0757   -2.3968    1.8182 H   0  0  0  0  0  0  0  0  0  0  0  0
    3.7414   -0.3046    1.8401 H   0  0  0  0  0  0  0  0  0  0  0  0
    2.9246   -0.7181   -0.1301 H   0  0  0  0  0  0  0  0  0  0  0  0
    5.6464   -0.5255   -0.7858 H   0  0  0  0  0  0  0  0  0  0  0  0
    3.8195    0.1399   -2.3326 H   0  0  0  0  0  0  0  0  0  0  0  0
    5.1240   -0.6530   -3.1244 H   0  0  0  0  0  0  0  0  0  0  0  0
    2.4722   -1.9594   -2.4580 H   0  0  0  0  0  0  0  0  0  0  0  0
    3.0579   -1.4951   -4.0352 H   0  0  0  0  0  0  0  0  0  0  0  0
    3.3705   -3.9221   -3.6037 H   0  0  0  0  0  0  0  0  0  0  0  0
    4.8953   -3.1324   -3.9214 H   0  0  0  0  0  0  0  0  0  0  0  0
    3.7845   -3.8874   -1.1934 H   0  0  0  0  0  0  0  0  0  0  0  0
    5.1392   -4.6308   -1.9847 H   0  0  0  0  0  0  0  0  0  0  0  0
    6.4340   -2.5309   -1.8945 H   0  0  0  0  0  0  0  0  0  0  0  0
    5.3647   -0.7378    1.3535 H   0  0  0  0  0  0  0  0  0  0  0  0
  1  2  2  0
  2 12  1  0
  2  3  1  0
  3  4  1  0
  3 13  1  0
  3 14  1  0
  4  6  1  0
  4  5  1  0
  4 15  1  1
  5  6  1  0
  5 16  1  0
  5 28  1  0
  6  7  1  0
  6 17  1  6
  7 12  1  0
  7  8  1  0
  7 18  1  1
  8  9  1  0
  8 19  1  0
  8 20  1  0
  9 10  1  0
  9 21  1  0
  9 22  1  0
 10 11  1  0
 10 23  1  0
 10 24  1  0
 11 12  1  0
 11 25  1  0
 11 26  1  0
 12 27  1  6
M  CHG  1   5   1
M  END
>  <i_m_ct_stereo_status>  (154) 
1

>  <s_m_source_file>  (154) 
/var/tmp/pbs.5076255.sched01/tmpyrjfudeo/454urwji6r.sdf

>  <i_m_source_file_index>  (154) 
24

>  <i_lp_mmshare_version>  (154) 
48012

>  <i_f3d_flags>  (154) 
0

>  <s_epik_input>  (154) 
W0NASF0xMltDQEBIXShbTkhdMilbQ0BIXTNbQ0BASF0oQyg9TylbQ0gyXTEpW0NIMl1bQ0gyXVtDSDJdW0NIMl0z

>  <s_epik_cmdline>  (154) 
J2VwaWtfcHl0aG9uJywgJy1waHQnLCAnMi4wJywgJy1waCcsICc3LjAnLCAnLXRuJywgJzgnLCAnLW1hJywgJzIwMCcsICctaW1hZScsICc8aW5maWxlLm1hZT4nLCAnLW9tYWUnLCAnPG91dGZpbGUubWFlPic=

>  <r_lp_tautomer_probability>  (154) 
1

>  <r_epik_Ionization_Penalty>  (154) 
0.13993

>  <r_epik_Ionization_Penalty_Charging>  (154) 
0.13993

>  <r_epik_Ionization_Penalty_Neutral>  (154) 
6.63514e-12

>  <r_epik_State_Penalty>  (154) 
0.129252

>  <r_epik_Charging_Adjusted_Penalty>  (154) 
0.269182

>  <i_epik_Tot_Q>  (154) 
1

>  <i_epik_Tot_abs_Q>  (154) 
1

>  <s_lp_Force_Field>  (154) 
OPLS3e

>  <r_lp_Energy>  (154) 
18.9298

>  <b_lp_Chiralities_Consistent>  (154) 
1

>  <s_lp_Variant>  (154) 
37:0-1

>  <s_i_glide_gridfile>  (154) 
pfpi4k_grid

>  <i_i_glide_lignum>  (154) 
24

>  <i_i_glide_rotatable_bonds>  (154) 
0

>  <r_i_docking_score>  (154) 
-3.81015

>  <r_i_glide_ligand_efficiency>  (154) 
-0.317512

>  <r_i_glide_ligand_efficiency_sa>  (154) 
-0.726922

>  <r_i_glide_ligand_efficiency_ln>  (154) 
-1.09333

>  <r_i_glide_gscore>  (154) 
-3.81015

>  <r_i_glide_lipo>  (154) 
-0.146551

>  <r_i_glide_hbond>  (154) 
0

>  <r_i_glide_metal>  (154) 
-0

>  <r_i_glide_rewards>  (154) 
-2.33589

>  <r_i_glide_evdw>  (154) 
-17.2743

>  <r_i_glide_ecoul>  (154) 
-3.09326

>  <r_i_glide_erotb>  (154) 
0

>  <r_i_glide_esite>  (154) 
0

>  <r_i_glide_emodel>  (154) 
-25.641

>  <r_i_glide_energy>  (154) 
-20.3676

>  <r_i_glide_einternal>  (154) 
0

>  <r_i_glide_intrahb_reward>  (154) 
-0

>  <i_i_glide_confnum>  (154) 
1

>  <i_i_glide_posenum>  (154) 
8

>  <r_i_glide_eff_state_penalty>  (154) 
0

>  <ligand_id>  (154) 
37

>  <original_smiles>  (154) 
O=C1CC2NC2C2CCCCC12

>  <smiles>  (154) 
[H]C1([H])C(=O)C2([H])C([H])([H])C([H])([H])C([H])([H])C([H])([H])C2([H])C2([H])C1([H])[N+]2([H])[H]

$$$$
37:1:0
     RDKit          3D

 27 29  0  0  1  0  0  0  0  0999 V2000
    6.9895   -2.2659   -1.4831 O   0  0  0  0  0  0  0  0  0  0  0  0
    6.1590   -2.1797   -0.5785 C   0  0  0  0  0  0  0  0  0  0  0  0
    6.4812   -2.7436    0.8057 C   0  0  0  0  0  0  0  0  0  0  0  0
    5.2591   -3.1188    1.6494 C   0  0  1  0  0  0  0  0  0  0  0  0
    4.5042   -1.9379    2.0609 N   0  0  0  0  0  0  0  0  0  0  0  0
    3.8676   -2.8670    1.1460 C   0  0  1  0  0  0  0  0  0  0  0  0
    3.6497   -2.2872   -0.2487 C   0  0  2  0  0  0  0  0  0  0  0  0
    3.3308   -3.4433   -1.2100 C   0  0  0  0  0  0  0  0  0  0  0  0
    3.0458   -2.9631   -2.6397 C   0  0  0  0  0  0  0  0  0  0  0  0
    4.2075   -2.1203   -3.1923 C   0  0  0  0  0  0  0  0  0  0  0  0
    4.5594   -0.9747   -2.2325 C   0  0  0  0  0  0  0  0  0  0  0  0
    4.8260   -1.4348   -0.7695 C   0  0  2  0  0  0  0  0  0  0  0  0
    7.0793   -3.6322    0.6712 H   0  0  0  0  0  0  0  0  0  0  0  0
    7.0856   -2.0179    1.3527 H   0  0  0  0  0  0  0  0  0  0  0  0
    5.4227   -3.8778    2.3951 H   0  0  0  0  0  0  0  0  0  0  0  0
    4.1429   -1.8960    3.0077 H   0  0  0  0  0  0  0  0  0  0  0  0
    3.0595   -3.4739    1.5360 H   0  0  0  0  0  0  0  0  0  0  0  0
    2.7719   -1.6436   -0.1752 H   0  0  0  0  0  0  0  0  0  0  0  0
    4.1592   -4.1528   -1.2370 H   0  0  0  0  0  0  0  0  0  0  0  0
    2.4595   -3.9979   -0.8532 H   0  0  0  0  0  0  0  0  0  0  0  0
    2.8672   -3.8160   -3.2930 H   0  0  0  0  0  0  0  0  0  0  0  0
    2.1325   -2.3639   -2.6468 H   0  0  0  0  0  0  0  0  0  0  0  0
    5.0829   -2.7568   -3.3600 H   0  0  0  0  0  0  0  0  0  0  0  0
    3.9319   -1.7165   -4.1636 H   0  0  0  0  0  0  0  0  0  0  0  0
    5.4120   -0.4294   -2.6144 H   0  0  0  0  0  0  0  0  0  0  0  0
    3.7303   -0.2582   -2.2363 H   0  0  0  0  0  0  0  0  0  0  0  0
    4.8958   -0.5352   -0.1622 H   0  0  0  0  0  0  0  0  0  0  0  0
  1  2  2  0
  2 12  1  0
  2  3  1  0
  3  4  1  0
  3 13  1  0
  3 14  1  0
  4  6  1  0
  4  5  1  0
  4 15  1  1
  5  6  1  0
  5 16  1  0
  6  7  1  0
  6 17  1  1
  7 12  1  0
  7  8  1  0
  7 18  1  1
  8  9  1  0
  8 19  1  0
  8 20  1  0
  9 10  1  0
  9 21  1  0
  9 22  1  0
 10 11  1  0
 10 23  1  0
 10 24  1  0
 11 12  1  0
 11 25  1  0
 11 26  1  0
 12 27  1  1
M  END
>  <i_m_ct_stereo_status>  (155) 
1

>  <s_m_source_file>  (155) 
/var/tmp/pbs.5076255.sched01/tmpyrjfudeo/454urwji6r.sdf

>  <i_m_source_file_index>  (155) 
25

>  <i_lp_mmshare_version>  (155) 
48012

>  <i_f3d_flags>  (155) 
0

>  <s_epik_input>  (155) 
W0NASF0xMltDQEBIXShbTkhdMilbQ0BIXTNbQ0BASF0oQyg9TylbQ0gyXTEpW0NIMl1bQ0gyXVtDSDJdW0NIMl0z

>  <s_epik_cmdline>  (155) 
J2VwaWtfcHl0aG9uJywgJy1waHQnLCAnMi4wJywgJy1waCcsICc3LjAnLCAnLXRuJywgJzgnLCAnLW1hJywgJzIwMCcsICctaW1hZScsICc8aW5maWxlLm1hZT4nLCAnLW9tYWUnLCAnPG91dGZpbGUubWFlPic=

>  <r_lp_tautomer_probability>  (155) 
1

>  <r_epik_Ionization_Penalty>  (155) 
0.923654

>  <r_epik_Ionization_Penalty_Charging>  (155) 
0

>  <r_epik_Ionization_Penalty_Neutral>  (155) 
0.923654

>  <r_epik_State_Penalty>  (155) 
0.965549

>  <r_epik_Charging_Adjusted_Penalty>  (155) 
0.965549

>  <i_epik_Tot_Q>  (155) 
0

>  <i_epik_Tot_abs_Q>  (155) 
0

>  <s_lp_Force_Field>  (155) 
OPLS3e

>  <r_lp_Energy>  (155) 
6.63979

>  <b_lp_Chiralities_Consistent>  (155) 
1

>  <s_lp_Variant>  (155) 
37:0-2

>  <s_i_glide_gridfile>  (155) 
pfpi4k_grid

>  <i_i_glide_lignum>  (155) 
25

>  <i_i_glide_rotatable_bonds>  (155) 
0

>  <r_i_docking_score>  (155) 
-3.98589

>  <r_i_glide_ligand_efficiency>  (155) 
-0.332157

>  <r_i_glide_ligand_efficiency_sa>  (155) 
-0.76045

>  <r_i_glide_ligand_efficiency_ln>  (155) 
-1.14376

>  <r_i_glide_gscore>  (155) 
-3.98589

>  <r_i_glide_lipo>  (155) 
-0.32853

>  <r_i_glide_hbond>  (155) 
-0.16

>  <r_i_glide_metal>  (155) 
-0

>  <r_i_glide_rewards>  (155) 
-2.25

>  <r_i_glide_evdw>  (155) 
-17.7664

>  <r_i_glide_ecoul>  (155) 
-2.17647

>  <r_i_glide_erotb>  (155) 
0

>  <r_i_glide_esite>  (155) 
-0.0325668

>  <r_i_glide_emodel>  (155) 
-24.8584

>  <r_i_glide_energy>  (155) 
-19.9429

>  <r_i_glide_einternal>  (155) 
0

>  <r_i_glide_intrahb_reward>  (155) 
-0

>  <i_i_glide_confnum>  (155) 
1

>  <i_i_glide_posenum>  (155) 
28

>  <r_i_glide_eff_state_penalty>  (155) 
0

>  <ligand_id>  (155) 
37

>  <original_smiles>  (155) 
O=C1CC2NC2C2CCCCC12

>  <smiles>  (155) 
[H]N1C2([H])C([H])([H])C(=O)C3([H])C([H])([H])C([H])([H])C([H])([H])C([H])([H])C3([H])C12[H]

$$$$
37:1:1
     RDKit          3D

 27 29  0  0  1  0  0  0  0  0999 V2000
    7.1282   -2.5778   -1.0300 O   0  0  0  0  0  0  0  0  0  0  0  0
    6.2537   -2.9525   -0.2628 C   0  0  0  0  0  0  0  0  0  0  0  0
    6.4361   -4.2183    0.5935 C   0  0  0  0  0  0  0  0  0  0  0  0
    5.1401   -4.8868    1.0356 C   0  0  1  0  0  0  0  0  0  0  0  0
    4.4030   -4.0830    2.0087 N   0  0  0  0  0  0  0  0  0  0  0  0
    3.7982   -4.2907    0.7093 C   0  0  1  0  0  0  0  0  0  0  0  0
    3.7079   -3.0297   -0.1295 C   0  0  2  0  0  0  0  0  0  0  0  0
    3.4037   -3.4410   -1.5819 C   0  0  0  0  0  0  0  0  0  0  0  0
    3.2592   -2.2393   -2.5378 C   0  0  0  0  0  0  0  0  0  0  0  0
    4.4931   -1.3333   -2.4720 C   0  0  0  0  0  0  0  0  0  0  0  0
    4.8271   -0.9385   -1.0227 C   0  0  0  0  0  0  0  0  0  0  0  0
    4.9668   -2.1344   -0.0532 C   0  0  2  0  0  0  0  0  0  0  0  0
    7.0000   -4.9364    0.0073 H   0  0  0  0  0  0  0  0  0  0  0  0
    7.0346   -3.9823    1.4674 H   0  0  0  0  0  0  0  0  0  0  0  0
    5.2042   -5.9473    1.2424 H   0  0  0  0  0  0  0  0  0  0  0  0
    3.9837   -4.5603    2.7977 H   0  0  0  0  0  0  0  0  0  0  0  0
    2.9353   -4.9607    0.6661 H   0  0  0  0  0  0  0  0  0  0  0  0
    2.8570   -2.4592    0.2391 H   0  0  0  0  0  0  0  0  0  0  0  0
    4.1962   -4.0882   -1.9601 H   0  0  0  0  0  0  0  0  0  0  0  0
    2.4791   -4.0145   -1.6157 H   0  0  0  0  0  0  0  0  0  0  0  0
    3.0993   -2.5910   -3.5577 H   0  0  0  0  0  0  0  0  0  0  0  0
    2.3721   -1.6642   -2.2735 H   0  0  0  0  0  0  0  0  0  0  0  0
    5.3404   -1.8471   -2.9313 H   0  0  0  0  0  0  0  0  0  0  0  0
    4.3131   -0.4389   -3.0690 H   0  0  0  0  0  0  0  0  0  0  0  0
    5.7307   -0.3367   -1.0151 H   0  0  0  0  0  0  0  0  0  0  0  0
    4.0422   -0.2819   -0.6432 H   0  0  0  0  0  0  0  0  0  0  0  0
    5.0345   -1.7292    0.9502 H   0  0  0  0  0  0  0  0  0  0  0  0
  1  2  2  0
  2 12  1  0
  2  3  1  0
  3  4  1  0
  3 13  1  0
  3 14  1  0
  4  6  1  0
  4  5  1  0
  4 15  1  1
  5  6  1  0
  5 16  1  0
  6  7  1  0
  6 17  1  1
  7 12  1  0
  7  8  1  0
  7 18  1  1
  8  9  1  0
  8 19  1  0
  8 20  1  0
  9 10  1  0
  9 21  1  0
  9 22  1  0
 10 11  1  0
 10 23  1  0
 10 24  1  0
 11 12  1  0
 11 25  1  0
 11 26  1  0
 12 27  1  1
M  END
>  <i_m_ct_stereo_status>  (156) 
1

>  <s_m_source_file>  (156) 
/var/tmp/pbs.5076255.sched01/tmpyrjfudeo/454urwji6r.sdf

>  <i_m_source_file_index>  (156) 
25

>  <i_lp_mmshare_version>  (156) 
48012

>  <i_f3d_flags>  (156) 
0

>  <s_epik_input>  (156) 
W0NASF0xMltDQEBIXShbTkhdMilbQ0BIXTNbQ0BASF0oQyg9TylbQ0gyXTEpW0NIMl1bQ0gyXVtDSDJdW0NIMl0z

>  <s_epik_cmdline>  (156) 
J2VwaWtfcHl0aG9uJywgJy1waHQnLCAnMi4wJywgJy1waCcsICc3LjAnLCAnLXRuJywgJzgnLCAnLW1hJywgJzIwMCcsICctaW1hZScsICc8aW5maWxlLm1hZT4nLCAnLW9tYWUnLCAnPG91dGZpbGUubWFlPic=

>  <r_lp_tautomer_probability>  (156) 
1

>  <r_epik_Ionization_Penalty>  (156) 
0.923654

>  <r_epik_Ionization_Penalty_Charging>  (156) 
0

>  <r_epik_Ionization_Penalty_Neutral>  (156) 
0.923654

>  <r_epik_State_Penalty>  (156) 
0.965549

>  <r_epik_Charging_Adjusted_Penalty>  (156) 
0.965549

>  <i_epik_Tot_Q>  (156) 
0

>  <i_epik_Tot_abs_Q>  (156) 
0

>  <s_lp_Force_Field>  (156) 
OPLS3e

>  <r_lp_Energy>  (156) 
6.63979

>  <b_lp_Chiralities_Consistent>  (156) 
1

>  <s_lp_Variant>  (156) 
37:0-2

>  <s_i_glide_gridfile>  (156) 
pfpi4k_grid

>  <i_i_glide_lignum>  (156) 
25

>  <i_i_glide_rotatable_bonds>  (156) 
0

>  <r_i_docking_score>  (156) 
-3.70232

>  <r_i_glide_ligand_efficiency>  (156) 
-0.308527

>  <r_i_glide_ligand_efficiency_sa>  (156) 
-0.70635

>  <r_i_glide_ligand_efficiency_ln>  (156) 
-1.06239

>  <r_i_glide_gscore>  (156) 
-3.70232

>  <r_i_glide_lipo>  (156) 
-0.225609

>  <r_i_glide_hbond>  (156) 
-0.107314

>  <r_i_glide_metal>  (156) 
-0

>  <r_i_glide_rewards>  (156) 
-2.30751

>  <r_i_glide_evdw>  (156) 
-16.02

>  <r_i_glide_ecoul>  (156) 
-1.73927

>  <r_i_glide_erotb>  (156) 
0

>  <r_i_glide_esite>  (156) 
0

>  <r_i_glide_emodel>  (156) 
-22.2977

>  <r_i_glide_energy>  (156) 
-17.7593

>  <r_i_glide_einternal>  (156) 
0

>  <r_i_glide_intrahb_reward>  (156) 
-0

>  <i_i_glide_confnum>  (156) 
1

>  <i_i_glide_posenum>  (156) 
12

>  <r_i_glide_eff_state_penalty>  (156) 
0

>  <ligand_id>  (156) 
37

>  <original_smiles>  (156) 
O=C1CC2NC2C2CCCCC12

>  <smiles>  (156) 
[H]N1C2([H])C([H])([H])C(=O)C3([H])C([H])([H])C([H])([H])C([H])([H])C([H])([H])C3([H])C12[H]

$$$$
37:1:2
     RDKit          3D

 27 29  0  0  1  0  0  0  0  0999 V2000
    5.3711   -4.6859   -0.3754 O   0  0  0  0  0  0  0  0  0  0  0  0
    4.7469   -3.8123   -0.9880 C   0  0  0  0  0  0  0  0  0  0  0  0
    5.0219   -3.5681   -2.4823 C   0  0  0  0  0  0  0  0  0  0  0  0
    4.7303   -2.1670   -2.9507 C   0  0  1  0  0  0  0  0  0  0  0  0
    3.3060   -1.8735   -2.9279 N   0  0  0  0  0  0  0  0  0  0  0  0
    4.1544   -1.1309   -2.0214 C   0  0  1  0  0  0  0  0  0  0  0  0
    3.9127   -1.4552   -0.5690 C   0  0  2  0  0  0  0  0  0  0  0  0
    5.1000   -0.9296    0.2614 C   0  0  0  0  0  0  0  0  0  0  0  0
    4.9314   -1.1800    1.7664 C   0  0  0  0  0  0  0  0  0  0  0  0
    4.7114   -2.6694    2.0597 C   0  0  0  0  0  0  0  0  0  0  0  0
    3.5386   -3.2290    1.2310 C   0  0  0  0  0  0  0  0  0  0  0  0
    3.6705   -2.9710   -0.2935 C   0  0  2  0  0  0  0  0  0  0  0  0
    6.0766   -3.7771   -2.6612 H   0  0  0  0  0  0  0  0  0  0  0  0
    4.4508   -4.2630   -3.0825 H   0  0  0  0  0  0  0  0  0  0  0  0
    5.2528   -1.8552   -3.8464 H   0  0  0  0  0  0  0  0  0  0  0  0
    2.8484   -1.3741   -3.6820 H   0  0  0  0  0  0  0  0  0  0  0  0
    4.3260   -0.0719   -2.2555 H   0  0  0  0  0  0  0  0  0  0  0  0
    3.0282   -0.9118   -0.2596 H   0  0  0  0  0  0  0  0  0  0  0  0
    6.0300   -1.3915   -0.0697 H   0  0  0  0  0  0  0  0  0  0  0  0
    5.1966    0.1430    0.1062 H   0  0  0  0  0  0  0  0  0  0  0  0
    5.8116   -0.8228    2.3017 H   0  0  0  0  0  0  0  0  0  0  0  0
    4.0788   -0.6065    2.1363 H   0  0  0  0  0  0  0  0  0  0  0  0
    5.6242   -3.2278    1.8576 H   0  0  0  0  0  0  0  0  0  0  0  0
    4.5072   -2.8006    3.1251 H   0  0  0  0  0  0  0  0  0  0  0  0
    3.4579   -4.3021    1.4305 H   0  0  0  0  0  0  0  0  0  0  0  0
    2.6089   -2.7899    1.5863 H   0  0  0  0  0  0  0  0  0  0  0  0
    2.7263   -3.2505   -0.7565 H   0  0  0  0  0  0  0  0  0  0  0  0
  1  2  2  0
  2 12  1  0
  2  3  1  0
  3  4  1  0
  3 13  1  0
  3 14  1  0
  4  6  1  0
  4  5  1  0
  4 15  1  6
  5  6  1  0
  5 16  1  0
  6  7  1  0
  6 17  1  1
  7 12  1  0
  7  8  1  0
  7 18  1  1
  8  9  1  0
  8 19  1  0
  8 20  1  0
  9 10  1  0
  9 21  1  0
  9 22  1  0
 10 11  1  0
 10 23  1  0
 10 24  1  0
 11 12  1  0
 11 25  1  0
 11 26  1  0
 12 27  1  6
M  END
>  <i_m_ct_stereo_status>  (157) 
1

>  <s_m_source_file>  (157) 
/var/tmp/pbs.5076255.sched01/tmpyrjfudeo/454urwji6r.sdf

>  <i_m_source_file_index>  (157) 
25

>  <i_lp_mmshare_version>  (157) 
48012

>  <i_f3d_flags>  (157) 
0

>  <s_epik_input>  (157) 
W0NASF0xMltDQEBIXShbTkhdMilbQ0BIXTNbQ0BASF0oQyg9TylbQ0gyXTEpW0NIMl1bQ0gyXVtDSDJdW0NIMl0z

>  <s_epik_cmdline>  (157) 
J2VwaWtfcHl0aG9uJywgJy1waHQnLCAnMi4wJywgJy1waCcsICc3LjAnLCAnLXRuJywgJzgnLCAnLW1hJywgJzIwMCcsICctaW1hZScsICc8aW5maWxlLm1hZT4nLCAnLW9tYWUnLCAnPG91dGZpbGUubWFlPic=

>  <r_lp_tautomer_probability>  (157) 
1

>  <r_epik_Ionization_Penalty>  (157) 
0.923654

>  <r_epik_Ionization_Penalty_Charging>  (157) 
0

>  <r_epik_Ionization_Penalty_Neutral>  (157) 
0.923654

>  <r_epik_State_Penalty>  (157) 
0.965549

>  <r_epik_Charging_Adjusted_Penalty>  (157) 
0.965549

>  <i_epik_Tot_Q>  (157) 
0

>  <i_epik_Tot_abs_Q>  (157) 
0

>  <s_lp_Force_Field>  (157) 
OPLS3e

>  <r_lp_Energy>  (157) 
6.63979

>  <b_lp_Chiralities_Consistent>  (157) 
1

>  <s_lp_Variant>  (157) 
37:0-2

>  <s_i_glide_gridfile>  (157) 
pfpi4k_grid

>  <i_i_glide_lignum>  (157) 
25

>  <i_i_glide_rotatable_bonds>  (157) 
0

>  <r_i_docking_score>  (157) 
-3.50808

>  <r_i_glide_ligand_efficiency>  (157) 
-0.29234

>  <r_i_glide_ligand_efficiency_sa>  (157) 
-0.669291

>  <r_i_glide_ligand_efficiency_ln>  (157) 
-1.00665

>  <r_i_glide_gscore>  (157) 
-3.50808

>  <r_i_glide_lipo>  (157) 
-0.380527

>  <r_i_glide_hbond>  (157) 
0

>  <r_i_glide_metal>  (157) 
-0

>  <r_i_glide_rewards>  (157) 
-2.25

>  <r_i_glide_evdw>  (157) 
-17.9507

>  <r_i_glide_ecoul>  (157) 
0.135108

>  <r_i_glide_erotb>  (157) 
0

>  <r_i_glide_esite>  (157) 
-0.000281307

>  <r_i_glide_emodel>  (157) 
-22.1353

>  <r_i_glide_energy>  (157) 
-17.8156

>  <r_i_glide_einternal>  (157) 
0

>  <r_i_glide_intrahb_reward>  (157) 
-0

>  <i_i_glide_confnum>  (157) 
1

>  <i_i_glide_posenum>  (157) 
2

>  <r_i_glide_eff_state_penalty>  (157) 
0

>  <ligand_id>  (157) 
37

>  <original_smiles>  (157) 
O=C1CC2NC2C2CCCCC12

>  <smiles>  (157) 
[H]N1C2([H])C([H])([H])C(=O)C3([H])C([H])([H])C([H])([H])C([H])([H])C([H])([H])C3([H])C12[H]

$$$$
39:0:0
     RDKit          3D

 61 66  0  0  1  0  0  0  0  0999 V2000
    6.6845   -8.0150    1.6541 C   0  0  0  0  0  0  0  0  0  0  0  0
    6.1938   -6.5957    1.2959 C   0  0  2  0  0  0  0  0  0  0  0  0
    7.3376   -5.5914    1.4587 C   0  0  0  0  0  0  0  0  0  0  0  0
    6.9731   -4.3074    0.7370 C   0  0  0  0  0  0  0  0  0  0  0  0
    5.7082   -3.6276    1.2895 C   0  0  1  0  0  0  0  0  0  0  0  0
    5.2354   -2.3670    0.4628 C   0  0  1  0  0  0  0  0  0  0  0  0
    5.2134   -1.3221    1.4066 O   0  0  0  0  0  0  0  0  0  0  0  0
    5.8382   -1.8752   -0.8839 C   0  0  1  0  0  0  0  0  0  0  0  0
    7.1255   -2.2569   -1.3183 O   0  0  0  0  0  0  0  0  0  0  0  0
    4.6451   -2.4189   -1.6815 C   0  0  0  0  0  0  0  0  0  0  0  0
    4.0825   -1.4552   -2.7406 C   0  0  0  0  0  0  0  0  0  0  0  0
    4.8522   -3.7515   -2.4047 C   0  0  0  0  0  0  0  0  0  0  0  0
    3.9030   -2.4388   -0.3224 C   0  0  1  0  0  0  0  0  0  0  0  0
    2.8704   -3.5212    0.0046 C   0  0  0  0  0  0  0  0  0  0  0  0
    3.5290   -4.8003    0.5495 C   0  0  2  0  0  0  0  0  0  0  0  0
    2.6119   -5.9114    1.0831 C   0  0  2  0  0  0  0  0  0  0  0  0
    1.7276   -5.4195    2.2208 C   0  0  1  0  0  0  0  0  0  0  0  0
    2.1511   -5.6808    3.5660 O   0  0  0  0  0  0  0  0  0  0  0  0
    2.2871   -4.3374    3.1263 C   0  0  2  0  0  0  0  0  0  0  0  0
    1.3609   -3.3205    3.7602 C   0  0  0  0  0  0  0  0  0  0  0  0
    3.7053   -3.8438    2.8645 C   0  0  1  0  0  0  0  0  0  0  0  0
    4.3881   -3.7502    4.1053 O   0  0  0  0  0  0  0  0  0  0  0  0
    4.5184   -4.5851    1.7193 C   0  0  2  0  0  0  0  0  0  0  0  0
    4.8945   -6.1098    2.0243 C   0  0  2  0  0  0  0  0  0  0  0  0
    5.1107   -6.3161    3.4074 O   0  0  0  0  0  0  0  0  0  0  0  0
    3.6630   -6.9489    1.5184 C   0  0  1  0  0  0  0  0  0  0  0  0
    3.1800   -8.1469    2.3712 C   0  0  0  0  0  0  0  0  0  0  0  0
    6.9835   -8.0975    2.6987 H   0  0  0  0  0  0  0  0  0  0  0  0
    7.5621   -8.2722    1.0585 H   0  0  0  0  0  0  0  0  0  0  0  0
    5.9391   -8.7817    1.4449 H   0  0  0  0  0  0  0  0  0  0  0  0
    5.9675   -6.6150    0.2292 H   0  0  0  0  0  0  0  0  0  0  0  0
    7.5439   -5.4042    2.5115 H   0  0  0  0  0  0  0  0  0  0  0  0
    8.2559   -5.9990    1.0258 H   0  0  0  0  0  0  0  0  0  0  0  0
    7.8139   -3.6229    0.8314 H   0  0  0  0  0  0  0  0  0  0  0  0
    6.8713   -4.5484   -0.3153 H   0  0  0  0  0  0  0  0  0  0  0  0
    6.0995   -3.2622    2.2476 H   0  0  0  0  0  0  0  0  0  0  0  0
    4.7752   -0.5963    0.9895 H   0  0  0  0  0  0  0  0  0  0  0  0
    5.7950   -0.7860   -0.9060 H   0  0  0  0  0  0  0  0  0  0  0  0
    7.1378   -3.2055   -1.3187 H   0  0  0  0  0  0  0  0  0  0  0  0
    3.1256   -1.8009   -3.1346 H   0  0  0  0  0  0  0  0  0  0  0  0
    4.7647   -1.3422   -3.5857 H   0  0  0  0  0  0  0  0  0  0  0  0
    3.9215   -0.4597   -2.3333 H   0  0  0  0  0  0  0  0  0  0  0  0
    3.8945   -4.1992   -2.6627 H   0  0  0  0  0  0  0  0  0  0  0  0
    5.3845   -4.4734   -1.7938 H   0  0  0  0  0  0  0  0  0  0  0  0
    5.4221   -3.6470   -3.3311 H   0  0  0  0  0  0  0  0  0  0  0  0
    3.4167   -1.4693   -0.2473 H   0  0  0  0  0  0  0  0  0  0  0  0
    2.1617   -3.1119    0.7227 H   0  0  0  0  0  0  0  0  0  0  0  0
    2.2661   -3.7544   -0.8749 H   0  0  0  0  0  0  0  0  0  0  0  0
    4.0605   -5.2427   -0.2868 H   0  0  0  0  0  0  0  0  0  0  0  0
    1.9628   -6.3106    0.2982 H   0  0  0  0  0  0  0  0  0  0  0  0
    0.6585   -5.4752    2.0797 H   0  0  0  0  0  0  0  0  0  0  0  0
    1.2158   -2.4746    3.0868 H   0  0  0  0  0  0  0  0  0  0  0  0
    1.7738   -2.9502    4.7007 H   0  0  0  0  0  0  0  0  0  0  0  0
    0.3888   -3.7654    3.9595 H   0  0  0  0  0  0  0  0  0  0  0  0
    3.5751   -2.8013    2.5653 H   0  0  0  0  0  0  0  0  0  0  0  0
    4.6105   -4.6457    4.3437 H   0  0  0  0  0  0  0  0  0  0  0  0
    5.2993   -7.2338    3.5255 H   0  0  0  0  0  0  0  0  0  0  0  0
    3.9588   -7.4218    0.5792 H   0  0  0  0  0  0  0  0  0  0  0  0
    2.9486   -7.8934    3.4015 H   0  0  0  0  0  0  0  0  0  0  0  0
    3.9264   -8.9375    2.4125 H   0  0  0  0  0  0  0  0  0  0  0  0
    2.2829   -8.5870    1.9366 H   0  0  0  0  0  0  0  0  0  0  0  0
  1  2  1  0
  1 28  1  0
  1 29  1  0
  1 30  1  0
  2 24  1  0
  2  3  1  0
  2 31  1  6
  3  4  1  0
  3 32  1  0
  3 33  1  0
  4  5  1  0
  4 34  1  0
  4 35  1  0
  5 23  1  0
  5  6  1  0
  5 36  1  1
  6 13  1  0
  6  7  1  1
  6  8  1  0
  7 37  1  0
  8  9  1  0
  8 10  1  0
  8 38  1  1
  9 39  1  0
 10 11  1  0
 10 12  1  0
 10 13  1  0
 11 40  1  0
 11 41  1  0
 11 42  1  0
 12 43  1  0
 12 44  1  0
 12 45  1  0
 13 14  1  0
 13 46  1  6
 14 15  1  0
 14 47  1  0
 14 48  1  0
 15 23  1  0
 15 16  1  0
 15 49  1  6
 16 26  1  0
 16 17  1  0
 16 50  1  6
 17 19  1  0
 17 18  1  0
 17 51  1  6
 18 19  1  0
 19 20  1  1
 19 21  1  0
 20 52  1  0
 20 53  1  0
 20 54  1  0
 21 22  1  0
 21 23  1  0
 21 55  1  6
 22 56  1  0
 23 24  1  1
 24 25  1  1
 24 26  1  0
 25 57  1  0
 26 27  1  0
 26 58  1  6
 27 59  1  0
 27 60  1  0
 27 61  1  0
M  END
>  <i_m_ct_stereo_status>  (158) 
1

>  <s_m_source_file>  (158) 
/var/tmp/pbs.5076255.sched01/tmpyrjfudeo/454urwji6r.sdf

>  <i_m_source_file_index>  (158) 
27

>  <i_lp_mmshare_version>  (158) 
48012

>  <i_f3d_flags>  (158) 
0

>  <s_epik_input>  (158) 
W0NIMl0xW0NIMl1bQ0BASF0oW0NIM10pW0NAXTIoW09IXSlbQ0BASF0oW0NIM10pW0NAQEhdKFtDQEBIXTNbQ0BdKE8zKShbQ0gzXSlbQ0BIXTRbT0hdKVtDQEhdNVtDSDJdW0NAQEhdKFtDQF02KFtDQEhdMVtDQEBdMjQ1KVtPSF0pQyhbQ0gzXSkoW0NIM10pW0NAQEhdNltPSF0=

>  <s_epik_cmdline>  (158) 
J2VwaWtfcHl0aG9uJywgJy1waHQnLCAnMi4wJywgJy1waCcsICc3LjAnLCAnLXRuJywgJzgnLCAnLW1hJywgJzIwMCcsICctaW1hZScsICc8aW5maWxlLm1hZT4nLCAnLW9tYWUnLCAnPG91dGZpbGUubWFlPic=

>  <r_lp_tautomer_probability>  (158) 
1

>  <r_epik_Ionization_Penalty>  (158) 
2.8439e-06

>  <r_epik_Ionization_Penalty_Charging>  (158) 
0

>  <r_epik_Ionization_Penalty_Neutral>  (158) 
2.8439e-06

>  <r_epik_State_Penalty>  (158) 
-0

>  <r_epik_Charging_Adjusted_Penalty>  (158) 
0

>  <i_epik_Tot_Q>  (158) 
0

>  <i_epik_Tot_abs_Q>  (158) 
0

>  <s_lp_Force_Field>  (158) 
OPLS3e

>  <r_lp_Energy>  (158) 
78.3488

>  <b_lp_Chiralities_Consistent>  (158) 
1

>  <s_lp_Variant>  (158) 
39:0-1

>  <s_i_glide_gridfile>  (158) 
pfpi4k_grid

>  <i_i_glide_lignum>  (158) 
27

>  <i_i_glide_rotatable_bonds>  (158) 
4

>  <r_i_docking_score>  (158) 
-3.63579

>  <r_i_glide_ligand_efficiency>  (158) 
-0.134659

>  <r_i_glide_ligand_efficiency_sa>  (158) 
-0.403977

>  <r_i_glide_ligand_efficiency_ln>  (158) 
-0.846352

>  <r_i_glide_gscore>  (158) 
-3.63579

>  <r_i_glide_lipo>  (158) 
-0.664256

>  <r_i_glide_hbond>  (158) 
0

>  <r_i_glide_metal>  (158) 
-0

>  <r_i_glide_rewards>  (158) 
-1.32839

>  <r_i_glide_evdw>  (158) 
-21.5563

>  <r_i_glide_ecoul>  (158) 
-3.76885

>  <r_i_glide_erotb>  (158) 
0

>  <r_i_glide_esite>  (158) 
0

>  <r_i_glide_emodel>  (158) 
-35.7716

>  <r_i_glide_energy>  (158) 
-25.3252

>  <r_i_glide_einternal>  (158) 
0.100221

>  <r_i_glide_intrahb_reward>  (158) 
-0.5

>  <i_i_glide_confnum>  (158) 
1

>  <i_i_glide_posenum>  (158) 
12

>  <r_i_glide_eff_state_penalty>  (158) 
0

>  <ligand_id>  (158) 
39

>  <original_smiles>  (158) 
CC1CCC2C3(O)C(O)C(C)(C)C3CC3C4C5OC5(C)C(O)C32C1(O)C4C

>  <smiles>  (158) 
[H]OC1([H])C2(O[H])C([H])(C([H])([H])C3([H])C4([H])C5([H])OC5(C([H])([H])[H])C([H])(O[H])C35C2([H])C([H])([H])C([H])([H])C([H])(C([H])([H])[H])C5(O[H])C4([H])C([H])([H])[H])C1(C([H])([H])[H])C([H])([H])[H]

$$$$
39:0:1
     RDKit          3D

 61 66  0  0  1  0  0  0  0  0999 V2000
    6.1697   -7.5421    1.8643 C   0  0  0  0  0  0  0  0  0  0  0  0
    5.8116   -6.1133    1.4110 C   0  0  2  0  0  0  0  0  0  0  0  0
    7.0808   -5.2772    1.2463 C   0  0  0  0  0  0  0  0  0  0  0  0
    6.7478   -4.0285    0.4543 C   0  0  0  0  0  0  0  0  0  0  0  0
    5.7171   -3.1126    1.1324 C   0  0  1  0  0  0  0  0  0  0  0  0
    5.2607   -1.8916    0.2489 C   0  0  1  0  0  0  0  0  0  0  0  0
    5.5503   -0.7582    1.0264 O   0  0  0  0  0  0  0  0  0  0  0  0
    5.6479   -1.6384   -1.2319 C   0  0  1  0  0  0  0  0  0  0  0  0
    6.7763   -2.2599   -1.8212 O   0  0  0  0  0  0  0  0  0  0  0  0
    4.2667   -2.0702   -1.7323 C   0  0  0  0  0  0  0  0  0  0  0  0
    3.6509   -1.1450   -2.7973 C   0  0  0  0  0  0  0  0  0  0  0  0
    4.1438   -3.4811   -2.3082 C   0  0  0  0  0  0  0  0  0  0  0  0
    3.8022   -1.8386   -0.2716 C   0  0  1  0  0  0  0  0  0  0  0  0
    2.7230   -2.7221    0.3658 C   0  0  0  0  0  0  0  0  0  0  0  0
    3.3089   -4.0167    0.9449 C   0  0  2  0  0  0  0  0  0  0  0  0
    2.3774   -4.9223    1.7612 C   0  0  2  0  0  0  0  0  0  0  0  0
    1.8049   -4.1817    2.9737 C   0  0  1  0  0  0  0  0  0  0  0  0
    2.4571   -4.3732    4.2326 O   0  0  0  0  0  0  0  0  0  0  0  0
    2.6569   -3.1220    3.6124 C   0  0  2  0  0  0  0  0  0  0  0  0
    2.0081   -1.9156    4.2704 C   0  0  0  0  0  0  0  0  0  0  0  0
    4.0494   -2.8580    3.0492 C   0  0  1  0  0  0  0  0  0  0  0  0
    4.9655   -2.6755    4.1230 O   0  0  0  0  0  0  0  0  0  0  0  0
    4.5249   -3.8359    1.8853 C   0  0  2  0  0  0  0  0  0  0  0  0
    4.7549   -5.3652    2.2987 C   0  0  2  0  0  0  0  0  0  0  0  0
    5.1909   -5.4404    3.6406 O   0  0  0  0  0  0  0  0  0  0  0  0
    3.3484   -6.0532    2.1370 C   0  0  1  0  0  0  0  0  0  0  0  0
    2.8862   -7.0708    3.2058 C   0  0  0  0  0  0  0  0  0  0  0  0
    6.6385   -7.5507    2.8485 H   0  0  0  0  0  0  0  0  0  0  0  0
    6.8771   -7.9944    1.1700 H   0  0  0  0  0  0  0  0  0  0  0  0
    5.3006   -8.2002    1.8910 H   0  0  0  0  0  0  0  0  0  0  0  0
    5.3926   -6.2210    0.4067 H   0  0  0  0  0  0  0  0  0  0  0  0
    7.5024   -5.0194    2.2169 H   0  0  0  0  0  0  0  0  0  0  0  0
    7.8402   -5.8574    0.7148 H   0  0  0  0  0  0  0  0  0  0  0  0
    7.6740   -3.4775    0.3056 H   0  0  0  0  0  0  0  0  0  0  0  0
    6.4067   -4.3540   -0.5208 H   0  0  0  0  0  0  0  0  0  0  0  0
    6.3314   -2.7171    1.9523 H   0  0  0  0  0  0  0  0  0  0  0  0
    5.2284   -0.0122    0.5427 H   0  0  0  0  0  0  0  0  0  0  0  0
    5.7442   -0.5709   -1.3923 H   0  0  0  0  0  0  0  0  0  0  0  0
    6.6355   -3.1849   -1.7476 H   0  0  0  0  0  0  0  0  0  0  0  0
    2.5987   -1.3713   -2.9639 H   0  0  0  0  0  0  0  0  0  0  0  0
    4.1653   -1.2328   -3.7562 H   0  0  0  0  0  0  0  0  0  0  0  0
    3.7230   -0.1049   -2.5083 H   0  0  0  0  0  0  0  0  0  0  0  0
    3.1022   -3.8105   -2.3304 H   0  0  0  0  0  0  0  0  0  0  0  0
    4.6950   -4.2146   -1.7234 H   0  0  0  0  0  0  0  0  0  0  0  0
    4.5295   -3.5531   -3.3307 H   0  0  0  0  0  0  0  0  0  0  0  0
    3.4734   -0.8067   -0.2368 H   0  0  0  0  0  0  0  0  0  0  0  0
    2.2022   -2.1392    1.1279 H   0  0  0  0  0  0  0  0  0  0  0  0
    1.9507   -2.9693   -0.3662 H   0  0  0  0  0  0  0  0  0  0  0  0
    3.6067   -4.6133    0.0881 H   0  0  0  0  0  0  0  0  0  0  0  0
    1.5473   -5.3140    1.1670 H   0  0  0  0  0  0  0  0  0  0  0  0
    0.7274   -4.0714    3.0217 H   0  0  0  0  0  0  0  0  0  0  0  0
    1.8475   -1.1272    3.5350 H   0  0  0  0  0  0  0  0  0  0  0  0
    2.6377   -1.5226    5.0706 H   0  0  0  0  0  0  0  0  0  0  0  0
    1.0430   -2.1924    4.6876 H   0  0  0  0  0  0  0  0  0  0  0  0
    3.9826   -1.8534    2.6293 H   0  0  0  0  0  0  0  0  0  0  0  0
    5.1319   -3.5284    4.5151 H   0  0  0  0  0  0  0  0  0  0  0  0
    4.4304   -5.2673    4.1920 H   0  0  0  0  0  0  0  0  0  0  0  0
    3.3939   -6.6555    1.2284 H   0  0  0  0  0  0  0  0  0  0  0  0
    2.8900   -6.6884    4.2214 H   0  0  0  0  0  0  0  0  0  0  0  0
    3.5197   -7.9529    3.2129 H   0  0  0  0  0  0  0  0  0  0  0  0
    1.8755   -7.4122    2.9941 H   0  0  0  0  0  0  0  0  0  0  0  0
  1  2  1  0
  1 28  1  0
  1 29  1  0
  1 30  1  0
  2 24  1  0
  2  3  1  0
  2 31  1  6
  3  4  1  0
  3 32  1  0
  3 33  1  0
  4  5  1  0
  4 34  1  0
  4 35  1  0
  5 23  1  0
  5  6  1  0
  5 36  1  1
  6 13  1  0
  6  7  1  1
  6  8  1  0
  7 37  1  0
  8  9  1  0
  8 10  1  0
  8 38  1  1
  9 39  1  0
 10 11  1  0
 10 12  1  0
 10 13  1  0
 11 40  1  0
 11 41  1  0
 11 42  1  0
 12 43  1  0
 12 44  1  0
 12 45  1  0
 13 14  1  0
 13 46  1  6
 14 15  1  0
 14 47  1  0
 14 48  1  0
 15 23  1  0
 15 16  1  0
 15 49  1  6
 16 26  1  0
 16 17  1  0
 16 50  1  6
 17 19  1  0
 17 18  1  0
 17 51  1  1
 18 19  1  0
 19 20  1  1
 19 21  1  0
 20 52  1  0
 20 53  1  0
 20 54  1  0
 21 22  1  0
 21 23  1  0
 21 55  1  6
 22 56  1  0
 23 24  1  1
 24 25  1  1
 24 26  1  0
 25 57  1  0
 26 27  1  0
 26 58  1  6
 27 59  1  0
 27 60  1  0
 27 61  1  0
M  END
>  <i_m_ct_stereo_status>  (159) 
1

>  <s_m_source_file>  (159) 
/var/tmp/pbs.5076255.sched01/tmpyrjfudeo/454urwji6r.sdf

>  <i_m_source_file_index>  (159) 
27

>  <i_lp_mmshare_version>  (159) 
48012

>  <i_f3d_flags>  (159) 
0

>  <s_epik_input>  (159) 
W0NIMl0xW0NIMl1bQ0BASF0oW0NIM10pW0NAXTIoW09IXSlbQ0BASF0oW0NIM10pW0NAQEhdKFtDQEBIXTNbQ0BdKE8zKShbQ0gzXSlbQ0BIXTRbT0hdKVtDQEhdNVtDSDJdW0NAQEhdKFtDQF02KFtDQEhdMVtDQEBdMjQ1KVtPSF0pQyhbQ0gzXSkoW0NIM10pW0NAQEhdNltPSF0=

>  <s_epik_cmdline>  (159) 
J2VwaWtfcHl0aG9uJywgJy1waHQnLCAnMi4wJywgJy1waCcsICc3LjAnLCAnLXRuJywgJzgnLCAnLW1hJywgJzIwMCcsICctaW1hZScsICc8aW5maWxlLm1hZT4nLCAnLW9tYWUnLCAnPG91dGZpbGUubWFlPic=

>  <r_lp_tautomer_probability>  (159) 
1

>  <r_epik_Ionization_Penalty>  (159) 
2.8439e-06

>  <r_epik_Ionization_Penalty_Charging>  (159) 
0

>  <r_epik_Ionization_Penalty_Neutral>  (159) 
2.8439e-06

>  <r_epik_State_Penalty>  (159) 
-0

>  <r_epik_Charging_Adjusted_Penalty>  (159) 
0

>  <i_epik_Tot_Q>  (159) 
0

>  <i_epik_Tot_abs_Q>  (159) 
0

>  <s_lp_Force_Field>  (159) 
OPLS3e

>  <r_lp_Energy>  (159) 
78.3488

>  <b_lp_Chiralities_Consistent>  (159) 
1

>  <s_lp_Variant>  (159) 
39:0-1

>  <s_i_glide_gridfile>  (159) 
pfpi4k_grid

>  <i_i_glide_lignum>  (159) 
27

>  <i_i_glide_rotatable_bonds>  (159) 
4

>  <r_i_docking_score>  (159) 
-3.52405

>  <r_i_glide_ligand_efficiency>  (159) 
-0.13052

>  <r_i_glide_ligand_efficiency_sa>  (159) 
-0.391561

>  <r_i_glide_ligand_efficiency_ln>  (159) 
-0.82034

>  <r_i_glide_gscore>  (159) 
-3.52405

>  <r_i_glide_lipo>  (159) 
-0.518497

>  <r_i_glide_hbond>  (159) 
0

>  <r_i_glide_metal>  (159) 
-0

>  <r_i_glide_rewards>  (159) 
-1.32839

>  <r_i_glide_evdw>  (159) 
-20.5506

>  <r_i_glide_ecoul>  (159) 
-4.33086

>  <r_i_glide_erotb>  (159) 
0

>  <r_i_glide_esite>  (159) 
0

>  <r_i_glide_emodel>  (159) 
-35.0982

>  <r_i_glide_energy>  (159) 
-24.8814

>  <r_i_glide_einternal>  (159) 
0.0505664

>  <r_i_glide_intrahb_reward>  (159) 
-0.5

>  <i_i_glide_confnum>  (159) 
1

>  <i_i_glide_posenum>  (159) 
29

>  <r_i_glide_eff_state_penalty>  (159) 
0

>  <ligand_id>  (159) 
39

>  <original_smiles>  (159) 
CC1CCC2C3(O)C(O)C(C)(C)C3CC3C4C5OC5(C)C(O)C32C1(O)C4C

>  <smiles>  (159) 
[H]OC1([H])C2(O[H])C([H])(C([H])([H])C3([H])C4([H])C5([H])OC5(C([H])([H])[H])C([H])(O[H])C35C2([H])C([H])([H])C([H])([H])C([H])(C([H])([H])[H])C5(O[H])C4([H])C([H])([H])[H])C1(C([H])([H])[H])C([H])([H])[H]

$$$$
39:0:2
     RDKit          3D

 61 66  0  0  1  0  0  0  0  0999 V2000
    6.2432   -7.1260    2.3465 C   0  0  0  0  0  0  0  0  0  0  0  0
    5.8705   -5.7518    1.7589 C   0  0  2  0  0  0  0  0  0  0  0  0
    7.1428   -4.9677    1.4432 C   0  0  0  0  0  0  0  0  0  0  0  0
    6.7896   -3.7921    0.5484 C   0  0  0  0  0  0  0  0  0  0  0  0
    5.7970   -2.7932    1.1726 C   0  0  1  0  0  0  0  0  0  0  0  0
    5.3100   -1.6610    0.1849 C   0  0  1  0  0  0  0  0  0  0  0  0
    5.6412   -0.4513    0.8259 O   0  0  0  0  0  0  0  0  0  0  0  0
    5.6322   -1.5679   -1.3319 C   0  0  1  0  0  0  0  0  0  0  0  0
    6.7223   -2.2623   -1.9039 O   0  0  0  0  0  0  0  0  0  0  0  0
    4.2231   -2.0334   -1.7193 C   0  0  0  0  0  0  0  0  0  0  0  0
    3.5601   -1.2178   -2.8431 C   0  0  0  0  0  0  0  0  0  0  0  0
    4.0629   -3.4966   -2.1341 C   0  0  0  0  0  0  0  0  0  0  0  0
    3.8321   -1.6498   -0.2695 C   0  0  1  0  0  0  0  0  0  0  0  0
    2.7756   -2.4409    0.5067 C   0  0  0  0  0  0  0  0  0  0  0  0
    3.3731   -3.6788    1.1896 C   0  0  2  0  0  0  0  0  0  0  0  0
    2.4700   -4.4766    2.1429 C   0  0  2  0  0  0  0  0  0  0  0  0
    1.9496   -3.6052    3.2829 C   0  0  1  0  0  0  0  0  0  0  0  0
    2.6365   -3.6676    4.5393 O   0  0  0  0  0  0  0  0  0  0  0  0
    2.8414   -2.4920    3.7736 C   0  0  2  0  0  0  0  0  0  0  0  0
    2.2469   -1.2138    4.3302 C   0  0  0  0  0  0  0  0  0  0  0  0
    4.2104   -2.3213    3.1229 C   0  0  1  0  0  0  0  0  0  0  0  0
    5.1556   -2.1072    4.1558 O   0  0  0  0  0  0  0  0  0  0  0  0
    4.6310   -3.4146    2.0487 C   0  0  2  0  0  0  0  0  0  0  0  0
    4.8673   -4.8934    2.6133 C   0  0  2  0  0  0  0  0  0  0  0  0
    5.3827   -4.8496    3.9308 O   0  0  0  0  0  0  0  0  0  0  0  0
    3.4504   -5.5752    2.5905 C   0  0  1  0  0  0  0  0  0  0  0  0
    3.0326   -6.4674    3.7818 C   0  0  0  0  0  0  0  0  0  0  0  0
    6.7705   -7.0409    3.2979 H   0  0  0  0  0  0  0  0  0  0  0  0
    6.9103   -7.6568    1.6647 H   0  0  0  0  0  0  0  0  0  0  0  0
    5.3738   -7.7692    2.4868 H   0  0  0  0  0  0  0  0  0  0  0  0
    5.4033   -5.9596    0.7935 H   0  0  0  0  0  0  0  0  0  0  0  0
    7.6243   -4.6676    2.3608 H   0  0  0  0  0  0  0  0  0  0  0  0
    7.8614   -5.6114    0.9242 H   0  0  0  0  0  0  0  0  0  0  0  0
    7.7135   -3.2723    0.3016 H   0  0  0  0  0  0  0  0  0  0  0  0
    6.4061   -4.2112   -0.3743 H   0  0  0  0  0  0  0  0  0  0  0  0
    6.4506   -2.3208    1.9144 H   0  0  0  0  0  0  0  0  0  0  0  0
    5.3658    0.2470    0.2502 H   0  0  0  0  0  0  0  0  0  0  0  0
    5.7231   -0.5234   -1.6102 H   0  0  0  0  0  0  0  0  0  0  0  0
    6.5802   -3.1785   -1.7259 H   0  0  0  0  0  0  0  0  0  0  0  0
    2.5002   -1.4576   -2.9378 H   0  0  0  0  0  0  0  0  0  0  0  0
    4.0280   -1.4076   -3.8112 H   0  0  0  0  0  0  0  0  0  0  0  0
    3.6361   -0.1490   -2.6718 H   0  0  0  0  0  0  0  0  0  0  0  0
    3.0183   -3.8127   -2.0721 H   0  0  0  0  0  0  0  0  0  0  0  0
    4.6343   -4.1716   -1.5023 H   0  0  0  0  0  0  0  0  0  0  0  0
    4.3957   -3.6826   -3.1607 H   0  0  0  0  0  0  0  0  0  0  0  0
    3.5058   -0.6165   -0.3207 H   0  0  0  0  0  0  0  0  0  0  0  0
    2.3029   -1.7761    1.2281 H   0  0  0  0  0  0  0  0  0  0  0  0
    1.9670   -2.7482   -0.1525 H   0  0  0  0  0  0  0  0  0  0  0  0
    3.6304   -4.3652    0.3902 H   0  0  0  0  0  0  0  0  0  0  0  0
    1.6133   -4.9191    1.6319 H   0  0  0  0  0  0  0  0  0  0  0  0
    0.8752   -3.4691    3.3541 H   0  0  0  0  0  0  0  0  0  0  0  0
    2.0626   -0.5055    3.5226 H   0  0  0  0  0  0  0  0  0  0  0  0
    2.9213   -0.7496    5.0533 H   0  0  0  0  0  0  0  0  0  0  0  0
    1.3004   -1.4267    4.8221 H   0  0  0  0  0  0  0  0  0  0  0  0
    4.1545   -1.3536    2.6191 H   0  0  0  0  0  0  0  0  0  0  0  0
    5.3108   -2.9629    4.5437 H   0  0  0  0  0  0  0  0  0  0  0  0
    5.4688   -5.7431    4.2244 H   0  0  0  0  0  0  0  0  0  0  0  0
    3.4464   -6.2704    1.7496 H   0  0  0  0  0  0  0  0  0  0  0  0
    3.0903   -5.9744    4.7472 H   0  0  0  0  0  0  0  0  0  0  0  0
    3.6570   -7.3555    3.8541 H   0  0  0  0  0  0  0  0  0  0  0  0
    2.0085   -6.8138    3.6553 H   0  0  0  0  0  0  0  0  0  0  0  0
  1  2  1  0
  1 28  1  0
  1 29  1  0
  1 30  1  0
  2 24  1  0
  2  3  1  0
  2 31  1  6
  3  4  1  0
  3 32  1  0
  3 33  1  0
  4  5  1  0
  4 34  1  0
  4 35  1  0
  5 23  1  0
  5  6  1  0
  5 36  1  1
  6 13  1  0
  6  7  1  1
  6  8  1  0
  7 37  1  0
  8  9  1  0
  8 10  1  0
  8 38  1  6
  9 39  1  0
 10 11  1  0
 10 12  1  0
 10 13  1  0
 11 40  1  0
 11 41  1  0
 11 42  1  0
 12 43  1  0
 12 44  1  0
 12 45  1  0
 13 14  1  0
 13 46  1  6
 14 15  1  0
 14 47  1  0
 14 48  1  0
 15 23  1  0
 15 16  1  0
 15 49  1  6
 16 26  1  0
 16 17  1  0
 16 50  1  6
 17 19  1  0
 17 18  1  0
 17 51  1  1
 18 19  1  0
 19 20  1  1
 19 21  1  0
 20 52  1  0
 20 53  1  0
 20 54  1  0
 21 22  1  0
 21 23  1  0
 21 55  1  6
 22 56  1  0
 23 24  1  1
 24 25  1  1
 24 26  1  0
 25 57  1  0
 26 27  1  0
 26 58  1  6
 27 59  1  0
 27 60  1  0
 27 61  1  0
M  END
>  <i_m_ct_stereo_status>  (160) 
1

>  <s_m_source_file>  (160) 
/var/tmp/pbs.5076255.sched01/tmpyrjfudeo/454urwji6r.sdf

>  <i_m_source_file_index>  (160) 
27

>  <i_lp_mmshare_version>  (160) 
48012

>  <i_f3d_flags>  (160) 
0

>  <s_epik_input>  (160) 
W0NIMl0xW0NIMl1bQ0BASF0oW0NIM10pW0NAXTIoW09IXSlbQ0BASF0oW0NIM10pW0NAQEhdKFtDQEBIXTNbQ0BdKE8zKShbQ0gzXSlbQ0BIXTRbT0hdKVtDQEhdNVtDSDJdW0NAQEhdKFtDQF02KFtDQEhdMVtDQEBdMjQ1KVtPSF0pQyhbQ0gzXSkoW0NIM10pW0NAQEhdNltPSF0=

>  <s_epik_cmdline>  (160) 
J2VwaWtfcHl0aG9uJywgJy1waHQnLCAnMi4wJywgJy1waCcsICc3LjAnLCAnLXRuJywgJzgnLCAnLW1hJywgJzIwMCcsICctaW1hZScsICc8aW5maWxlLm1hZT4nLCAnLW9tYWUnLCAnPG91dGZpbGUubWFlPic=

>  <r_lp_tautomer_probability>  (160) 
1

>  <r_epik_Ionization_Penalty>  (160) 
2.8439e-06

>  <r_epik_Ionization_Penalty_Charging>  (160) 
0

>  <r_epik_Ionization_Penalty_Neutral>  (160) 
2.8439e-06

>  <r_epik_State_Penalty>  (160) 
-0

>  <r_epik_Charging_Adjusted_Penalty>  (160) 
0

>  <i_epik_Tot_Q>  (160) 
0

>  <i_epik_Tot_abs_Q>  (160) 
0

>  <s_lp_Force_Field>  (160) 
OPLS3e

>  <r_lp_Energy>  (160) 
78.3488

>  <b_lp_Chiralities_Consistent>  (160) 
1

>  <s_lp_Variant>  (160) 
39:0-1

>  <s_i_glide_gridfile>  (160) 
pfpi4k_grid

>  <i_i_glide_lignum>  (160) 
27

>  <i_i_glide_rotatable_bonds>  (160) 
4

>  <r_i_docking_score>  (160) 
-3.46118

>  <r_i_glide_ligand_efficiency>  (160) 
-0.128192

>  <r_i_glide_ligand_efficiency_sa>  (160) 
-0.384575

>  <r_i_glide_ligand_efficiency_ln>  (160) 
-0.805705

>  <r_i_glide_gscore>  (160) 
-3.46118

>  <r_i_glide_lipo>  (160) 
-0.455632

>  <r_i_glide_hbond>  (160) 
0

>  <r_i_glide_metal>  (160) 
-0

>  <r_i_glide_rewards>  (160) 
-1.32839

>  <r_i_glide_evdw>  (160) 
-18.476

>  <r_i_glide_ecoul>  (160) 
-5.02232

>  <r_i_glide_erotb>  (160) 
0

>  <r_i_glide_esite>  (160) 
0

>  <r_i_glide_emodel>  (160) 
-33.6381

>  <r_i_glide_energy>  (160) 
-23.4984

>  <r_i_glide_einternal>  (160) 
0.028859

>  <r_i_glide_intrahb_reward>  (160) 
-0.5

>  <i_i_glide_confnum>  (160) 
1

>  <i_i_glide_posenum>  (160) 
21

>  <r_i_glide_eff_state_penalty>  (160) 
0

>  <ligand_id>  (160) 
39

>  <original_smiles>  (160) 
CC1CCC2C3(O)C(O)C(C)(C)C3CC3C4C5OC5(C)C(O)C32C1(O)C4C

>  <smiles>  (160) 
[H]OC1([H])C2(O[H])C([H])(C([H])([H])C3([H])C4([H])C5([H])OC5(C([H])([H])[H])C([H])(O[H])C35C2([H])C([H])([H])C([H])([H])C([H])(C([H])([H])[H])C5(O[H])C4([H])C([H])([H])[H])C1(C([H])([H])[H])C([H])([H])[H]

$$$$
40:0:0
     RDKit          3D

 41 44  0  0  1  0  0  0  0  0999 V2000
    4.9130   -2.9821   -2.9217 C   0  0  0  0  0  0  0  0  0  0  0  0
    5.5783   -2.8675   -1.5400 C   0  0  2  0  0  0  0  0  0  0  0  0
    7.0980   -2.8941   -1.6895 C   0  0  0  0  0  0  0  0  0  0  0  0
    7.7784   -2.5875   -0.3618 C   0  0  0  0  0  0  0  0  0  0  0  0
    7.3332   -3.5510    0.7425 C   0  0  2  0  0  0  0  0  0  0  0  0
    7.9930   -4.9537    0.6874 C   0  0  1  0  0  0  0  0  0  0  0  0
    9.1960   -4.9912    1.4398 O   0  0  0  0  0  0  0  0  0  0  0  0
    6.9039   -5.9231    1.1843 C   0  0  1  0  0  0  0  0  0  0  0  0
    7.4093   -6.9058    2.0617 O   0  0  0  0  0  0  0  0  0  0  0  0
    5.8687   -4.9936    1.8227 C   0  0  2  0  0  0  0  0  0  0  0  0
    4.6088   -5.5794    1.9726 O   0  0  0  0  0  0  0  0  0  0  0  0
    3.5770   -4.6076    2.0365 C   0  0  2  0  0  0  0  0  0  0  0  0
    2.6200   -5.0521    3.1578 C   0  0  0  0  0  0  0  0  0  0  0  0
    2.8748   -4.6818    0.6759 C   0  0  0  0  0  0  0  0  0  0  0  0
    3.5508   -3.8602   -0.4132 C   0  0  0  0  0  0  0  0  0  0  0  0
    5.0964   -3.9434   -0.5231 C   0  0  2  0  0  0  0  0  0  0  0  0
    5.8086   -3.7840    0.8672 C   0  0  2  0  0  0  0  0  0  0  0  0
    5.1466   -2.7317    1.5489 O   0  0  0  0  0  0  0  0  0  0  0  0
    4.0084   -3.2910    2.4406 O   0  0  0  0  0  0  0  0  0  0  0  0
    5.0334   -3.9825   -3.3427 H   0  0  0  0  0  0  0  0  0  0  0  0
    5.3569   -2.2663   -3.6107 H   0  0  0  0  0  0  0  0  0  0  0  0
    3.8453   -2.7484   -2.8884 H   0  0  0  0  0  0  0  0  0  0  0  0
    5.2983   -1.8856   -1.1466 H   0  0  0  0  0  0  0  0  0  0  0  0
    7.4277   -3.8485   -2.0730 H   0  0  0  0  0  0  0  0  0  0  0  0
    7.4305   -2.1800   -2.4271 H   0  0  0  0  0  0  0  0  0  0  0  0
    8.8628   -2.6230   -0.4893 H   0  0  0  0  0  0  0  0  0  0  0  0
    7.5259   -1.5665   -0.0584 H   0  0  0  0  0  0  0  0  0  0  0  0
    7.6234   -3.0937    1.6767 H   0  0  0  0  0  0  0  0  0  0  0  0
    8.2737   -5.2345   -0.3227 H   0  0  0  0  0  0  0  0  0  0  0  0
    9.0295   -4.7065    2.3198 H   0  0  0  0  0  0  0  0  0  0  0  0
    6.4208   -6.4060    0.3403 H   0  0  0  0  0  0  0  0  0  0  0  0
    7.9549   -6.4897    2.6999 H   0  0  0  0  0  0  0  0  0  0  0  0
    6.2176   -4.6651    2.8022 H   0  0  0  0  0  0  0  0  0  0  0  0
    3.1371   -5.0188    4.1201 H   0  0  0  0  0  0  0  0  0  0  0  0
    2.2516   -6.0696    3.0045 H   0  0  0  0  0  0  0  0  0  0  0  0
    1.7601   -4.3822    3.2230 H   0  0  0  0  0  0  0  0  0  0  0  0
    2.8216   -5.7278    0.3681 H   0  0  0  0  0  0  0  0  0  0  0  0
    1.8424   -4.3519    0.7682 H   0  0  0  0  0  0  0  0  0  0  0  0
    3.1172   -4.2017   -1.3521 H   0  0  0  0  0  0  0  0  0  0  0  0
    3.2430   -2.8219   -0.2927 H   0  0  0  0  0  0  0  0  0  0  0  0
    5.3453   -4.9154   -0.9400 H   0  0  0  0  0  0  0  0  0  0  0  0
  1  2  1  0
  1 20  1  0
  1 21  1  0
  1 22  1  0
  2 16  1  0
  2  3  1  0
  2 23  1  1
  3  4  1  0
  3 24  1  0
  3 25  1  0
  4  5  1  0
  4 26  1  0
  4 27  1  0
  5 17  1  0
  5  6  1  0
  5 28  1  1
  6  7  1  0
  6  8  1  0
  6 29  1  6
  7 30  1  0
  8  9  1  0
  8 10  1  0
  8 31  1  6
  9 32  1  0
 10 17  1  0
 10 11  1  0
 10 33  1  1
 11 12  1  0
 12 19  1  0
 12 13  1  1
 12 14  1  0
 13 34  1  0
 13 35  1  0
 13 36  1  0
 14 15  1  0
 14 37  1  0
 14 38  1  0
 15 16  1  0
 15 39  1  0
 15 40  1  0
 16 17  1  0
 16 41  1  6
 17 18  1  1
 18 19  1  0
M  END
>  <i_m_ct_stereo_status>  (161) 
1

>  <s_m_source_file>  (161) 
/var/tmp/pbs.5076255.sched01/tmpyrjfudeo/454urwji6r.sdf

>  <i_m_source_file_index>  (161) 
28

>  <i_lp_mmshare_version>  (161) 
48012

>  <i_f3d_flags>  (161) 
0

>  <s_epik_input>  (161) 
W0NAQF0xMjNbQ0BASF00W0NIMl1bQ0gyXVtDQEBIXShbQ0gzXSlbQ0BASF0yW0NIMl1bQ0gyXVtDQF0oW0NIM10pKE9PMylPW0NASF0xW0NASF0oW09IXSlbQ0BASF00W09IXQ==

>  <s_epik_cmdline>  (161) 
J2VwaWtfcHl0aG9uJywgJy1waHQnLCAnMi4wJywgJy1waCcsICc3LjAnLCAnLXRuJywgJzgnLCAnLW1hJywgJzIwMCcsICctaW1hZScsICc8aW5maWxlLm1hZT4nLCAnLW9tYWUnLCAnPG91dGZpbGUubWFlPic=

>  <r_lp_tautomer_probability>  (161) 
1

>  <r_epik_Ionization_Penalty>  (161) 
2.63726e-07

>  <r_epik_Ionization_Penalty_Charging>  (161) 
0

>  <r_epik_Ionization_Penalty_Neutral>  (161) 
2.63726e-07

>  <r_epik_State_Penalty>  (161) 
-0

>  <r_epik_Charging_Adjusted_Penalty>  (161) 
0

>  <i_epik_Tot_Q>  (161) 
0

>  <i_epik_Tot_abs_Q>  (161) 
0

>  <s_lp_Force_Field>  (161) 
OPLS3e

>  <r_lp_Energy>  (161) 
40.4705

>  <b_lp_Chiralities_Consistent>  (161) 
1

>  <s_lp_Variant>  (161) 
40:0-1

>  <s_i_glide_gridfile>  (161) 
pfpi4k_grid

>  <i_i_glide_lignum>  (161) 
28

>  <i_i_glide_rotatable_bonds>  (161) 
2

>  <r_i_docking_score>  (161) 
-3.53281

>  <r_i_glide_ligand_efficiency>  (161) 
-0.185937

>  <r_i_glide_ligand_efficiency_sa>  (161) 
-0.496156

>  <r_i_glide_ligand_efficiency_ln>  (161) 
-0.895644

>  <r_i_glide_gscore>  (161) 
-3.53281

>  <r_i_glide_lipo>  (161) 
-0.702344

>  <r_i_glide_hbond>  (161) 
0

>  <r_i_glide_metal>  (161) 
-0

>  <r_i_glide_rewards>  (161) 
-1.57042

>  <r_i_glide_evdw>  (161) 
-19.29

>  <r_i_glide_ecoul>  (161) 
-1.97035

>  <r_i_glide_erotb>  (161) 
0

>  <r_i_glide_esite>  (161) 
0

>  <r_i_glide_emodel>  (161) 
-25.4665

>  <r_i_glide_energy>  (161) 
-21.2604

>  <r_i_glide_einternal>  (161) 
0.136433

>  <r_i_glide_intrahb_reward>  (161) 
-0

>  <i_i_glide_confnum>  (161) 
1

>  <i_i_glide_posenum>  (161) 
1

>  <r_i_glide_eff_state_penalty>  (161) 
0

>  <ligand_id>  (161) 
40

>  <original_smiles>  (161) 
CC1CCC2C(O)C(O)C3OC4(C)CCC1C23OO4

>  <smiles>  (161) 
[H]OC1([H])C([H])(O[H])C2([H])C([H])([H])C([H])([H])C([H])(C([H])([H])[H])C3([H])C([H])([H])C([H])([H])C4(C([H])([H])[H])OOC23C1([H])O4

$$$$
40:0:1
     RDKit          3D

 41 44  0  0  1  0  0  0  0  0999 V2000
    2.2660   -3.1186   -2.7880 C   0  0  0  0  0  0  0  0  0  0  0  0
    3.2788   -2.5167   -1.8044 C   0  0  2  0  0  0  0  0  0  0  0  0
    4.4392   -1.9335   -2.5956 C   0  0  0  0  0  0  0  0  0  0  0  0
    5.3016   -1.1062   -1.6611 C   0  0  0  0  0  0  0  0  0  0  0  0
    5.8431   -1.9230   -0.4858 C   0  0  2  0  0  0  0  0  0  0  0  0
    6.9604   -2.9242   -0.8765 C   0  0  1  0  0  0  0  0  0  0  0  0
    8.2046   -2.2628   -0.7243 O   0  0  0  0  0  0  0  0  0  0  0  0
    6.7682   -4.1156    0.0908 C   0  0  1  0  0  0  0  0  0  0  0  0
    7.9756   -4.5776    0.6608 O   0  0  0  0  0  0  0  0  0  0  0  0
    5.7662   -3.6000    1.1216 C   0  0  2  0  0  0  0  0  0  0  0  0
    5.1043   -4.6231    1.8081 O   0  0  0  0  0  0  0  0  0  0  0  0
    3.8437   -4.1948    2.2981 C   0  0  2  0  0  0  0  0  0  0  0  0
    3.7010   -4.7643    3.7159 C   0  0  0  0  0  0  0  0  0  0  0  0
    2.8065   -4.8242    1.3622 C   0  0  0  0  0  0  0  0  0  0  0  0
    2.5735   -4.0445    0.0684 C   0  0  0  0  0  0  0  0  0  0  0  0
    3.7895   -3.4794   -0.6830 C   0  0  2  0  0  0  0  0  0  0  0  0
    4.7899   -2.7493    0.2838 C   0  0  2  0  0  0  0  0  0  0  0  0
    4.0339   -1.9687    1.1917 O   0  0  0  0  0  0  0  0  0  0  0  0
    3.7145   -2.7703    2.4713 O   0  0  0  0  0  0  0  0  0  0  0  0
    2.6680   -4.0085   -3.2649 H   0  0  0  0  0  0  0  0  0  0  0  0
    2.0170   -2.4224   -3.5880 H   0  0  0  0  0  0  0  0  0  0  0  0
    1.3282   -3.3746   -2.2959 H   0  0  0  0  0  0  0  0  0  0  0  0
    2.7743   -1.6807   -1.3208 H   0  0  0  0  0  0  0  0  0  0  0  0
    5.0068   -2.7303   -3.0829 H   0  0  0  0  0  0  0  0  0  0  0  0
    4.0666   -1.2864   -3.3893 H   0  0  0  0  0  0  0  0  0  0  0  0
    6.1228   -0.7126   -2.2438 H   0  0  0  0  0  0  0  0  0  0  0  0
    4.7223   -0.2638   -1.2769 H   0  0  0  0  0  0  0  0  0  0  0  0
    6.2726   -1.2151    0.2286 H   0  0  0  0  0  0  0  0  0  0  0  0
    6.8804   -3.2704   -1.9070 H   0  0  0  0  0  0  0  0  0  0  0  0
    8.8977   -2.7841   -1.1101 H   0  0  0  0  0  0  0  0  0  0  0  0
    6.2716   -4.9400   -0.4219 H   0  0  0  0  0  0  0  0  0  0  0  0
    7.7555   -5.3186    1.2183 H   0  0  0  0  0  0  0  0  0  0  0  0
    6.2787   -2.9751    1.8564 H   0  0  0  0  0  0  0  0  0  0  0  0
    4.4586   -4.3299    4.3704 H   0  0  0  0  0  0  0  0  0  0  0  0
    3.8147   -5.8497    3.7359 H   0  0  0  0  0  0  0  0  0  0  0  0
    2.7233   -4.5214    4.1400 H   0  0  0  0  0  0  0  0  0  0  0  0
    3.1184   -5.8416    1.1207 H   0  0  0  0  0  0  0  0  0  0  0  0
    1.8481   -4.9337    1.8766 H   0  0  0  0  0  0  0  0  0  0  0  0
    2.0271   -4.7037   -0.6051 H   0  0  0  0  0  0  0  0  0  0  0  0
    1.9107   -3.2130    0.3042 H   0  0  0  0  0  0  0  0  0  0  0  0
    4.2995   -4.3064   -1.1679 H   0  0  0  0  0  0  0  0  0  0  0  0
  1  2  1  0
  1 20  1  0
  1 21  1  0
  1 22  1  0
  2 16  1  0
  2  3  1  0
  2 23  1  1
  3  4  1  0
  3 24  1  0
  3 25  1  0
  4  5  1  0
  4 26  1  0
  4 27  1  0
  5 17  1  0
  5  6  1  0
  5 28  1  1
  6  7  1  0
  6  8  1  0
  6 29  1  6
  7 30  1  0
  8  9  1  0
  8 10  1  0
  8 31  1  6
  9 32  1  0
 10 17  1  0
 10 11  1  0
 10 33  1  1
 11 12  1  0
 12 19  1  0
 12 13  1  1
 12 14  1  0
 13 34  1  0
 13 35  1  0
 13 36  1  0
 14 15  1  0
 14 37  1  0
 14 38  1  0
 15 16  1  0
 15 39  1  0
 15 40  1  0
 16 17  1  0
 16 41  1  6
 17 18  1  1
 18 19  1  0
M  END
>  <i_m_ct_stereo_status>  (162) 
1

>  <s_m_source_file>  (162) 
/var/tmp/pbs.5076255.sched01/tmpyrjfudeo/454urwji6r.sdf

>  <i_m_source_file_index>  (162) 
28

>  <i_lp_mmshare_version>  (162) 
48012

>  <i_f3d_flags>  (162) 
0

>  <s_epik_input>  (162) 
W0NAQF0xMjNbQ0BASF00W0NIMl1bQ0gyXVtDQEBIXShbQ0gzXSlbQ0BASF0yW0NIMl1bQ0gyXVtDQF0oW0NIM10pKE9PMylPW0NASF0xW0NASF0oW09IXSlbQ0BASF00W09IXQ==

>  <s_epik_cmdline>  (162) 
J2VwaWtfcHl0aG9uJywgJy1waHQnLCAnMi4wJywgJy1waCcsICc3LjAnLCAnLXRuJywgJzgnLCAnLW1hJywgJzIwMCcsICctaW1hZScsICc8aW5maWxlLm1hZT4nLCAnLW9tYWUnLCAnPG91dGZpbGUubWFlPic=

>  <r_lp_tautomer_probability>  (162) 
1

>  <r_epik_Ionization_Penalty>  (162) 
2.63726e-07

>  <r_epik_Ionization_Penalty_Charging>  (162) 
0

>  <r_epik_Ionization_Penalty_Neutral>  (162) 
2.63726e-07

>  <r_epik_State_Penalty>  (162) 
-0

>  <r_epik_Charging_Adjusted_Penalty>  (162) 
0

>  <i_epik_Tot_Q>  (162) 
0

>  <i_epik_Tot_abs_Q>  (162) 
0

>  <s_lp_Force_Field>  (162) 
OPLS3e

>  <r_lp_Energy>  (162) 
40.4705

>  <b_lp_Chiralities_Consistent>  (162) 
1

>  <s_lp_Variant>  (162) 
40:0-1

>  <s_i_glide_gridfile>  (162) 
pfpi4k_grid

>  <i_i_glide_lignum>  (162) 
28

>  <i_i_glide_rotatable_bonds>  (162) 
2

>  <r_i_docking_score>  (162) 
-3.47489

>  <r_i_glide_ligand_efficiency>  (162) 
-0.182889

>  <r_i_glide_ligand_efficiency_sa>  (162) 
-0.488021

>  <r_i_glide_ligand_efficiency_ln>  (162) 
-0.880959

>  <r_i_glide_gscore>  (162) 
-3.47489

>  <r_i_glide_lipo>  (162) 
-0.393306

>  <r_i_glide_hbond>  (162) 
0

>  <r_i_glide_metal>  (162) 
-0

>  <r_i_glide_rewards>  (162) 
-1.56768

>  <r_i_glide_evdw>  (162) 
-19.9203

>  <r_i_glide_ecoul>  (162) 
-3.45255

>  <r_i_glide_erotb>  (162) 
0

>  <r_i_glide_esite>  (162) 
0

>  <r_i_glide_emodel>  (162) 
-27.1869

>  <r_i_glide_energy>  (162) 
-23.3728

>  <r_i_glide_einternal>  (162) 
0.871941

>  <r_i_glide_intrahb_reward>  (162) 
-0

>  <i_i_glide_confnum>  (162) 
1

>  <i_i_glide_posenum>  (162) 
6

>  <r_i_glide_eff_state_penalty>  (162) 
0

>  <ligand_id>  (162) 
40

>  <original_smiles>  (162) 
CC1CCC2C(O)C(O)C3OC4(C)CCC1C23OO4

>  <smiles>  (162) 
[H]OC1([H])C([H])(O[H])C2([H])C([H])([H])C([H])([H])C([H])(C([H])([H])[H])C3([H])C([H])([H])C([H])([H])C4(C([H])([H])[H])OOC23C1([H])O4

$$$$
40:0:2
     RDKit          3D

 41 44  0  0  1  0  0  0  0  0999 V2000
    2.4025   -3.0621   -3.0272 C   0  0  0  0  0  0  0  0  0  0  0  0
    3.3189   -2.5199   -1.9175 C   0  0  2  0  0  0  0  0  0  0  0  0
    4.5234   -1.8500   -2.5616 C   0  0  0  0  0  0  0  0  0  0  0  0
    5.3040   -1.0979   -1.4983 C   0  0  0  0  0  0  0  0  0  0  0  0
    5.7665   -1.9953   -0.3521 C   0  0  2  0  0  0  0  0  0  0  0  0
    6.9375   -2.9332   -0.7262 C   0  0  1  0  0  0  0  0  0  0  0  0
    8.1598   -2.2726   -0.4266 O   0  0  0  0  0  0  0  0  0  0  0  0
    6.6931   -4.2138    0.1053 C   0  0  1  0  0  0  0  0  0  0  0  0
    7.8740   -4.6971    0.7136 O   0  0  0  0  0  0  0  0  0  0  0  0
    5.5994   -3.8075    1.0959 C   0  0  2  0  0  0  0  0  0  0  0  0
    4.9033   -4.8959    1.6402 O   0  0  0  0  0  0  0  0  0  0  0  0
    3.6019   -4.5329    2.0585 C   0  0  2  0  0  0  0  0  0  0  0  0
    3.3626   -5.2237    3.4092 C   0  0  0  0  0  0  0  0  0  0  0  0
    2.6581   -5.0973    0.9926 C   0  0  0  0  0  0  0  0  0  0  0  0
    2.4985   -4.1953   -0.2366 C   0  0  0  0  0  0  0  0  0  0  0  0
    3.7663   -3.5673   -0.8475 C   0  0  2  0  0  0  0  0  0  0  0  0
    4.6738   -2.9028    0.2576 C   0  0  2  0  0  0  0  0  0  0  0  0
    3.8310   -2.2145    1.1652 O   0  0  0  0  0  0  0  0  0  0  0  0
    3.4187   -3.1334    2.3374 O   0  0  0  0  0  0  0  0  0  0  0  0
    2.8526   -3.9188   -3.5223 H   0  0  0  0  0  0  0  0  0  0  0  0
    2.2077   -2.3119   -3.7903 H   0  0  0  0  0  0  0  0  0  0  0  0
    1.4287   -3.3586   -2.6344 H   0  0  0  0  0  0  0  0  0  0  0  0
    2.7492   -1.7409   -1.4142 H   0  0  0  0  0  0  0  0  0  0  0  0
    5.1399   -2.5947   -3.0653 H   0  0  0  0  0  0  0  0  0  0  0  0
    4.1967   -1.1444   -3.3254 H   0  0  0  0  0  0  0  0  0  0  0  0
    6.1651   -0.6574   -1.9796 H   0  0  0  0  0  0  0  0  0  0  0  0
    4.6921   -0.2837   -1.1053 H   0  0  0  0  0  0  0  0  0  0  0  0
    6.1161   -1.3371    0.4500 H   0  0  0  0  0  0  0  0  0  0  0  0
    6.9472   -3.1859   -1.7886 H   0  0  0  0  0  0  0  0  0  0  0  0
    8.8708   -2.7455   -0.8329 H   0  0  0  0  0  0  0  0  0  0  0  0
    6.2460   -4.9898   -0.5194 H   0  0  0  0  0  0  0  0  0  0  0  0
    8.0853   -4.1236    1.4372 H   0  0  0  0  0  0  0  0  0  0  0  0
    6.0371   -3.2366    1.9203 H   0  0  0  0  0  0  0  0  0  0  0  0
    4.0555   -4.8359    4.1552 H   0  0  0  0  0  0  0  0  0  0  0  0
    3.5011   -6.3035    3.3482 H   0  0  0  0  0  0  0  0  0  0  0  0
    2.3517   -5.0365    3.7764 H   0  0  0  0  0  0  0  0  0  0  0  0
    3.0137   -6.0883    0.6904 H   0  0  0  0  0  0  0  0  0  0  0  0
    1.6686   -5.2722    1.4172 H   0  0  0  0  0  0  0  0  0  0  0  0
    1.9818   -4.7765   -0.9982 H   0  0  0  0  0  0  0  0  0  0  0  0
    1.8366   -3.3790    0.0343 H   0  0  0  0  0  0  0  0  0  0  0  0
    4.3367   -4.3409   -1.3633 H   0  0  0  0  0  0  0  0  0  0  0  0
  1  2  1  0
  1 20  1  0
  1 21  1  0
  1 22  1  0
  2 16  1  0
  2  3  1  0
  2 23  1  1
  3  4  1  0
  3 24  1  0
  3 25  1  0
  4  5  1  0
  4 26  1  0
  4 27  1  0
  5 17  1  0
  5  6  1  0
  5 28  1  1
  6  7  1  0
  6  8  1  0
  6 29  1  6
  7 30  1  0
  8  9  1  0
  8 10  1  0
  8 31  1  6
  9 32  1  0
 10 17  1  0
 10 11  1  0
 10 33  1  1
 11 12  1  0
 12 19  1  0
 12 13  1  1
 12 14  1  0
 13 34  1  0
 13 35  1  0
 13 36  1  0
 14 15  1  0
 14 37  1  0
 14 38  1  0
 15 16  1  0
 15 39  1  0
 15 40  1  0
 16 17  1  0
 16 41  1  6
 17 18  1  1
 18 19  1  0
M  END
>  <i_m_ct_stereo_status>  (163) 
1

>  <s_m_source_file>  (163) 
/var/tmp/pbs.5076255.sched01/tmpyrjfudeo/454urwji6r.sdf

>  <i_m_source_file_index>  (163) 
28

>  <i_lp_mmshare_version>  (163) 
48012

>  <i_f3d_flags>  (163) 
0

>  <s_epik_input>  (163) 
W0NAQF0xMjNbQ0BASF00W0NIMl1bQ0gyXVtDQEBIXShbQ0gzXSlbQ0BASF0yW0NIMl1bQ0gyXVtDQF0oW0NIM10pKE9PMylPW0NASF0xW0NASF0oW09IXSlbQ0BASF00W09IXQ==

>  <s_epik_cmdline>  (163) 
J2VwaWtfcHl0aG9uJywgJy1waHQnLCAnMi4wJywgJy1waCcsICc3LjAnLCAnLXRuJywgJzgnLCAnLW1hJywgJzIwMCcsICctaW1hZScsICc8aW5maWxlLm1hZT4nLCAnLW9tYWUnLCAnPG91dGZpbGUubWFlPic=

>  <r_lp_tautomer_probability>  (163) 
1

>  <r_epik_Ionization_Penalty>  (163) 
2.63726e-07

>  <r_epik_Ionization_Penalty_Charging>  (163) 
0

>  <r_epik_Ionization_Penalty_Neutral>  (163) 
2.63726e-07

>  <r_epik_State_Penalty>  (163) 
-0

>  <r_epik_Charging_Adjusted_Penalty>  (163) 
0

>  <i_epik_Tot_Q>  (163) 
0

>  <i_epik_Tot_abs_Q>  (163) 
0

>  <s_lp_Force_Field>  (163) 
OPLS3e

>  <r_lp_Energy>  (163) 
40.4705

>  <b_lp_Chiralities_Consistent>  (163) 
1

>  <s_lp_Variant>  (163) 
40:0-1

>  <s_i_glide_gridfile>  (163) 
pfpi4k_grid

>  <i_i_glide_lignum>  (163) 
28

>  <i_i_glide_rotatable_bonds>  (163) 
2

>  <r_i_docking_score>  (163) 
-3.29858

>  <r_i_glide_ligand_efficiency>  (163) 
-0.17361

>  <r_i_glide_ligand_efficiency_sa>  (163) 
-0.46326

>  <r_i_glide_ligand_efficiency_ln>  (163) 
-0.836261

>  <r_i_glide_gscore>  (163) 
-3.29858

>  <r_i_glide_lipo>  (163) 
-0.340275

>  <r_i_glide_hbond>  (163) 
0

>  <r_i_glide_metal>  (163) 
-0

>  <r_i_glide_rewards>  (163) 
-1.57015

>  <r_i_glide_evdw>  (163) 
-21.2385

>  <r_i_glide_ecoul>  (163) 
-2.17487

>  <r_i_glide_erotb>  (163) 
0

>  <r_i_glide_esite>  (163) 
0

>  <r_i_glide_emodel>  (163) 
-27.0975

>  <r_i_glide_energy>  (163) 
-23.4133

>  <r_i_glide_einternal>  (163) 
0.571283

>  <r_i_glide_intrahb_reward>  (163) 
-0

>  <i_i_glide_confnum>  (163) 
2

>  <i_i_glide_posenum>  (163) 
15

>  <r_i_glide_eff_state_penalty>  (163) 
0

>  <ligand_id>  (163) 
40

>  <original_smiles>  (163) 
CC1CCC2C(O)C(O)C3OC4(C)CCC1C23OO4

>  <smiles>  (163) 
[H]OC1([H])C([H])(O[H])C2([H])C([H])([H])C([H])([H])C([H])(C([H])([H])[H])C3([H])C([H])([H])C([H])([H])C4(C([H])([H])[H])OOC23C1([H])O4

$$$$
41:0:0
     RDKit          3D

 84 89  0  0  1  0  0  0  0  0999 V2000
    3.0210    6.3517    7.4620 C   0  0  0  0  0  0  0  0  0  0  0  0
    1.9813    6.1465    6.3634 C   0  0  0  0  0  0  0  0  0  0  0  0
    1.9127    6.9231    5.4111 O   0  0  0  0  0  0  0  0  0  0  0  0
    1.1437    5.0848    6.5084 O   0  0  0  0  0  0  0  0  0  0  0  0
    1.1895    4.1744    7.6112 C   0  0  2  0  0  0  0  0  0  0  0  0
    1.0918    2.7313    7.1253 C   0  0  2  0  0  0  0  0  0  0  0  0
    2.1484    2.1434    6.1591 C   0  0  0  0  0  0  0  0  0  0  0  0
    1.3340    1.1195    5.3512 C   0  0  1  0  0  0  0  0  0  0  0  0
    1.9364   -0.2245    4.9411 C   0  0  0  0  0  0  0  0  0  0  0  0
    1.2122   -1.3571    4.8022 C   0  0  0  0  0  0  0  0  0  0  0  0
    1.8792   -2.6693    4.3169 C   0  0  1  0  0  0  0  0  0  0  0  0
    1.1993   -3.9637    4.8052 C   0  0  0  0  0  0  0  0  0  0  0  0
    2.1503   -2.7063    2.7775 C   0  0  1  0  0  0  0  0  0  0  0  0
    1.3109   -1.7604    2.1385 O   0  0  0  0  0  0  0  0  0  0  0  0
    3.6323   -2.4969    2.3311 C   0  0  1  0  0  0  0  0  0  0  0  0
    4.3036   -3.8838    2.4396 C   0  0  0  0  0  0  0  0  0  0  0  0
    3.8533   -1.8185    0.9572 C   0  0  2  0  0  0  0  0  0  0  0  0
    4.3507   -2.2782   -0.3976 C   0  0  1  0  0  0  0  0  0  0  0  0
    3.2591   -2.6880   -1.3825 C   0  0  0  0  0  0  0  0  0  0  0  0
    5.1478   -1.0008   -0.8314 C   0  0  0  0  0  0  0  0  0  0  0  0
    5.3595   -0.1438    0.4655 C   0  0  0  0  0  0  0  0  0  0  0  0
    5.0862   -1.1850    1.5154 C   0  0  1  0  0  0  0  0  0  0  0  0
    4.4463   -1.2544    2.9116 C   0  0  2  0  0  0  0  0  0  0  0  0
    5.4478   -1.5770    4.0185 C   0  0  0  0  0  0  0  0  0  0  0  0
    3.6399   -0.0534    3.3854 C   0  0  0  0  0  0  0  0  0  0  0  0
    3.2821    0.9094    2.7191 O   0  0  0  0  0  0  0  0  0  0  0  0
    3.2800   -0.2071    4.6804 O   0  0  0  0  0  0  0  0  0  0  0  0
   -0.3074   -1.3425    5.0483 C   0  0  1  0  0  0  0  0  0  0  0  0
   -0.6042   -2.0697    6.2293 O   0  0  0  0  0  0  0  0  0  0  0  0
   -0.8747    0.0941    5.2113 C   0  0  1  0  0  0  0  0  0  0  0  0
   -2.1794    0.0081    5.6914 O   0  0  0  0  0  0  0  0  0  0  0  0
    0.0290    0.9265    6.1321 C   0  0  2  0  0  0  0  0  0  0  0  0
   -0.3101    2.3654    6.6164 C   0  0  2  0  0  0  0  0  0  0  0  0
   -0.8524    3.2611    5.4730 C   0  0  0  0  0  0  0  0  0  0  0  0
   -1.2669    2.5030    7.8183 C   0  0  0  0  0  0  0  0  0  0  0  0
   -2.1597    1.6937    8.0229 O   0  0  0  0  0  0  0  0  0  0  0  0
   -1.1058    3.6353    8.5781 O   0  0  0  0  0  0  0  0  0  0  0  0
    0.0828    4.4516    8.6823 C   0  0  0  0  0  0  0  0  0  0  0  0
    0.6735    4.1384   10.0765 C   0  0  0  0  0  0  0  0  0  0  0  0
   -0.4258    5.9141    8.6694 C   0  0  0  0  0  0  0  0  0  0  0  0
    2.5398    6.4049    8.4368 H   0  0  0  0  0  0  0  0  0  0  0  0
    3.5789    7.2769    7.3206 H   0  0  0  0  0  0  0  0  0  0  0  0
    3.7252    5.5205    7.4621 H   0  0  0  0  0  0  0  0  0  0  0  0
    2.1575    4.2007    8.1006 H   0  0  0  0  0  0  0  0  0  0  0  0
    1.2538    2.1475    8.0358 H   0  0  0  0  0  0  0  0  0  0  0  0
    2.5691    2.9082    5.5021 H   0  0  0  0  0  0  0  0  0  0  0  0
    2.9725    1.6784    6.7063 H   0  0  0  0  0  0  0  0  0  0  0  0
    1.0982    1.6064    4.4021 H   0  0  0  0  0  0  0  0  0  0  0  0
    2.8509   -2.6904    4.8099 H   0  0  0  0  0  0  0  0  0  0  0  0
    1.1731   -4.0158    5.8926 H   0  0  0  0  0  0  0  0  0  0  0  0
    1.7615   -4.8343    4.4697 H   0  0  0  0  0  0  0  0  0  0  0  0
    0.1843   -4.0712    4.4231 H   0  0  0  0  0  0  0  0  0  0  0  0
    1.8184   -3.6745    2.3979 H   0  0  0  0  0  0  0  0  0  0  0  0
    1.4960   -1.7297    1.2169 H   0  0  0  0  0  0  0  0  0  0  0  0
    5.3481   -3.8713    2.1157 H   0  0  0  0  0  0  0  0  0  0  0  0
    3.8090   -4.6178    1.7965 H   0  0  0  0  0  0  0  0  0  0  0  0
    4.2919   -4.2646    3.4628 H   0  0  0  0  0  0  0  0  0  0  0  0
    3.1121   -1.0346    0.8067 H   0  0  0  0  0  0  0  0  0  0  0  0
    5.0406   -3.1152   -0.2884 H   0  0  0  0  0  0  0  0  0  0  0  0
    2.6154   -1.8425   -1.5726 H   0  0  0  0  0  0  0  0  0  0  0  0
    2.6682   -3.5201   -1.0004 H   0  0  0  0  0  0  0  0  0  0  0  0
    3.6730   -2.9794   -2.3483 H   0  0  0  0  0  0  0  0  0  0  0  0
    6.1035   -1.3029   -1.2657 H   0  0  0  0  0  0  0  0  0  0  0  0
    4.6213   -0.4081   -1.5882 H   0  0  0  0  0  0  0  0  0  0  0  0
    6.3642    0.2677    0.4832 H   0  0  0  0  0  0  0  0  0  0  0  0
    4.6397    0.6759    0.5037 H   0  0  0  0  0  0  0  0  0  0  0  0
    5.9238   -1.8810    1.5053 H   0  0  0  0  0  0  0  0  0  0  0  0
    6.1331   -2.3551    3.6818 H   0  0  0  0  0  0  0  0  0  0  0  0
    4.9934   -1.9606    4.9369 H   0  0  0  0  0  0  0  0  0  0  0  0
    6.0567   -0.7008    4.2729 H   0  0  0  0  0  0  0  0  0  0  0  0
   -0.8105   -1.8214    4.2112 H   0  0  0  0  0  0  0  0  0  0  0  0
   -0.1958   -2.9169    6.1644 H   0  0  0  0  0  0  0  0  0  0  0  0
   -0.9306    0.5763    4.2339 H   0  0  0  0  0  0  0  0  0  0  0  0
   -2.7592    0.1255    4.9521 H   0  0  0  0  0  0  0  0  0  0  0  0
    0.2206    0.3323    7.0307 H   0  0  0  0  0  0  0  0  0  0  0  0
   -0.0932    3.4786    4.7244 H   0  0  0  0  0  0  0  0  0  0  0  0
   -1.2154    4.2217    5.8405 H   0  0  0  0  0  0  0  0  0  0  0  0
   -1.6936    2.7878    4.9703 H   0  0  0  0  0  0  0  0  0  0  0  0
    1.5594    4.7406   10.2971 H   0  0  0  0  0  0  0  0  0  0  0  0
    0.9710    3.0919   10.1523 H   0  0  0  0  0  0  0  0  0  0  0  0
   -0.0499    4.3210   10.8735 H   0  0  0  0  0  0  0  0  0  0  0  0
    0.3766    6.6470    8.7673 H   0  0  0  0  0  0  0  0  0  0  0  0
   -1.1208    6.1019    9.4890 H   0  0  0  0  0  0  0  0  0  0  0  0
   -0.9540    6.1271    7.7398 H   0  0  0  0  0  0  0  0  0  0  0  0
  1  2  1  0
  1 41  1  0
  1 42  1  0
  1 43  1  0
  2  3  2  0
  2  4  1  0
  4  5  1  0
  5 38  1  0
  5  6  1  0
  5 44  1  1
  6 33  1  0
  6  7  1  0
  6 45  1  1
  7  8  1  0
  7 46  1  0
  7 47  1  0
  8 32  1  0
  8  9  1  0
  8 48  1  6
  9 27  1  0
  9 10  2  0
 10 11  1  0
 10 28  1  0
 11 12  1  0
 11 13  1  0
 11 49  1  1
 12 50  1  0
 12 51  1  0
 12 52  1  0
 13 14  1  0
 13 15  1  0
 13 53  1  6
 14 54  1  0
 15 23  1  0
 15 16  1  6
 15 17  1  0
 16 55  1  0
 16 56  1  0
 16 57  1  0
 17 22  1  0
 17 18  1  0
 17 58  1  6
 18 19  1  0
 18 20  1  0
 18 59  1  1
 19 60  1  0
 19 61  1  0
 19 62  1  0
 20 21  1  0
 20 63  1  0
 20 64  1  0
 21 22  1  0
 21 65  1  0
 21 66  1  0
 22 23  1  0
 22 67  1  1
 23 24  1  1
 23 25  1  0
 24 68  1  0
 24 69  1  0
 24 70  1  0
 25 26  2  0
 25 27  1  0
 28 29  1  0
 28 30  1  0
 28 71  1  6
 29 72  1  0
 30 31  1  0
 30 32  1  0
 30 73  1  6
 31 74  1  0
 32 33  1  0
 32 75  1  1
 33 34  1  6
 33 35  1  0
 34 76  1  0
 34 77  1  0
 34 78  1  0
 35 36  2  0
 35 37  1  0
 37 38  1  0
 38 39  1  0
 38 40  1  0
 39 79  1  0
 39 80  1  0
 39 81  1  0
 40 82  1  0
 40 83  1  0
 40 84  1  0
M  END
>  <i_m_ct_stereo_status>  (164) 
1

>  <s_m_source_file>  (164) 
/var/tmp/pbs.5076255.sched01/tmpyrjfudeo/454urwji6r.sdf

>  <i_m_source_file_index>  (164) 
29

>  <i_lp_mmshare_version>  (164) 
48012

>  <i_f3d_flags>  (164) 
0

>  <s_epik_input>  (164) 
W0NIM11DKD1PKU9bQ0BIXTFDKFtDSDNdKShbQ0gzXSlPQyg9TylbQ0BAXTIoW0NIM10pW0NASF0xW0NIMl1bQ0BASF0zW0NAQEhdMltDQEhdKFtPSF0pW0NASF0oW09IXSlDKFtDQEBIXShbQ0gzXSlbQ0BIXTRbT0hdKT1DM09DKD1PKVtDQF01KFtDSDNdKVtDQEBIXShbQ0BASF02W0NAXTQ1W0NIM10pW0NIMl1bQ0gyXVtDQEBIXTZbQ0gzXQ==

>  <s_epik_cmdline>  (164) 
J2VwaWtfcHl0aG9uJywgJy1waHQnLCAnMi4wJywgJy1waCcsICc3LjAnLCAnLXRuJywgJzgnLCAnLW1hJywgJzIwMCcsICctaW1hZScsICc8aW5maWxlLm1hZT4nLCAnLW9tYWUnLCAnPG91dGZpbGUubWFlPic=

>  <r_lp_tautomer_probability>  (164) 
1

>  <r_epik_Ionization_Penalty>  (164) 
5.08552e-06

>  <r_epik_Ionization_Penalty_Charging>  (164) 
0

>  <r_epik_Ionization_Penalty_Neutral>  (164) 
5.08552e-06

>  <r_epik_State_Penalty>  (164) 
-0

>  <r_epik_Charging_Adjusted_Penalty>  (164) 
0

>  <i_epik_Tot_Q>  (164) 
0

>  <i_epik_Tot_abs_Q>  (164) 
0

>  <s_epik_Chemistry_Notes>  (164) 
This compound has an ester and may undergo hydrolysis at high or low pH.

>  <s_lp_Force_Field>  (164) 
OPLS3e

>  <r_lp_Energy>  (164) 
105.807

>  <b_lp_Chiralities_Consistent>  (164) 
1

>  <s_lp_Variant>  (164) 
41:0-1

>  <s_i_glide_gridfile>  (164) 
pfpi4k_grid

>  <i_i_glide_lignum>  (164) 
29

>  <i_i_glide_rotatable_bonds>  (164) 
5

>  <r_i_docking_score>  (164) 
-2.25384

>  <r_i_glide_ligand_efficiency>  (164) 
-0.0563459

>  <r_i_glide_ligand_efficiency_sa>  (164) 
-0.1927

>  <r_i_glide_ligand_efficiency_ln>  (164) 
-0.480677

>  <r_i_glide_gscore>  (164) 
-2.25384

>  <r_i_glide_lipo>  (164) 
-0.334449

>  <r_i_glide_hbond>  (164) 
-0.0270398

>  <r_i_glide_metal>  (164) 
-0

>  <r_i_glide_rewards>  (164) 
-0.00436959

>  <r_i_glide_evdw>  (164) 
-21.244

>  <r_i_glide_ecoul>  (164) 
-5.90685

>  <r_i_glide_erotb>  (164) 
0.0661403

>  <r_i_glide_esite>  (164) 
-0.00588892

>  <r_i_glide_emodel>  (164) 
-27.0266

>  <r_i_glide_energy>  (164) 
-27.1509

>  <r_i_glide_einternal>  (164) 
7.05582

>  <r_i_glide_intrahb_reward>  (164) 
-0

>  <i_i_glide_confnum>  (164) 
3

>  <i_i_glide_posenum>  (164) 
2

>  <r_i_glide_eff_state_penalty>  (164) 
0

>  <ligand_id>  (164) 
41

>  <original_smiles>  (164) 
CC(=O)OC1C2CC3C4=C(C(C)C(O)C5(C)C6C(C)CCC6C5(C)C(=O)O4)C(O)C(O)C3C2(C)C(=O)OC1(C)C

>  <smiles>  (164) 
[H]OC1([H])C2=C(OC(=O)C3(C([H])([H])[H])C4([H])C([H])([H])C([H])([H])C([H])(C([H])([H])[H])C4([H])C3(C([H])([H])[H])C([H])(O[H])C2([H])C([H])([H])[H])C2([H])C([H])([H])C3([H])C([H])(OC(=O)C([H])([H])[H])C(C([H])([H])[H])(C([H])([H])[H])OC(=O)C3(C([H])([H])[H])C2([H])C1([H])O[H]

$$$$
41:0:1
     RDKit          3D

 84 89  0  0  1  0  0  0  0  0999 V2000
    3.8225    3.7440    5.3250 C   0  0  0  0  0  0  0  0  0  0  0  0
    2.3230    3.5185    5.1448 C   0  0  0  0  0  0  0  0  0  0  0  0
    1.6437    4.3286    4.5209 O   0  0  0  0  0  0  0  0  0  0  0  0
    1.8034    2.3936    5.6992 O   0  0  0  0  0  0  0  0  0  0  0  0
    2.5540    1.4384    6.4597 C   0  0  2  0  0  0  0  0  0  0  0  0
    2.7141    0.1139    5.7151 C   0  0  2  0  0  0  0  0  0  0  0  0
    3.4311    0.0395    4.3448 C   0  0  0  0  0  0  0  0  0  0  0  0
    2.7185   -1.1356    3.6528 C   0  0  1  0  0  0  0  0  0  0  0  0
    3.4872   -2.1150    2.7735 C   0  0  0  0  0  0  0  0  0  0  0  0
    3.1420   -3.4191    2.6436 C   0  0  0  0  0  0  0  0  0  0  0  0
    3.9344   -4.3414    1.6918 C   0  0  1  0  0  0  0  0  0  0  0  0
    3.9420   -5.8346    2.0761 C   0  0  0  0  0  0  0  0  0  0  0  0
    3.5721   -4.1468    0.1837 C   0  0  1  0  0  0  0  0  0  0  0  0
    2.2558   -3.6497    0.0351 O   0  0  0  0  0  0  0  0  0  0  0  0
    4.6219   -3.3457   -0.6686 C   0  0  1  0  0  0  0  0  0  0  0  0
    5.6515   -4.3760   -1.0965 C   0  0  0  0  0  0  0  0  0  0  0  0
    4.0575   -2.5214   -1.8581 C   0  0  2  0  0  0  0  0  0  0  0  0
    4.0899   -2.6302   -3.3722 C   0  0  1  0  0  0  0  0  0  0  0  0
    2.8452   -3.2374   -3.9951 C   0  0  0  0  0  0  0  0  0  0  0  0
    4.2344   -1.1355   -3.7769 C   0  0  0  0  0  0  0  0  0  0  0  0
    4.6694   -0.3909   -2.4734 C   0  0  0  0  0  0  0  0  0  0  0  0
    5.1614   -1.5438   -1.6367 C   0  0  1  0  0  0  0  0  0  0  0  0
    5.2132   -1.9533   -0.1450 C   0  0  2  0  0  0  0  0  0  0  0  0
    6.6397   -1.9768    0.4318 C   0  0  0  0  0  0  0  0  0  0  0  0
    4.3372   -1.1794    0.8331 C   0  0  0  0  0  0  0  0  0  0  0  0
    3.4874   -0.3383    0.5588 O   0  0  0  0  0  0  0  0  0  0  0  0
    4.5586   -1.6046    2.0980 O   0  0  0  0  0  0  0  0  0  0  0  0
    1.9208   -3.9803    3.4019 C   0  0  1  0  0  0  0  0  0  0  0  0
    2.3361   -4.8981    4.3988 O   0  0  0  0  0  0  0  0  0  0  0  0
    1.0363   -2.8809    4.0753 C   0  0  1  0  0  0  0  0  0  0  0  0
    0.0962   -3.4561    4.9514 O   0  0  0  0  0  0  0  0  0  0  0  0
    1.9520   -1.8589    4.7686 C   0  0  2  0  0  0  0  0  0  0  0  0
    1.4117   -0.6963    5.6420 C   0  0  2  0  0  0  0  0  0  0  0  0
    0.2210    0.0374    4.9807 C   0  0  0  0  0  0  0  0  0  0  0  0
    1.0013   -1.0172    7.0963 C   0  0  0  0  0  0  0  0  0  0  0  0
    0.5325   -2.1068    7.4234 O   0  0  0  0  0  0  0  0  0  0  0  0
    1.0992    0.0140    7.9960 O   0  0  0  0  0  0  0  0  0  0  0  0
    1.9266    1.1935    7.8693 C   0  0  0  0  0  0  0  0  0  0  0  0
    3.0856    1.0043    8.8712 C   0  0  0  0  0  0  0  0  0  0  0  0
    1.0497    2.3797    8.3350 C   0  0  0  0  0  0  0  0  0  0  0  0
    4.0799    3.7601    6.3856 H   0  0  0  0  0  0  0  0  0  0  0  0
    4.1417    4.6923    4.8953 H   0  0  0  0  0  0  0  0  0  0  0  0
    4.3763    2.9420    4.8335 H   0  0  0  0  0  0  0  0  0  0  0  0
    3.5695    1.7752    6.6307 H   0  0  0  0  0  0  0  0  0  0  0  0
    3.3885   -0.4523    6.3620 H   0  0  0  0  0  0  0  0  0  0  0  0
    3.3016    0.9521    3.7631 H   0  0  0  0  0  0  0  0  0  0  0  0
    4.5000   -0.1339    4.4610 H   0  0  0  0  0  0  0  0  0  0  0  0
    1.9890   -0.6863    2.9748 H   0  0  0  0  0  0  0  0  0  0  0  0
    4.9789   -4.0516    1.8013 H   0  0  0  0  0  0  0  0  0  0  0  0
    4.3531   -5.9859    3.0738 H   0  0  0  0  0  0  0  0  0  0  0  0
    4.5657   -6.4061    1.3898 H   0  0  0  0  0  0  0  0  0  0  0  0
    2.9465   -6.2752    2.0485 H   0  0  0  0  0  0  0  0  0  0  0  0
    3.4770   -5.1415   -0.2535 H   0  0  0  0  0  0  0  0  0  0  0  0
    2.2899   -2.6995    0.0156 H   0  0  0  0  0  0  0  0  0  0  0  0
    6.4071   -3.9187   -1.7404 H   0  0  0  0  0  0  0  0  0  0  0  0
    5.1704   -5.1636   -1.6795 H   0  0  0  0  0  0  0  0  0  0  0  0
    6.1665   -4.8322   -0.2504 H   0  0  0  0  0  0  0  0  0  0  0  0
    3.1132   -2.0663   -1.5557 H   0  0  0  0  0  0  0  0  0  0  0  0
    4.9710   -3.1916   -3.6988 H   0  0  0  0  0  0  0  0  0  0  0  0
    1.9147   -2.7414   -3.7171 H   0  0  0  0  0  0  0  0  0  0  0  0
    2.7565   -4.2588   -3.6318 H   0  0  0  0  0  0  0  0  0  0  0  0
    2.9417   -3.2818   -5.0810 H   0  0  0  0  0  0  0  0  0  0  0  0
    4.9730   -1.0395   -4.5740 H   0  0  0  0  0  0  0  0  0  0  0  0
    3.2945   -0.7196   -4.1467 H   0  0  0  0  0  0  0  0  0  0  0  0
    5.4069    0.3653   -2.6780 H   0  0  0  0  0  0  0  0  0  0  0  0
    3.8199    0.0857   -2.0333 H   0  0  0  0  0  0  0  0  0  0  0  0
    6.0963   -1.8944   -2.0910 H   0  0  0  0  0  0  0  0  0  0  0  0
    7.3603   -2.4020   -0.2696 H   0  0  0  0  0  0  0  0  0  0  0  0
    6.7116   -2.5922    1.3289 H   0  0  0  0  0  0  0  0  0  0  0  0
    7.0027   -0.9782    0.6754 H   0  0  0  0  0  0  0  0  0  0  0  0
    1.3079   -4.5355    2.6955 H   0  0  0  0  0  0  0  0  0  0  0  0
    2.8173   -4.4351    5.0700 H   0  0  0  0  0  0  0  0  0  0  0  0
    0.4670   -2.3733    3.2933 H   0  0  0  0  0  0  0  0  0  0  0  0
   -0.4004   -4.1034    4.4739 H   0  0  0  0  0  0  0  0  0  0  0  0
    2.6498   -2.4145    5.4007 H   0  0  0  0  0  0  0  0  0  0  0  0
    0.5188    0.5829    4.0910 H   0  0  0  0  0  0  0  0  0  0  0  0
   -0.2449    0.7647    5.6522 H   0  0  0  0  0  0  0  0  0  0  0  0
   -0.5641   -0.6639    4.6991 H   0  0  0  0  0  0  0  0  0  0  0  0
    3.7541    1.8684    8.9037 H   0  0  0  0  0  0  0  0  0  0  0  0
    3.6940    0.1399    8.6051 H   0  0  0  0  0  0  0  0  0  0  0  0
    2.7174    0.8400    9.8836 H   0  0  0  0  0  0  0  0  0  0  0  0
    1.5794    3.3353    8.2852 H   0  0  0  0  0  0  0  0  0  0  0  0
    0.7186    2.2389    9.3626 H   0  0  0  0  0  0  0  0  0  0  0  0
    0.1559    2.4643    7.7159 H   0  0  0  0  0  0  0  0  0  0  0  0
  1  2  1  0
  1 41  1  0
  1 42  1  0
  1 43  1  0
  2  3  2  0
  2  4  1  0
  4  5  1  0
  5 38  1  0
  5  6  1  0
  5 44  1  1
  6 33  1  0
  6  7  1  0
  6 45  1  1
  7  8  1  0
  7 46  1  0
  7 47  1  0
  8 32  1  0
  8  9  1  0
  8 48  1  6
  9 27  1  0
  9 10  2  0
 10 11  1  0
 10 28  1  0
 11 12  1  0
 11 13  1  0
 11 49  1  6
 12 50  1  0
 12 51  1  0
 12 52  1  0
 13 14  1  0
 13 15  1  0
 13 53  1  6
 14 54  1  0
 15 23  1  0
 15 16  1  6
 15 17  1  0
 16 55  1  0
 16 56  1  0
 16 57  1  0
 17 22  1  0
 17 18  1  0
 17 58  1  1
 18 19  1  0
 18 20  1  0
 18 59  1  1
 19 60  1  0
 19 61  1  0
 19 62  1  0
 20 21  1  0
 20 63  1  0
 20 64  1  0
 21 22  1  0
 21 65  1  0
 21 66  1  0
 22 23  1  0
 22 67  1  6
 23 24  1  1
 23 25  1  0
 24 68  1  0
 24 69  1  0
 24 70  1  0
 25 26  2  0
 25 27  1  0
 28 29  1  0
 28 30  1  0
 28 71  1  6
 29 72  1  0
 30 31  1  0
 30 32  1  0
 30 73  1  6
 31 74  1  0
 32 33  1  0
 32 75  1  1
 33 34  1  6
 33 35  1  0
 34 76  1  0
 34 77  1  0
 34 78  1  0
 35 36  2  0
 35 37  1  0
 37 38  1  0
 38 39  1  0
 38 40  1  0
 39 79  1  0
 39 80  1  0
 39 81  1  0
 40 82  1  0
 40 83  1  0
 40 84  1  0
M  END
>  <i_m_ct_stereo_status>  (165) 
1

>  <s_m_source_file>  (165) 
/var/tmp/pbs.5076255.sched01/tmpyrjfudeo/454urwji6r.sdf

>  <i_m_source_file_index>  (165) 
29

>  <i_lp_mmshare_version>  (165) 
48012

>  <i_f3d_flags>  (165) 
0

>  <s_epik_input>  (165) 
W0NIM11DKD1PKU9bQ0BIXTFDKFtDSDNdKShbQ0gzXSlPQyg9TylbQ0BAXTIoW0NIM10pW0NASF0xW0NIMl1bQ0BASF0zW0NAQEhdMltDQEhdKFtPSF0pW0NASF0oW09IXSlDKFtDQEBIXShbQ0gzXSlbQ0BIXTRbT0hdKT1DM09DKD1PKVtDQF01KFtDSDNdKVtDQEBIXShbQ0BASF02W0NAXTQ1W0NIM10pW0NIMl1bQ0gyXVtDQEBIXTZbQ0gzXQ==

>  <s_epik_cmdline>  (165) 
J2VwaWtfcHl0aG9uJywgJy1waHQnLCAnMi4wJywgJy1waCcsICc3LjAnLCAnLXRuJywgJzgnLCAnLW1hJywgJzIwMCcsICctaW1hZScsICc8aW5maWxlLm1hZT4nLCAnLW9tYWUnLCAnPG91dGZpbGUubWFlPic=

>  <r_lp_tautomer_probability>  (165) 
1

>  <r_epik_Ionization_Penalty>  (165) 
5.08552e-06

>  <r_epik_Ionization_Penalty_Charging>  (165) 
0

>  <r_epik_Ionization_Penalty_Neutral>  (165) 
5.08552e-06

>  <r_epik_State_Penalty>  (165) 
-0

>  <r_epik_Charging_Adjusted_Penalty>  (165) 
0

>  <i_epik_Tot_Q>  (165) 
0

>  <i_epik_Tot_abs_Q>  (165) 
0

>  <s_epik_Chemistry_Notes>  (165) 
This compound has an ester and may undergo hydrolysis at high or low pH.

>  <s_lp_Force_Field>  (165) 
OPLS3e

>  <r_lp_Energy>  (165) 
105.807

>  <b_lp_Chiralities_Consistent>  (165) 
1

>  <s_lp_Variant>  (165) 
41:0-1

>  <s_i_glide_gridfile>  (165) 
pfpi4k_grid

>  <i_i_glide_lignum>  (165) 
29

>  <i_i_glide_rotatable_bonds>  (165) 
5

>  <r_i_docking_score>  (165) 
-2.11041

>  <r_i_glide_ligand_efficiency>  (165) 
-0.0527604

>  <r_i_glide_ligand_efficiency_sa>  (165) 
-0.180438

>  <r_i_glide_ligand_efficiency_ln>  (165) 
-0.450089

>  <r_i_glide_gscore>  (165) 
-2.11041

>  <r_i_glide_lipo>  (165) 
-0.55857

>  <r_i_glide_hbond>  (165) 
-0.00135321

>  <r_i_glide_metal>  (165) 
-0

>  <r_i_glide_rewards>  (165) 
-0.00352059

>  <r_i_glide_evdw>  (165) 
-21.5577

>  <r_i_glide_ecoul>  (165) 
-3.48864

>  <r_i_glide_erotb>  (165) 
0.0661403

>  <r_i_glide_esite>  (165) 
-0.0119279

>  <r_i_glide_emodel>  (165) 
-25.2224

>  <r_i_glide_energy>  (165) 
-25.0464

>  <r_i_glide_einternal>  (165) 
6.01817

>  <r_i_glide_intrahb_reward>  (165) 
-0

>  <i_i_glide_confnum>  (165) 
3

>  <i_i_glide_posenum>  (165) 
5

>  <r_i_glide_eff_state_penalty>  (165) 
0

>  <ligand_id>  (165) 
41

>  <original_smiles>  (165) 
CC(=O)OC1C2CC3C4=C(C(C)C(O)C5(C)C6C(C)CCC6C5(C)C(=O)O4)C(O)C(O)C3C2(C)C(=O)OC1(C)C

>  <smiles>  (165) 
[H]OC1([H])C2=C(OC(=O)C3(C([H])([H])[H])C4([H])C([H])([H])C([H])([H])C([H])(C([H])([H])[H])C4([H])C3(C([H])([H])[H])C([H])(O[H])C2([H])C([H])([H])[H])C2([H])C([H])([H])C3([H])C([H])(OC(=O)C([H])([H])[H])C(C([H])([H])[H])(C([H])([H])[H])OC(=O)C3(C([H])([H])[H])C2([H])C1([H])O[H]

$$$$
41:0:2
     RDKit          3D

 84 89  0  0  1  0  0  0  0  0999 V2000
    1.1094   -8.1165    2.7569 C   0  0  0  0  0  0  0  0  0  0  0  0
    1.0183   -6.8579    1.8733 C   0  0  0  0  0  0  0  0  0  0  0  0
    0.0264   -6.6377    1.1821 O   0  0  0  0  0  0  0  0  0  0  0  0
    2.0628   -5.9856    1.8794 O   0  0  0  0  0  0  0  0  0  0  0  0
    3.2029   -6.0617    2.7294 C   0  0  2  0  0  0  0  0  0  0  0  0
    3.5684   -4.6648    3.2592 C   0  0  2  0  0  0  0  0  0  0  0  0
    2.5607   -3.8220    4.0800 C   0  0  0  0  0  0  0  0  0  0  0  0
    2.9570   -2.3780    3.7310 C   0  0  1  0  0  0  0  0  0  0  0  0
    2.9085   -1.2634    4.7756 C   0  0  0  0  0  0  0  0  0  0  0  0
    3.7262   -0.2104    4.7714 C   0  0  0  0  0  0  0  0  0  0  0  0
    3.6073    0.9011    5.8416 C   0  0  1  0  0  0  0  0  0  0  0  0
    4.9090    1.6473    6.1731 C   0  0  0  0  0  0  0  0  0  0  0  0
    2.4454    1.8967    5.5567 C   0  0  1  0  0  0  0  0  0  0  0  0
    2.1590    1.9534    4.1751 O   0  0  0  0  0  0  0  0  0  0  0  0
    1.1721    1.7102    6.4572 C   0  0  1  0  0  0  0  0  0  0  0  0
    1.4658    2.4999    7.7420 C   0  0  0  0  0  0  0  0  0  0  0  0
   -0.1781    2.0698    5.7931 C   0  0  2  0  0  0  0  0  0  0  0  0
   -1.1723    3.2028    5.9682 C   0  0  1  0  0  0  0  0  0  0  0  0
   -0.9600    4.3371    4.9701 C   0  0  0  0  0  0  0  0  0  0  0  0
   -2.5180    2.4166    5.7762 C   0  0  0  0  0  0  0  0  0  0  0  0
   -2.1678    0.8852    5.9121 C   0  0  0  0  0  0  0  0  0  0  0  0
   -0.8228    1.0064    6.6228 C   0  0  1  0  0  0  0  0  0  0  0  0
    0.5169    0.2540    6.6398 C   0  0  2  0  0  0  0  0  0  0  0  0
    0.7842   -0.4622    7.9806 C   0  0  0  0  0  0  0  0  0  0  0  0
    0.7661   -0.7503    5.5159 C   0  0  0  0  0  0  0  0  0  0  0  0
    0.0839   -0.9246    4.5104 O   0  0  0  0  0  0  0  0  0  0  0  0
    1.9347   -1.4091    5.7330 O   0  0  0  0  0  0  0  0  0  0  0  0
    4.7773   -0.0384    3.6550 C   0  0  1  0  0  0  0  0  0  0  0  0
    6.0659   -0.1264    4.2051 O   0  0  0  0  0  0  0  0  0  0  0  0
    4.6506   -1.0694    2.4948 C   0  0  1  0  0  0  0  0  0  0  0  0
    5.8072   -1.0165    1.6809 O   0  0  0  0  0  0  0  0  0  0  0  0
    4.3483   -2.4664    3.0757 C   0  0  2  0  0  0  0  0  0  0  0  0
    4.2221   -3.7553    2.2023 C   0  0  2  0  0  0  0  0  0  0  0  0
    3.3742   -3.5340    0.9259 C   0  0  0  0  0  0  0  0  0  0  0  0
    5.5189   -4.4403    1.7790 C   0  0  0  0  0  0  0  0  0  0  0  0
    6.5587   -3.8022    1.5879 O   0  0  0  0  0  0  0  0  0  0  0  0
    5.4757   -5.7955    1.5816 O   0  0  0  0  0  0  0  0  0  0  0  0
    4.4561   -6.7320    2.0616 C   0  0  0  0  0  0  0  0  0  0  0  0
    5.1711   -7.5500    3.1547 C   0  0  0  0  0  0  0  0  0  0  0  0
    4.1972   -7.6262    0.8229 C   0  0  0  0  0  0  0  0  0  0  0  0
    2.0150   -8.7060    2.5775 H   0  0  0  0  0  0  0  0  0  0  0  0
    0.2675   -8.7785    2.5560 H   0  0  0  0  0  0  0  0  0  0  0  0
    1.0601   -7.8670    3.8173 H   0  0  0  0  0  0  0  0  0  0  0  0
    2.9267   -6.5716    3.6459 H   0  0  0  0  0  0  0  0  0  0  0  0
    4.3531   -4.8739    3.9928 H   0  0  0  0  0  0  0  0  0  0  0  0
    1.5290   -4.0148    3.7790 H   0  0  0  0  0  0  0  0  0  0  0  0
    2.6419   -4.0271    5.1539 H   0  0  0  0  0  0  0  0  0  0  0  0
    2.2523   -2.0502    2.9644 H   0  0  0  0  0  0  0  0  0  0  0  0
    3.3677    0.3837    6.7728 H   0  0  0  0  0  0  0  0  0  0  0  0
    5.6849    0.9683    6.5190 H   0  0  0  0  0  0  0  0  0  0  0  0
    4.7479    2.3783    6.9639 H   0  0  0  0  0  0  0  0  0  0  0  0
    5.2939    2.1876    5.3103 H   0  0  0  0  0  0  0  0  0  0  0  0
    2.8300    2.9034    5.7395 H   0  0  0  0  0  0  0  0  0  0  0  0
    1.8137    1.1068    3.9059 H   0  0  0  0  0  0  0  0  0  0  0  0
    0.6267    2.4858    8.4425 H   0  0  0  0  0  0  0  0  0  0  0  0
    1.6546    3.5576    7.5279 H   0  0  0  0  0  0  0  0  0  0  0  0
    2.3367    2.0965    8.2697 H   0  0  0  0  0  0  0  0  0  0  0  0
   -0.1647    1.7622    4.7563 H   0  0  0  0  0  0  0  0  0  0  0  0
   -1.1486    3.6140    6.9790 H   0  0  0  0  0  0  0  0  0  0  0  0
   -1.0078    4.0141    3.9348 H   0  0  0  0  0  0  0  0  0  0  0  0
   -0.0157    4.8485    5.1412 H   0  0  0  0  0  0  0  0  0  0  0  0
   -1.7681    5.0483    5.1048 H   0  0  0  0  0  0  0  0  0  0  0  0
   -3.2502    2.7360    6.5298 H   0  0  0  0  0  0  0  0  0  0  0  0
   -2.9756    2.6212    4.7988 H   0  0  0  0  0  0  0  0  0  0  0  0
   -2.9168    0.3448    6.4807 H   0  0  0  0  0  0  0  0  0  0  0  0
   -2.1120    0.4203    4.9275 H   0  0  0  0  0  0  0  0  0  0  0  0
   -1.0134    1.3659    7.6236 H   0  0  0  0  0  0  0  0  0  0  0  0
    0.4903    0.1495    8.8264 H   0  0  0  0  0  0  0  0  0  0  0  0
    1.8394   -0.6743    8.1193 H   0  0  0  0  0  0  0  0  0  0  0  0
    0.2338   -1.3987    8.0631 H   0  0  0  0  0  0  0  0  0  0  0  0
    4.6603    0.9577    3.2672 H   0  0  0  0  0  0  0  0  0  0  0  0
    6.6823   -0.0453    3.4850 H   0  0  0  0  0  0  0  0  0  0  0  0
    3.8090   -0.7961    1.8557 H   0  0  0  0  0  0  0  0  0  0  0  0
    5.7644   -0.2419    1.1258 H   0  0  0  0  0  0  0  0  0  0  0  0
    5.1133   -2.6907    3.8286 H   0  0  0  0  0  0  0  0  0  0  0  0
    2.3282   -3.3561    1.1556 H   0  0  0  0  0  0  0  0  0  0  0  0
    3.4122   -4.3953    0.2557 H   0  0  0  0  0  0  0  0  0  0  0  0
    3.7485   -2.6862    0.3576 H   0  0  0  0  0  0  0  0  0  0  0  0
    4.5210   -8.3172    3.5915 H   0  0  0  0  0  0  0  0  0  0  0  0
    5.5029   -6.9121    3.9699 H   0  0  0  0  0  0  0  0  0  0  0  0
    6.0534   -8.0542    2.7617 H   0  0  0  0  0  0  0  0  0  0  0  0
    3.4967   -8.4752    0.9696 H   0  0  0  0  0  0  0  0  0  0  0  0
    5.1379   -8.0427    0.4473 H   0  0  0  0  0  0  0  0  0  0  0  0
    3.8135   -6.9780    0.0381 H   0  0  0  0  0  0  0  0  0  0  0  0
  1  2  1  0
  1 41  1  0
  1 42  1  0
  1 43  1  0
  2  3  2  0
  2  4  1  0
  4  5  1  0
  5 38  1  0
  5  6  1  0
  5 44  1  1
  6 33  1  0
  6  7  1  0
  6 45  1  1
  7  8  1  0
  7 46  1  0
  7 47  1  0
  8 32  1  0
  8  9  1  0
  8 48  1  6
  9 27  1  0
  9 10  2  0
 10 11  1  0
 10 28  1  0
 11 12  1  0
 11 13  1  0
 11 49  1  1
 12 50  1  0
 12 51  1  0
 12 52  1  0
 13 14  1  0
 13 15  1  0
 13 53  1  1
 14 54  1  0
 15 23  1  0
 15 16  1  1
 15 17  1  0
 16 55  1  0
 16 56  1  0
 16 57  1  0
 17 22  1  0
 17 18  1  0
 17 58  1  6
 18 19  1  0
 18 20  1  0
 18 59  1  1
 19 60  1  0
 19 61  1  0
 19 62  1  0
 20 21  1  0
 20 63  1  0
 20 64  1  0
 21 22  1  0
 21 65  1  0
 21 66  1  0
 22 23  1  0
 22 67  1  1
 23 24  1  1
 23 25  1  0
 24 68  1  0
 24 69  1  0
 24 70  1  0
 25 26  2  0
 25 27  1  0
 28 29  1  0
 28 30  1  0
 28 71  1  6
 29 72  1  0
 30 31  1  0
 30 32  1  0
 30 73  1  6
 31 74  1  0
 32 33  1  0
 32 75  1  1
 33 34  1  6
 33 35  1  0
 34 76  1  0
 34 77  1  0
 34 78  1  0
 35 36  2  0
 35 37  1  0
 37 38  1  0
 38 39  1  0
 38 40  1  0
 39 79  1  0
 39 80  1  0
 39 81  1  0
 40 82  1  0
 40 83  1  0
 40 84  1  0
M  END
>  <i_m_ct_stereo_status>  (166) 
1

>  <s_m_source_file>  (166) 
/var/tmp/pbs.5076255.sched01/tmpyrjfudeo/454urwji6r.sdf

>  <i_m_source_file_index>  (166) 
29

>  <i_lp_mmshare_version>  (166) 
48012

>  <i_f3d_flags>  (166) 
0

>  <s_epik_input>  (166) 
W0NIM11DKD1PKU9bQ0BIXTFDKFtDSDNdKShbQ0gzXSlPQyg9TylbQ0BAXTIoW0NIM10pW0NASF0xW0NIMl1bQ0BASF0zW0NAQEhdMltDQEhdKFtPSF0pW0NASF0oW09IXSlDKFtDQEBIXShbQ0gzXSlbQ0BIXTRbT0hdKT1DM09DKD1PKVtDQF01KFtDSDNdKVtDQEBIXShbQ0BASF02W0NAXTQ1W0NIM10pW0NIMl1bQ0gyXVtDQEBIXTZbQ0gzXQ==

>  <s_epik_cmdline>  (166) 
J2VwaWtfcHl0aG9uJywgJy1waHQnLCAnMi4wJywgJy1waCcsICc3LjAnLCAnLXRuJywgJzgnLCAnLW1hJywgJzIwMCcsICctaW1hZScsICc8aW5maWxlLm1hZT4nLCAnLW9tYWUnLCAnPG91dGZpbGUubWFlPic=

>  <r_lp_tautomer_probability>  (166) 
1

>  <r_epik_Ionization_Penalty>  (166) 
5.08552e-06

>  <r_epik_Ionization_Penalty_Charging>  (166) 
0

>  <r_epik_Ionization_Penalty_Neutral>  (166) 
5.08552e-06

>  <r_epik_State_Penalty>  (166) 
-0

>  <r_epik_Charging_Adjusted_Penalty>  (166) 
0

>  <i_epik_Tot_Q>  (166) 
0

>  <i_epik_Tot_abs_Q>  (166) 
0

>  <s_epik_Chemistry_Notes>  (166) 
This compound has an ester and may undergo hydrolysis at high or low pH.

>  <s_lp_Force_Field>  (166) 
OPLS3e

>  <r_lp_Energy>  (166) 
105.807

>  <b_lp_Chiralities_Consistent>  (166) 
1

>  <s_lp_Variant>  (166) 
41:0-1

>  <s_i_glide_gridfile>  (166) 
pfpi4k_grid

>  <i_i_glide_lignum>  (166) 
29

>  <i_i_glide_rotatable_bonds>  (166) 
5

>  <r_i_docking_score>  (166) 
-2.01993

>  <r_i_glide_ligand_efficiency>  (166) 
-0.0504981

>  <r_i_glide_ligand_efficiency_sa>  (166) 
-0.172701

>  <r_i_glide_ligand_efficiency_ln>  (166) 
-0.430791

>  <r_i_glide_gscore>  (166) 
-2.01993

>  <r_i_glide_lipo>  (166) 
-0.327581

>  <r_i_glide_hbond>  (166) 
-0.17153

>  <r_i_glide_metal>  (166) 
-0

>  <r_i_glide_rewards>  (166) 
-0.056472

>  <r_i_glide_evdw>  (166) 
-23.5784

>  <r_i_glide_ecoul>  (166) 
-1.92134

>  <r_i_glide_erotb>  (166) 
0.0661403

>  <r_i_glide_esite>  (166) 
-0.06336

>  <r_i_glide_emodel>  (166) 
-25.5257

>  <r_i_glide_energy>  (166) 
-25.4998

>  <r_i_glide_einternal>  (166) 
6.01275

>  <r_i_glide_intrahb_reward>  (166) 
-0

>  <i_i_glide_confnum>  (166) 
3

>  <i_i_glide_posenum>  (166) 
15

>  <r_i_glide_eff_state_penalty>  (166) 
0

>  <ligand_id>  (166) 
41

>  <original_smiles>  (166) 
CC(=O)OC1C2CC3C4=C(C(C)C(O)C5(C)C6C(C)CCC6C5(C)C(=O)O4)C(O)C(O)C3C2(C)C(=O)OC1(C)C

>  <smiles>  (166) 
[H]OC1([H])C2=C(OC(=O)C3(C([H])([H])[H])C4([H])C([H])([H])C([H])([H])C([H])(C([H])([H])[H])C4([H])C3(C([H])([H])[H])C([H])(O[H])C2([H])C([H])([H])[H])C2([H])C([H])([H])C3([H])C([H])(OC(=O)C([H])([H])[H])C(C([H])([H])[H])(C([H])([H])[H])OC(=O)C3(C([H])([H])[H])C2([H])C1([H])O[H]

$$$$
42:0:0
     RDKit          3D

 74 82  0  0  1  0  0  0  0  0999 V2000
    5.2858   -5.9370    0.8686 C   0  0  0  0  0  0  0  0  0  0  0  0
    5.6379   -4.4640    1.1611 C   0  0  0  0  0  0  0  0  0  0  0  0
    7.1572   -4.2821    1.2812 C   0  0  0  0  0  0  0  0  0  0  0  0
    5.1854   -3.6561    0.1327 O   0  0  0  0  0  0  0  0  0  0  0  0
    3.8642   -3.2542    0.4629 C   0  0  1  0  0  0  0  0  0  0  0  0
    3.7546   -3.6143    1.9719 C   0  0  1  0  0  0  0  0  0  0  0  0
    5.0485   -4.0529    2.3431 O   0  0  0  0  0  0  0  0  0  0  0  0
    3.3502   -2.2753    2.5950 C   0  0  1  0  0  0  0  0  0  0  0  0
    3.3856   -1.8464    4.0623 C   0  0  0  0  0  0  0  0  0  0  0  0
    3.4533   -0.2767    3.9691 C   0  0  1  0  0  0  0  0  0  0  0  0
    3.3197    0.0792    2.4549 C   0  0  2  0  0  0  0  0  0  0  0  0
    1.9091    0.5416    2.0042 C   0  0  1  0  0  0  0  0  0  0  0  0
    0.9849   -0.4793    1.7027 O   0  0  0  0  0  0  0  0  0  0  0  0
    1.3174    1.5401    3.0224 C   0  0  1  0  0  0  0  0  0  0  0  0
    0.0683    2.0189    2.5324 O   0  0  0  0  0  0  0  0  0  0  0  0
    1.2387    1.0896    4.5353 C   0  0  2  0  0  0  0  0  0  0  0  0
    0.6810    2.4147    5.2289 C   0  0  0  0  0  0  0  0  0  0  0  0
   -0.7525    2.4929    5.5092 O   0  0  0  0  0  0  0  0  0  0  0  0
   -1.3216    2.1405    6.7287 C   0  0  0  0  0  0  0  0  0  0  0  0
   -2.5119    2.2367    7.0172 O   0  0  0  0  0  0  0  0  0  0  0  0
   -0.2827    1.6235    7.7032 C   0  0  1  0  0  0  0  0  0  0  0  0
   -0.3205    1.3524    9.2052 C   0  0  1  0  0  0  0  0  0  0  0  0
   -0.2409    0.0034    9.7417 O   0  0  0  0  0  0  0  0  0  0  0  0
    1.0172    0.6530    9.4471 C   0  0  1  0  0  0  0  0  0  0  0  0
    1.6297    0.5089    8.0590 C   0  0  1  0  0  0  0  0  0  0  0  0
    2.8876   -0.2372    7.5987 C   0  0  1  0  0  0  0  0  0  0  0  0
    2.9007   -1.5096    8.2142 O   0  0  0  0  0  0  0  0  0  0  0  0
    2.9126   -0.3618    6.1682 O   0  0  0  0  0  0  0  0  0  0  0  0
    2.7290    0.6079    5.0619 C   0  0  1  0  0  0  0  0  0  0  0  0
    3.6308    1.8312    5.3903 C   0  0  0  0  0  0  0  0  0  0  0  0
    0.4441    0.4201    7.1808 C   0  0  1  0  0  0  0  0  0  0  0  0
   -0.5554   -0.6399    7.1816 O   0  0  0  0  0  0  0  0  0  0  0  0
    0.3307   -0.6539    6.0838 C   0  0  1  0  0  0  0  0  0  0  0  0
    0.1865   -0.0556    4.7249 C   0  0  0  0  0  0  0  0  0  0  0  0
    3.9843   -1.1582    1.7758 C   0  0  1  0  0  0  0  0  0  0  0  0
    5.5195   -1.0570    1.9352 C   0  0  0  0  0  0  0  0  0  0  0  0
    3.6549   -1.7054    0.3752 C   0  0  1  0  0  0  0  0  0  0  0  0
    4.2873   -1.0665   -0.7135 O   0  0  0  0  0  0  0  0  0  0  0  0
    4.2160   -6.0874    0.7499 H   0  0  0  0  0  0  0  0  0  0  0  0
    5.6464   -6.5707    1.6787 H   0  0  0  0  0  0  0  0  0  0  0  0
    5.7869   -6.2377   -0.0476 H   0  0  0  0  0  0  0  0  0  0  0  0
    7.3946   -3.2601    1.5730 H   0  0  0  0  0  0  0  0  0  0  0  0
    7.6437   -4.5038    0.3319 H   0  0  0  0  0  0  0  0  0  0  0  0
    7.5454   -4.9518    2.0529 H   0  0  0  0  0  0  0  0  0  0  0  0
    3.1463   -3.8071   -0.1407 H   0  0  0  0  0  0  0  0  0  0  0  0
    3.0170   -4.3996    2.1500 H   0  0  0  0  0  0  0  0  0  0  0  0
    2.2816   -2.2928    2.3991 H   0  0  0  0  0  0  0  0  0  0  0  0
    2.5098   -2.2236    4.5873 H   0  0  0  0  0  0  0  0  0  0  0  0
    4.2741   -2.2386    4.5589 H   0  0  0  0  0  0  0  0  0  0  0  0
    4.5096   -0.1104    4.1820 H   0  0  0  0  0  0  0  0  0  0  0  0
    3.9446    0.9464    2.2740 H   0  0  0  0  0  0  0  0  0  0  0  0
    2.0403    1.0779    1.0639 H   0  0  0  0  0  0  0  0  0  0  0  0
    0.9785   -0.6216    0.7415 H   0  0  0  0  0  0  0  0  0  0  0  0
    1.9781    2.4088    2.9869 H   0  0  0  0  0  0  0  0  0  0  0  0
    0.2133    2.6544    1.8355 H   0  0  0  0  0  0  0  0  0  0  0  0
    1.2811    2.6717    6.0949 H   0  0  0  0  0  0  0  0  0  0  0  0
    0.8943    3.2745    4.5923 H   0  0  0  0  0  0  0  0  0  0  0  0
    0.3623    2.5004    7.7144 H   0  0  0  0  0  0  0  0  0  0  0  0
   -0.6449    2.1409    9.8847 H   0  0  0  0  0  0  0  0  0  0  0  0
    1.6355    0.9624   10.2931 H   0  0  0  0  0  0  0  0  0  0  0  0
    2.0492    1.5046    7.8987 H   0  0  0  0  0  0  0  0  0  0  0  0
    3.7932    0.2749    7.9198 H   0  0  0  0  0  0  0  0  0  0  0  0
    3.7690   -1.8707    8.1402 H   0  0  0  0  0  0  0  0  0  0  0  0
    3.6378    2.5634    4.5829 H   0  0  0  0  0  0  0  0  0  0  0  0
    4.6657    1.5453    5.5763 H   0  0  0  0  0  0  0  0  0  0  0  0
    3.3150    2.3558    6.2897 H   0  0  0  0  0  0  0  0  0  0  0  0
    0.9317   -1.5559    6.1174 H   0  0  0  0  0  0  0  0  0  0  0  0
   -0.8445    0.2496    4.5498 H   0  0  0  0  0  0  0  0  0  0  0  0
    0.3824   -0.8683    4.0303 H   0  0  0  0  0  0  0  0  0  0  0  0
    5.8512   -0.0231    1.8419 H   0  0  0  0  0  0  0  0  0  0  0  0
    6.0445   -1.5966    1.1535 H   0  0  0  0  0  0  0  0  0  0  0  0
    5.8679   -1.4436    2.8914 H   0  0  0  0  0  0  0  0  0  0  0  0
    2.6132   -1.5658    0.1785 H   0  0  0  0  0  0  0  0  0  0  0  0
    3.6717   -1.0628   -1.4299 H   0  0  0  0  0  0  0  0  0  0  0  0
  1  2  1  0
  1 39  1  0
  1 40  1  0
  1 41  1  0
  2  7  1  0
  2  3  1  0
  2  4  1  0
  3 42  1  0
  3 43  1  0
  3 44  1  0
  4  5  1  0
  5 37  1  0
  5  6  1  0
  5 45  1  6
  6  7  1  0
  6  8  1  0
  6 46  1  6
  8 35  1  0
  8  9  1  0
  8 47  1  6
  9 10  1  0
  9 48  1  0
  9 49  1  0
 10 29  1  0
 10 11  1  0
 10 50  1  1
 11 12  1  0
 11 35  1  0
 11 51  1  1
 12 13  1  0
 12 14  1  0
 12 52  1  6
 13 53  1  0
 14 15  1  0
 14 16  1  0
 14 54  1  1
 15 55  1  0
 16 29  1  0
 16 34  1  0
 16 17  1  1
 17 18  1  0
 17 56  1  0
 17 57  1  0
 18 19  1  0
 19 20  2  0
 19 21  1  0
 21 31  1  0
 21 22  1  0
 21 58  1  1
 22 24  1  0
 22 23  1  0
 22 59  1  1
 23 24  1  0
 24 25  1  0
 24 60  1  1
 25 26  1  0
 25 31  1  0
 25 61  1  6
 26 27  1  0
 26 28  1  0
 26 62  1  1
 27 63  1  0
 28 29  1  0
 29 30  1  1
 30 64  1  0
 30 65  1  0
 30 66  1  0
 31 33  1  0
 31 32  1  1
 32 33  1  0
 33 34  1  0
 33 67  1  6
 34 68  1  0
 34 69  1  0
 35 36  1  6
 35 37  1  0
 36 70  1  0
 36 71  1  0
 36 72  1  0
 37 38  1  0
 37 73  1  6
 38 74  1  0
M  END
>  <i_m_ct_stereo_status>  (167) 
1

>  <s_m_source_file>  (167) 
/var/tmp/pbs.5076255.sched01/tmpyrjfudeo/454urwji6r.sdf

>  <i_m_source_file_index>  (167) 
30

>  <i_lp_mmshare_version>  (167) 
48012

>  <i_f3d_flags>  (167) 
0

>  <s_epik_input>  (167) 
W0NIM11DKE8xKShbQ0gzXSlPW0NASF0oW0NAQEhdMltPSF0pW0NAQEhdMVtDQEBIXShbQ0gyXTMpW0NAXTIoW0NIM10pW0NAQEhdKFtDQEBIXShbT0hdKVtDQEhdNFtPSF0pW0NASF0zW0NAXShbQ0BdNDU2KShbQ0gzXSlPW0NASF0oW09IXSlbQ0BIXTdbQ0BdOChbQ0BASF0oTzgpW0NIMl02KVtDQEhdKFtDQEBIXTlbQ0BIXTdPOSlDKD1PKU9bQ0gyXTU=

>  <s_epik_cmdline>  (167) 
J2VwaWtfcHl0aG9uJywgJy1waHQnLCAnMi4wJywgJy1waCcsICc3LjAnLCAnLXRuJywgJzgnLCAnLW1hJywgJzIwMCcsICctaW1hZScsICc8aW5maWxlLm1hZT4nLCAnLW9tYWUnLCAnPG91dGZpbGUubWFlPic=

>  <r_lp_tautomer_probability>  (167) 
1

>  <r_epik_Ionization_Penalty>  (167) 
9.47474e-07

>  <r_epik_Ionization_Penalty_Charging>  (167) 
0

>  <r_epik_Ionization_Penalty_Neutral>  (167) 
9.47474e-07

>  <r_epik_State_Penalty>  (167) 
-0

>  <r_epik_Charging_Adjusted_Penalty>  (167) 
0

>  <i_epik_Tot_Q>  (167) 
0

>  <i_epik_Tot_abs_Q>  (167) 
0

>  <s_epik_Chemistry_Notes>  (167) 
This compound has an ester and may undergo hydrolysis at high or low pH. This compound contains an acetal/aminal-like group ( X-CH(R)-Y where X, Y are N, S, or O) that may be acid/base labile, releasing an aldehyde.

>  <s_lp_Force_Field>  (167) 
OPLS3e

>  <r_lp_Energy>  (167) 
155.656

>  <b_lp_Chiralities_Consistent>  (167) 
1

>  <s_lp_Variant>  (167) 
42:0-1

>  <s_i_glide_gridfile>  (167) 
pfpi4k_grid

>  <i_i_glide_lignum>  (167) 
30

>  <i_i_glide_rotatable_bonds>  (167) 
4

>  <r_i_docking_score>  (167) 
-3.56506

>  <r_i_glide_ligand_efficiency>  (167) 
-0.0938173

>  <r_i_glide_ligand_efficiency_sa>  (167) 
-0.315412

>  <r_i_glide_ligand_efficiency_ln>  (167) 
-0.768731

>  <r_i_glide_gscore>  (167) 
-3.56506

>  <r_i_glide_lipo>  (167) 
-0.362159

>  <r_i_glide_hbond>  (167) 
-0.0342337

>  <r_i_glide_metal>  (167) 
-0

>  <r_i_glide_rewards>  (167) 
-0.0868238

>  <r_i_glide_evdw>  (167) 
-26.4575

>  <r_i_glide_ecoul>  (167) 
-11.6716

>  <r_i_glide_erotb>  (167) 
0

>  <r_i_glide_esite>  (167) 
-0.00822066

>  <r_i_glide_emodel>  (167) 
-46.6278

>  <r_i_glide_energy>  (167) 
-38.1292

>  <r_i_glide_einternal>  (167) 
3.3326

>  <r_i_glide_intrahb_reward>  (167) 
-0

>  <i_i_glide_confnum>  (167) 
2

>  <i_i_glide_posenum>  (167) 
36

>  <r_i_glide_eff_state_penalty>  (167) 
0

>  <ligand_id>  (167) 
42

>  <original_smiles>  (167) 
CC1(C)OC2C(O1)C1CC3C(C(O)C(O)C45COC(=O)C6C7OC7C(C(O)OC34C)C63OC3C5)C1(C)C2O

>  <smiles>  (167) 
[H]OC1([H])OC2(C([H])([H])[H])C3([H])C([H])([H])C4([H])C5([H])OC(C([H])([H])[H])(C([H])([H])[H])OC5([H])C([H])(O[H])C4(C([H])([H])[H])C3([H])C([H])(O[H])C([H])(O[H])C23C([H])([H])OC(=O)C2([H])C4([H])OC4([H])C1([H])C21OC1([H])C3([H])[H]

$$$$
42:0:1
     RDKit          3D

 74 82  0  0  1  0  0  0  0  0999 V2000
    2.4341   -9.1380    2.2475 C   0  0  0  0  0  0  0  0  0  0  0  0
    3.3976   -8.0290    2.7275 C   0  0  0  0  0  0  0  0  0  0  0  0
    4.5035   -8.6102    3.6214 C   0  0  0  0  0  0  0  0  0  0  0  0
    3.9831   -7.3973    1.6379 O   0  0  0  0  0  0  0  0  0  0  0  0
    3.1469   -6.3076    1.2722 C   0  0  1  0  0  0  0  0  0  0  0  0
    2.2249   -6.1491    2.5066 C   0  0  1  0  0  0  0  0  0  0  0  0
    2.7082   -7.0760    3.4559 O   0  0  0  0  0  0  0  0  0  0  0  0
    2.4510   -4.6831    2.8826 C   0  0  1  0  0  0  0  0  0  0  0  0
    2.0954   -3.9586    4.1772 C   0  0  0  0  0  0  0  0  0  0  0  0
    3.0821   -2.7357    4.1814 C   0  0  1  0  0  0  0  0  0  0  0  0
    3.8497   -2.7752    2.8184 C   0  0  2  0  0  0  0  0  0  0  0  0
    3.3240   -1.7997    1.7308 C   0  0  1  0  0  0  0  0  0  0  0  0
    2.2171   -2.2566    0.9839 O   0  0  0  0  0  0  0  0  0  0  0  0
    3.0253   -0.4246    2.3410 C   0  0  1  0  0  0  0  0  0  0  0  0
    2.6366    0.4446    1.2845 O   0  0  0  0  0  0  0  0  0  0  0  0
    2.0809   -0.3381    3.6013 C   0  0  2  0  0  0  0  0  0  0  0  0
    2.1623    1.2126    3.9570 C   0  0  0  0  0  0  0  0  0  0  0  0
    1.0821    2.0769    3.4779 O   0  0  0  0  0  0  0  0  0  0  0  0
   -0.0357    2.4113    4.2356 C   0  0  0  0  0  0  0  0  0  0  0  0
   -0.9234    3.1965    3.9066 O   0  0  0  0  0  0  0  0  0  0  0  0
   -0.0293    1.7157    5.5796 C   0  0  1  0  0  0  0  0  0  0  0  0
   -0.8535    1.9297    6.8480 C   0  0  1  0  0  0  0  0  0  0  0  0
   -1.8021    0.9438    7.3151 O   0  0  0  0  0  0  0  0  0  0  0  0
   -0.4281    0.7448    7.7137 C   0  0  1  0  0  0  0  0  0  0  0  0
    0.5143   -0.0701    6.8226 C   0  0  1  0  0  0  0  0  0  0  0  0
    1.1501   -1.4487    7.0324 C   0  0  1  0  0  0  0  0  0  0  0  0
    0.1692   -2.3317    7.5252 O   0  0  0  0  0  0  0  0  0  0  0  0
    1.7144   -1.9406    5.8086 O   0  0  0  0  0  0  0  0  0  0  0  0
    2.6188   -1.3508    4.7899 C   0  0  1  0  0  0  0  0  0  0  0  0
    3.8109   -0.7240    5.5663 C   0  0  0  0  0  0  0  0  0  0  0  0
   -0.0014    0.2188    5.4650 C   0  0  1  0  0  0  0  0  0  0  0  0
   -1.3026   -0.1521    4.9499 O   0  0  0  0  0  0  0  0  0  0  0  0
   -0.2225   -0.8903    4.4353 C   0  0  1  0  0  0  0  0  0  0  0  0
    0.6144   -0.6835    3.2087 C   0  0  0  0  0  0  0  0  0  0  0  0
    3.8809   -4.3074    2.5156 C   0  0  1  0  0  0  0  0  0  0  0  0
    4.9469   -4.9720    3.4315 C   0  0  0  0  0  0  0  0  0  0  0  0
    3.9091   -4.9483    1.1065 C   0  0  1  0  0  0  0  0  0  0  0  0
    5.1894   -5.0761    0.5242 O   0  0  0  0  0  0  0  0  0  0  0  0
    1.6483   -8.7504    1.6019 H   0  0  0  0  0  0  0  0  0  0  0  0
    1.9702   -9.6195    3.1076 H   0  0  0  0  0  0  0  0  0  0  0  0
    2.9920   -9.8972    1.7007 H   0  0  0  0  0  0  0  0  0  0  0  0
    5.1357   -7.8205    4.0277 H   0  0  0  0  0  0  0  0  0  0  0  0
    5.1236   -9.2953    3.0416 H   0  0  0  0  0  0  0  0  0  0  0  0
    4.0585   -9.1549    4.4564 H   0  0  0  0  0  0  0  0  0  0  0  0
    2.5768   -6.5641    0.3816 H   0  0  0  0  0  0  0  0  0  0  0  0
    1.1853   -6.3695    2.2623 H   0  0  0  0  0  0  0  0  0  0  0  0
    1.7827   -4.2047    2.1763 H   0  0  0  0  0  0  0  0  0  0  0  0
    1.0414   -3.6825    4.1779 H   0  0  0  0  0  0  0  0  0  0  0  0
    2.2756   -4.6001    5.0389 H   0  0  0  0  0  0  0  0  0  0  0  0
    3.8234   -3.0841    4.9017 H   0  0  0  0  0  0  0  0  0  0  0  0
    4.8652   -2.4301    3.0081 H   0  0  0  0  0  0  0  0  0  0  0  0
    4.1244   -1.6813    1.0018 H   0  0  0  0  0  0  0  0  0  0  0  0
    1.9542   -1.6377    0.2972 H   0  0  0  0  0  0  0  0  0  0  0  0
    3.9960   -0.0541    2.6599 H   0  0  0  0  0  0  0  0  0  0  0  0
    1.8568    0.1217    0.8596 H   0  0  0  0  0  0  0  0  0  0  0  0
    2.3577    1.3524    5.0137 H   0  0  0  0  0  0  0  0  0  0  0  0
    3.0751    1.6351    3.5387 H   0  0  0  0  0  0  0  0  0  0  0  0
    0.9188    2.1057    5.9385 H   0  0  0  0  0  0  0  0  0  0  0  0
   -0.9011    2.9239    7.2914 H   0  0  0  0  0  0  0  0  0  0  0  0
   -0.1758    0.9079    8.7635 H   0  0  0  0  0  0  0  0  0  0  0  0
    1.4453    0.4871    6.9196 H   0  0  0  0  0  0  0  0  0  0  0  0
    1.9422   -1.4095    7.7813 H   0  0  0  0  0  0  0  0  0  0  0  0
    0.5974   -3.1572    7.7130 H   0  0  0  0  0  0  0  0  0  0  0  0
    4.5799   -0.3449    4.8947 H   0  0  0  0  0  0  0  0  0  0  0  0
    4.2907   -1.4371    6.2391 H   0  0  0  0  0  0  0  0  0  0  0  0
    3.5092    0.1063    6.2004 H   0  0  0  0  0  0  0  0  0  0  0  0
   -0.3251   -1.9345    4.7258 H   0  0  0  0  0  0  0  0  0  0  0  0
    0.1417    0.0408    2.5445 H   0  0  0  0  0  0  0  0  0  0  0  0
    0.6017   -1.6333    2.6871 H   0  0  0  0  0  0  0  0  0  0  0  0
    5.8169   -4.3308    3.5628 H   0  0  0  0  0  0  0  0  0  0  0  0
    5.3315   -5.8927    3.0066 H   0  0  0  0  0  0  0  0  0  0  0  0
    4.5566   -5.2117    4.4206 H   0  0  0  0  0  0  0  0  0  0  0  0
    3.3317   -4.3528    0.4032 H   0  0  0  0  0  0  0  0  0  0  0  0
    5.0841   -5.4507   -0.3392 H   0  0  0  0  0  0  0  0  0  0  0  0
  1  2  1  0
  1 39  1  0
  1 40  1  0
  1 41  1  0
  2  7  1  0
  2  3  1  0
  2  4  1  0
  3 42  1  0
  3 43  1  0
  3 44  1  0
  4  5  1  0
  5 37  1  0
  5  6  1  0
  5 45  1  6
  6  7  1  0
  6  8  1  0
  6 46  1  6
  8 35  1  0
  8  9  1  0
  8 47  1  6
  9 10  1  0
  9 48  1  0
  9 49  1  0
 10 29  1  0
 10 11  1  0
 10 50  1  1
 11 12  1  0
 11 35  1  0
 11 51  1  1
 12 13  1  0
 12 14  1  0
 12 52  1  6
 13 53  1  0
 14 15  1  0
 14 16  1  0
 14 54  1  1
 15 55  1  0
 16 29  1  0
 16 34  1  0
 16 17  1  1
 17 18  1  0
 17 56  1  0
 17 57  1  0
 18 19  1  0
 19 20  2  0
 19 21  1  0
 21 31  1  0
 21 22  1  0
 21 58  1  1
 22 24  1  0
 22 23  1  0
 22 59  1  1
 23 24  1  0
 24 25  1  0
 24 60  1  1
 25 26  1  0
 25 31  1  0
 25 61  1  6
 26 27  1  0
 26 28  1  0
 26 62  1  1
 27 63  1  0
 28 29  1  0
 29 30  1  1
 30 64  1  0
 30 65  1  0
 30 66  1  0
 31 33  1  0
 31 32  1  1
 32 33  1  0
 33 34  1  0
 33 67  1  1
 34 68  1  0
 34 69  1  0
 35 36  1  1
 35 37  1  0
 36 70  1  0
 36 71  1  0
 36 72  1  0
 37 38  1  0
 37 73  1  6
 38 74  1  0
M  END
>  <i_m_ct_stereo_status>  (168) 
1

>  <s_m_source_file>  (168) 
/var/tmp/pbs.5076255.sched01/tmpyrjfudeo/454urwji6r.sdf

>  <i_m_source_file_index>  (168) 
30

>  <i_lp_mmshare_version>  (168) 
48012

>  <i_f3d_flags>  (168) 
0

>  <s_epik_input>  (168) 
W0NIM11DKE8xKShbQ0gzXSlPW0NASF0oW0NAQEhdMltPSF0pW0NAQEhdMVtDQEBIXShbQ0gyXTMpW0NAXTIoW0NIM10pW0NAQEhdKFtDQEBIXShbT0hdKVtDQEhdNFtPSF0pW0NASF0zW0NAXShbQ0BdNDU2KShbQ0gzXSlPW0NASF0oW09IXSlbQ0BIXTdbQ0BdOChbQ0BASF0oTzgpW0NIMl02KVtDQEhdKFtDQEBIXTlbQ0BIXTdPOSlDKD1PKU9bQ0gyXTU=

>  <s_epik_cmdline>  (168) 
J2VwaWtfcHl0aG9uJywgJy1waHQnLCAnMi4wJywgJy1waCcsICc3LjAnLCAnLXRuJywgJzgnLCAnLW1hJywgJzIwMCcsICctaW1hZScsICc8aW5maWxlLm1hZT4nLCAnLW9tYWUnLCAnPG91dGZpbGUubWFlPic=

>  <r_lp_tautomer_probability>  (168) 
1

>  <r_epik_Ionization_Penalty>  (168) 
9.47474e-07

>  <r_epik_Ionization_Penalty_Charging>  (168) 
0

>  <r_epik_Ionization_Penalty_Neutral>  (168) 
9.47474e-07

>  <r_epik_State_Penalty>  (168) 
-0

>  <r_epik_Charging_Adjusted_Penalty>  (168) 
0

>  <i_epik_Tot_Q>  (168) 
0

>  <i_epik_Tot_abs_Q>  (168) 
0

>  <s_epik_Chemistry_Notes>  (168) 
This compound has an ester and may undergo hydrolysis at high or low pH. This compound contains an acetal/aminal-like group ( X-CH(R)-Y where X, Y are N, S, or O) that may be acid/base labile, releasing an aldehyde.

>  <s_lp_Force_Field>  (168) 
OPLS3e

>  <r_lp_Energy>  (168) 
155.656

>  <b_lp_Chiralities_Consistent>  (168) 
1

>  <s_lp_Variant>  (168) 
42:0-1

>  <s_i_glide_gridfile>  (168) 
pfpi4k_grid

>  <i_i_glide_lignum>  (168) 
30

>  <i_i_glide_rotatable_bonds>  (168) 
4

>  <r_i_docking_score>  (168) 
-3.00513

>  <r_i_glide_ligand_efficiency>  (168) 
-0.0790823

>  <r_i_glide_ligand_efficiency_sa>  (168) 
-0.265873

>  <r_i_glide_ligand_efficiency_ln>  (168) 
-0.647993

>  <r_i_glide_gscore>  (168) 
-3.00513

>  <r_i_glide_lipo>  (168) 
-0.0694398

>  <r_i_glide_hbond>  (168) 
-0.16

>  <r_i_glide_metal>  (168) 
-0

>  <r_i_glide_rewards>  (168) 
0

>  <r_i_glide_evdw>  (168) 
-27.0155

>  <r_i_glide_ecoul>  (168) 
-9.2687

>  <r_i_glide_erotb>  (168) 
0

>  <r_i_glide_esite>  (168) 
-0.0346042

>  <r_i_glide_emodel>  (168) 
-44.6188

>  <r_i_glide_energy>  (168) 
-36.2842

>  <r_i_glide_einternal>  (168) 
1.24646

>  <r_i_glide_intrahb_reward>  (168) 
-0

>  <i_i_glide_confnum>  (168) 
2

>  <i_i_glide_posenum>  (168) 
7

>  <r_i_glide_eff_state_penalty>  (168) 
0

>  <ligand_id>  (168) 
42

>  <original_smiles>  (168) 
CC1(C)OC2C(O1)C1CC3C(C(O)C(O)C45COC(=O)C6C7OC7C(C(O)OC34C)C63OC3C5)C1(C)C2O

>  <smiles>  (168) 
[H]OC1([H])OC2(C([H])([H])[H])C3([H])C([H])([H])C4([H])C5([H])OC(C([H])([H])[H])(C([H])([H])[H])OC5([H])C([H])(O[H])C4(C([H])([H])[H])C3([H])C([H])(O[H])C([H])(O[H])C23C([H])([H])OC(=O)C2([H])C4([H])OC4([H])C1([H])C21OC1([H])C3([H])[H]

$$$$
42:0:2
     RDKit          3D

 74 82  0  0  1  0  0  0  0  0999 V2000
    3.4604   -6.7523    1.1484 C   0  0  0  0  0  0  0  0  0  0  0  0
    4.2142   -5.6435    1.9173 C   0  0  0  0  0  0  0  0  0  0  0  0
    5.3372   -6.2402    2.7726 C   0  0  0  0  0  0  0  0  0  0  0  0
    4.7628   -4.7243    1.0282 O   0  0  0  0  0  0  0  0  0  0  0  0
    3.7857   -3.7174    0.7928 C   0  0  1  0  0  0  0  0  0  0  0  0
    2.7820   -3.9485    1.9547 C   0  0  1  0  0  0  0  0  0  0  0  0
    3.3438   -4.9696    2.7550 O   0  0  0  0  0  0  0  0  0  0  0  0
    2.7260   -2.5711    2.6170 C   0  0  1  0  0  0  0  0  0  0  0  0
    2.1972   -2.1947    3.9990 C   0  0  0  0  0  0  0  0  0  0  0  0
    2.9810   -0.8750    4.3415 C   0  0  1  0  0  0  0  0  0  0  0  0
    3.8159   -0.5223    3.0719 C   0  0  2  0  0  0  0  0  0  0  0  0
    3.1898    0.5661    2.1738 C   0  0  1  0  0  0  0  0  0  0  0  0
    2.2181    0.1537    1.2549 O   0  0  0  0  0  0  0  0  0  0  0  0
    2.6577    1.7396    3.0056 C   0  0  1  0  0  0  0  0  0  0  0  0
    2.2173    2.7824    2.1526 O   0  0  0  0  0  0  0  0  0  0  0  0
    1.6435    1.4225    4.1567 C   0  0  2  0  0  0  0  0  0  0  0  0
    1.4890    2.8630    4.8137 C   0  0  0  0  0  0  0  0  0  0  0  0
    0.3384    3.6486    4.4005 O   0  0  0  0  0  0  0  0  0  0  0  0
   -0.8586    3.6567    5.0831 C   0  0  0  0  0  0  0  0  0  0  0  0
   -1.8217    4.3446    4.7814 O   0  0  0  0  0  0  0  0  0  0  0  0
   -0.8476    2.7220    6.2774 C   0  0  1  0  0  0  0  0  0  0  0  0
   -1.7825    2.5576    7.4750 C   0  0  1  0  0  0  0  0  0  0  0  0
   -2.5679    1.3558    7.6642 O   0  0  0  0  0  0  0  0  0  0  0  0
   -1.2110    1.3080    8.1381 C   0  0  1  0  0  0  0  0  0  0  0  0
   -0.1061    0.8198    7.1975 C   0  0  1  0  0  0  0  0  0  0  0  0
    0.7058   -0.4784    7.1865 C   0  0  1  0  0  0  0  0  0  0  0  0
   -0.1572   -1.5753    7.3602 O   0  0  0  0  0  0  0  0  0  0  0  0
    1.4179   -0.6315    5.9548 O   0  0  0  0  0  0  0  0  0  0  0  0
    2.2736    0.2782    5.1600 C   0  0  1  0  0  0  0  0  0  0  0  0
    3.3055    0.8985    6.1412 C   0  0  0  0  0  0  0  0  0  0  0  0
   -0.5871    1.2984    5.8818 C   0  0  1  0  0  0  0  0  0  0  0  0
   -1.7839    0.8540    5.2055 O   0  0  0  0  0  0  0  0  0  0  0  0
   -0.5883    0.3958    4.6398 C   0  0  1  0  0  0  0  0  0  0  0  0
    0.2671    0.9663    3.5575 C   0  0  0  0  0  0  0  0  0  0  0  0
    4.0939   -1.9344    2.4650 C   0  0  1  0  0  0  0  0  0  0  0  0
    5.1817   -2.6255    3.3244 C   0  0  0  0  0  0  0  0  0  0  0  0
    4.3195   -2.2516    0.9651 C   0  0  1  0  0  0  0  0  0  0  0  0
    5.6462   -2.0769    0.5038 O   0  0  0  0  0  0  0  0  0  0  0  0
    2.6640   -6.3501    0.5229 H   0  0  0  0  0  0  0  0  0  0  0  0
    3.0232   -7.4635    1.8526 H   0  0  0  0  0  0  0  0  0  0  0  0
    4.1594   -7.2974    0.5120 H   0  0  0  0  0  0  0  0  0  0  0  0
    5.8132   -5.4711    3.3794 H   0  0  0  0  0  0  0  0  0  0  0  0
    6.0878   -6.6972    2.1263 H   0  0  0  0  0  0  0  0  0  0  0  0
    4.9311   -7.0021    3.4416 H   0  0  0  0  0  0  0  0  0  0  0  0
    3.3207   -3.8710   -0.1815 H   0  0  0  0  0  0  0  0  0  0  0  0
    1.8138   -4.2763    1.5767 H   0  0  0  0  0  0  0  0  0  0  0  0
    2.0310   -2.0670    1.9553 H   0  0  0  0  0  0  0  0  0  0  0  0
    1.1135   -2.0726    3.9646 H   0  0  0  0  0  0  0  0  0  0  0  0
    2.4238   -2.9692    4.7361 H   0  0  0  0  0  0  0  0  0  0  0  0
    3.7253   -1.2539    5.0430 H   0  0  0  0  0  0  0  0  0  0  0  0
    4.7545   -0.0802    3.4069 H   0  0  0  0  0  0  0  0  0  0  0  0
    3.9934    0.9369    1.5392 H   0  0  0  0  0  0  0  0  0  0  0  0
    1.4168   -0.0842    1.6858 H   0  0  0  0  0  0  0  0  0  0  0  0
    3.5470    2.1541    3.4763 H   0  0  0  0  0  0  0  0  0  0  0  0
    1.3673    2.5877    1.7792 H   0  0  0  0  0  0  0  0  0  0  0  0
    1.5909    2.8171    5.8911 H   0  0  0  0  0  0  0  0  0  0  0  0
    2.3434    3.4903    4.5592 H   0  0  0  0  0  0  0  0  0  0  0  0
   -0.0010    3.1611    6.8033 H   0  0  0  0  0  0  0  0  0  0  0  0
   -2.0168    3.4140    8.1010 H   0  0  0  0  0  0  0  0  0  0  0  0
   -1.0665    1.2782    9.2162 H   0  0  0  0  0  0  0  0  0  0  0  0
    0.7287    1.4616    7.4848 H   0  0  0  0  0  0  0  0  0  0  0  0
    1.4245   -0.5069    8.0094 H   0  0  0  0  0  0  0  0  0  0  0  0
   -0.5685   -1.7307    6.5238 H   0  0  0  0  0  0  0  0  0  0  0  0
    4.0435    1.5111    5.6224 H   0  0  0  0  0  0  0  0  0  0  0  0
    3.8520    0.1395    6.7011 H   0  0  0  0  0  0  0  0  0  0  0  0
    2.8446    1.5318    6.8952 H   0  0  0  0  0  0  0  0  0  0  0  0
   -0.5367   -0.6865    4.7086 H   0  0  0  0  0  0  0  0  0  0  0  0
   -0.2689    1.7416    3.0090 H   0  0  0  0  0  0  0  0  0  0  0  0
    0.4022    0.1499    2.8595 H   0  0  0  0  0  0  0  0  0  0  0  0
    5.9001   -1.8840    3.6550 H   0  0  0  0  0  0  0  0  0  0  0  0
    5.7550   -3.3680    2.7768 H   0  0  0  0  0  0  0  0  0  0  0  0
    4.7862   -3.1127    4.2160 H   0  0  0  0  0  0  0  0  0  0  0  0
    3.6990   -1.6085    0.3442 H   0  0  0  0  0  0  0  0  0  0  0  0
    6.1990   -2.6614    0.9989 H   0  0  0  0  0  0  0  0  0  0  0  0
  1  2  1  0
  1 39  1  0
  1 40  1  0
  1 41  1  0
  2  7  1  0
  2  3  1  0
  2  4  1  0
  3 42  1  0
  3 43  1  0
  3 44  1  0
  4  5  1  0
  5 37  1  0
  5  6  1  0
  5 45  1  6
  6  7  1  0
  6  8  1  0
  6 46  1  6
  8 35  1  0
  8  9  1  0
  8 47  1  6
  9 10  1  0
  9 48  1  0
  9 49  1  0
 10 29  1  0
 10 11  1  0
 10 50  1  1
 11 12  1  0
 11 35  1  0
 11 51  1  1
 12 13  1  0
 12 14  1  0
 12 52  1  6
 13 53  1  0
 14 15  1  0
 14 16  1  0
 14 54  1  1
 15 55  1  0
 16 29  1  0
 16 34  1  0
 16 17  1  1
 17 18  1  0
 17 56  1  0
 17 57  1  0
 18 19  1  0
 19 20  2  0
 19 21  1  0
 21 31  1  0
 21 22  1  0
 21 58  1  1
 22 24  1  0
 22 23  1  0
 22 59  1  1
 23 24  1  0
 24 25  1  0
 24 60  1  1
 25 26  1  0
 25 31  1  0
 25 61  1  1
 26 27  1  0
 26 28  1  0
 26 62  1  1
 27 63  1  0
 28 29  1  0
 29 30  1  1
 30 64  1  0
 30 65  1  0
 30 66  1  0
 31 33  1  0
 31 32  1  1
 32 33  1  0
 33 34  1  0
 33 67  1  1
 34 68  1  0
 34 69  1  0
 35 36  1  1
 35 37  1  0
 36 70  1  0
 36 71  1  0
 36 72  1  0
 37 38  1  0
 37 73  1  6
 38 74  1  0
M  END
>  <i_m_ct_stereo_status>  (169) 
1

>  <s_m_source_file>  (169) 
/var/tmp/pbs.5076255.sched01/tmpyrjfudeo/454urwji6r.sdf

>  <i_m_source_file_index>  (169) 
30

>  <i_lp_mmshare_version>  (169) 
48012

>  <i_f3d_flags>  (169) 
0

>  <s_epik_input>  (169) 
W0NIM11DKE8xKShbQ0gzXSlPW0NASF0oW0NAQEhdMltPSF0pW0NAQEhdMVtDQEBIXShbQ0gyXTMpW0NAXTIoW0NIM10pW0NAQEhdKFtDQEBIXShbT0hdKVtDQEhdNFtPSF0pW0NASF0zW0NAXShbQ0BdNDU2KShbQ0gzXSlPW0NASF0oW09IXSlbQ0BIXTdbQ0BdOChbQ0BASF0oTzgpW0NIMl02KVtDQEhdKFtDQEBIXTlbQ0BIXTdPOSlDKD1PKU9bQ0gyXTU=

>  <s_epik_cmdline>  (169) 
J2VwaWtfcHl0aG9uJywgJy1waHQnLCAnMi4wJywgJy1waCcsICc3LjAnLCAnLXRuJywgJzgnLCAnLW1hJywgJzIwMCcsICctaW1hZScsICc8aW5maWxlLm1hZT4nLCAnLW9tYWUnLCAnPG91dGZpbGUubWFlPic=

>  <r_lp_tautomer_probability>  (169) 
1

>  <r_epik_Ionization_Penalty>  (169) 
9.47474e-07

>  <r_epik_Ionization_Penalty_Charging>  (169) 
0

>  <r_epik_Ionization_Penalty_Neutral>  (169) 
9.47474e-07

>  <r_epik_State_Penalty>  (169) 
-0

>  <r_epik_Charging_Adjusted_Penalty>  (169) 
0

>  <i_epik_Tot_Q>  (169) 
0

>  <i_epik_Tot_abs_Q>  (169) 
0

>  <s_epik_Chemistry_Notes>  (169) 
This compound has an ester and may undergo hydrolysis at high or low pH. This compound contains an acetal/aminal-like group ( X-CH(R)-Y where X, Y are N, S, or O) that may be acid/base labile, releasing an aldehyde.

>  <s_lp_Force_Field>  (169) 
OPLS3e

>  <r_lp_Energy>  (169) 
155.656

>  <b_lp_Chiralities_Consistent>  (169) 
1

>  <s_lp_Variant>  (169) 
42:0-1

>  <s_i_glide_gridfile>  (169) 
pfpi4k_grid

>  <i_i_glide_lignum>  (169) 
30

>  <i_i_glide_rotatable_bonds>  (169) 
4

>  <r_i_docking_score>  (169) 
-2.68773

>  <r_i_glide_ligand_efficiency>  (169) 
-0.0707296

>  <r_i_glide_ligand_efficiency_sa>  (169) 
-0.237791

>  <r_i_glide_ligand_efficiency_ln>  (169) 
-0.579553

>  <r_i_glide_gscore>  (169) 
-2.68773

>  <r_i_glide_lipo>  (169) 
-0.250326

>  <r_i_glide_hbond>  (169) 
-0.170714

>  <r_i_glide_metal>  (169) 
-0

>  <r_i_glide_rewards>  (169) 
-0.0246719

>  <r_i_glide_evdw>  (169) 
-24.4666

>  <r_i_glide_ecoul>  (169) 
-6.53012

>  <r_i_glide_erotb>  (169) 
0

>  <r_i_glide_esite>  (169) 
-0.0391667

>  <r_i_glide_emodel>  (169) 
-38.4017

>  <r_i_glide_energy>  (169) 
-30.9967

>  <r_i_glide_einternal>  (169) 
0.821421

>  <r_i_glide_intrahb_reward>  (169) 
-0

>  <i_i_glide_confnum>  (169) 
2

>  <i_i_glide_posenum>  (169) 
1

>  <r_i_glide_eff_state_penalty>  (169) 
0

>  <ligand_id>  (169) 
42

>  <original_smiles>  (169) 
CC1(C)OC2C(O1)C1CC3C(C(O)C(O)C45COC(=O)C6C7OC7C(C(O)OC34C)C63OC3C5)C1(C)C2O

>  <smiles>  (169) 
[H]OC1([H])OC2(C([H])([H])[H])C3([H])C([H])([H])C4([H])C5([H])OC(C([H])([H])[H])(C([H])([H])[H])OC5([H])C([H])(O[H])C4(C([H])([H])[H])C3([H])C([H])(O[H])C([H])(O[H])C23C([H])([H])OC(=O)C2([H])C4([H])OC4([H])C1([H])C21OC1([H])C3([H])[H]

$$$$
43:0:0
     RDKit          3D

 49 54  0  0  1  0  0  0  0  0999 V2000
    2.9184   -3.5581    4.4037 C   0  0  0  0  0  0  0  0  0  0  0  0
    3.8235   -2.8645    3.6993 C   0  0  0  0  0  0  0  0  0  0  0  0
    3.9037   -1.3514    3.6933 C   0  0  1  0  0  0  0  0  0  0  0  0
    4.9935   -0.9452    4.5013 O   0  0  0  0  0  0  0  0  0  0  0  0
    4.1296   -1.0497    2.2082 C   0  0  1  0  0  0  0  0  0  0  0  0
    5.4037   -0.4234    1.6628 C   0  0  0  0  0  0  0  0  0  0  0  0
    5.9329   -1.7142    1.2887 O   0  0  0  0  0  0  0  0  0  0  0  0
    4.6418   -2.3247    1.5473 C   0  0  2  0  0  0  0  0  0  0  0  0
    3.9811   -2.8335    0.2660 C   0  0  2  0  0  0  0  0  0  0  0  0
    4.6970   -4.0467   -0.2572 C   0  0  0  0  0  0  0  0  0  0  0  0
    4.9405   -3.9491   -1.5756 C   0  0  0  0  0  0  0  0  0  0  0  0
    4.4901   -2.6465   -2.1225 C   0  0  2  0  0  0  0  0  0  0  0  0
    3.7423   -2.6349   -3.4442 C   0  0  0  0  0  0  0  0  0  0  0  0
    5.1990   -1.4069   -1.6583 C   0  0  0  0  0  0  0  0  0  0  0  0
    3.9571   -1.8861   -0.9314 C   0  0  2  0  0  0  0  0  0  0  0  0
    4.9891   -5.2014    0.7041 C   0  0  1  0  0  0  0  0  0  0  0  0
    4.2387   -6.4480    0.1871 C   0  0  0  0  0  0  0  0  0  0  0  0
    6.4858   -5.5662    0.8801 C   0  0  1  0  0  0  0  0  0  0  0  0
    7.3369   -4.4389    0.9449 O   0  0  0  0  0  0  0  0  0  0  0  0
    6.5523   -6.3033    2.2264 C   0  0  0  0  0  0  0  0  0  0  0  0
    5.3201   -5.8657    3.0356 C   0  0  0  0  0  0  0  0  0  0  0  0
    4.5251   -4.8802    2.1560 C   0  0  1  0  0  0  0  0  0  0  0  0
    4.7597   -3.4060    2.6225 C   0  0  2  0  0  0  0  0  0  0  0  0
    2.8289   -4.6337    4.3220 H   0  0  0  0  0  0  0  0  0  0  0  0
    2.2464   -3.0376    5.0744 H   0  0  0  0  0  0  0  0  0  0  0  0
    2.9884   -0.8965    4.0838 H   0  0  0  0  0  0  0  0  0  0  0  0
    5.1165   -0.0156    4.4044 H   0  0  0  0  0  0  0  0  0  0  0  0
    3.2460   -0.6777    1.6872 H   0  0  0  0  0  0  0  0  0  0  0  0
    5.2126    0.2091    0.7925 H   0  0  0  0  0  0  0  0  0  0  0  0
    6.0147    0.0958    2.3965 H   0  0  0  0  0  0  0  0  0  0  0  0
    2.9505   -3.1328    0.4701 H   0  0  0  0  0  0  0  0  0  0  0  0
    5.3967   -4.6959   -2.2005 H   0  0  0  0  0  0  0  0  0  0  0  0
    3.3262   -1.6423   -3.6355 H   0  0  0  0  0  0  0  0  0  0  0  0
    2.9205   -3.3512   -3.4312 H   0  0  0  0  0  0  0  0  0  0  0  0
    4.4167   -2.8886   -4.2616 H   0  0  0  0  0  0  0  0  0  0  0  0
    6.1665   -1.5505   -1.1869 H   0  0  0  0  0  0  0  0  0  0  0  0
    5.0947   -0.4951   -2.2458 H   0  0  0  0  0  0  0  0  0  0  0  0
    3.0512   -1.2921   -1.0495 H   0  0  0  0  0  0  0  0  0  0  0  0
    4.3485   -7.3038    0.8502 H   0  0  0  0  0  0  0  0  0  0  0  0
    4.6139   -6.7513   -0.7904 H   0  0  0  0  0  0  0  0  0  0  0  0
    3.1718   -6.2495    0.0803 H   0  0  0  0  0  0  0  0  0  0  0  0
    6.8559   -6.1999    0.0792 H   0  0  0  0  0  0  0  0  0  0  0  0
    7.0121   -3.8563    1.6144 H   0  0  0  0  0  0  0  0  0  0  0  0
    6.4995   -7.3800    2.0618 H   0  0  0  0  0  0  0  0  0  0  0  0
    7.4830   -6.1241    2.7651 H   0  0  0  0  0  0  0  0  0  0  0  0
    4.7075   -6.7399    3.2570 H   0  0  0  0  0  0  0  0  0  0  0  0
    5.5978   -5.4353    3.9969 H   0  0  0  0  0  0  0  0  0  0  0  0
    3.4570   -5.0956    2.2158 H   0  0  0  0  0  0  0  0  0  0  0  0
    5.7574   -3.3386    3.0530 H   0  0  0  0  0  0  0  0  0  0  0  0
  1  2  2  0
  1 24  1  0
  1 25  1  0
  2 23  1  0
  2  3  1  0
  3  4  1  0
  3  5  1  0
  3 26  1  1
  4 27  1  0
  5  8  1  0
  5  6  1  0
  5 28  1  6
  6  7  1  0
  6 29  1  0
  6 30  1  0
  8  7  1  6
  8 23  1  0
  8  9  1  0
  9 15  1  0
  9 10  1  0
  9 31  1  1
 10 11  2  0
 10 16  1  0
 11 12  1  0
 11 32  1  0
 12 15  1  0
 12 13  1  6
 12 14  1  0
 13 33  1  0
 13 34  1  0
 13 35  1  0
 14 15  1  0
 14 36  1  0
 14 37  1  0
 15 38  1  6
 16 22  1  0
 16 17  1  6
 16 18  1  0
 17 39  1  0
 17 40  1  0
 17 41  1  0
 18 19  1  0
 18 20  1  0
 18 42  1  6
 19 43  1  0
 20 21  1  0
 20 44  1  0
 20 45  1  0
 21 22  1  0
 21 46  1  0
 21 47  1  0
 22 23  1  0
 22 48  1  6
 23 49  1  1
M  END
>  <i_m_ct_stereo_status>  (170) 
1

>  <s_m_source_file>  (170) 
/var/tmp/pbs.5076255.sched01/tmpyrjfudeo/454urwji6r.sdf

>  <i_m_source_file_index>  (170) 
31

>  <i_lp_mmshare_version>  (170) 
48012

>  <i_f3d_flags>  (170) 
0

>  <s_epik_input>  (170) 
TzFbQ0gyXVtDQEBIXShbQ0BdMTIzKVtDQEhdKFtPSF0pQyg9W0NIMl0pW0NASF0zW0NASF00W0NAXShbQ0gzXSkoW0NAQEhdKFtPSF0pW0NIMl1bQ0gyXTQpQz01W0NAQEhdMltDQEBIXTZbQ0BAXShbQ0hdNSkoW0NIM10pW0NIMl02

>  <s_epik_cmdline>  (170) 
J2VwaWtfcHl0aG9uJywgJy1waHQnLCAnMi4wJywgJy1waCcsICc3LjAnLCAnLXRuJywgJzgnLCAnLW1hJywgJzIwMCcsICctaW1hZScsICc8aW5maWxlLm1hZT4nLCAnLW9tYWUnLCAnPG91dGZpbGUubWFlPic=

>  <r_lp_tautomer_probability>  (170) 
1

>  <r_epik_Ionization_Penalty>  (170) 
7.32881e-07

>  <r_epik_Ionization_Penalty_Charging>  (170) 
0

>  <r_epik_Ionization_Penalty_Neutral>  (170) 
7.32881e-07

>  <r_epik_State_Penalty>  (170) 
-0

>  <r_epik_Charging_Adjusted_Penalty>  (170) 
0

>  <i_epik_Tot_Q>  (170) 
0

>  <i_epik_Tot_abs_Q>  (170) 
0

>  <s_lp_Force_Field>  (170) 
OPLS3e

>  <r_lp_Energy>  (170) 
34.3268

>  <b_lp_Chiralities_Consistent>  (170) 
1

>  <s_lp_Variant>  (170) 
43:0-1

>  <s_i_glide_gridfile>  (170) 
pfpi4k_grid

>  <i_i_glide_lignum>  (170) 
31

>  <i_i_glide_rotatable_bonds>  (170) 
2

>  <r_i_docking_score>  (170) 
-3.85287

>  <r_i_glide_ligand_efficiency>  (170) 
-0.167516

>  <r_i_glide_ligand_efficiency_sa>  (170) 
-0.476393

>  <r_i_glide_ligand_efficiency_ln>  (170) 
-0.931658

>  <r_i_glide_gscore>  (170) 
-3.85287

>  <r_i_glide_lipo>  (170) 
-0.726459

>  <r_i_glide_hbond>  (170) 
0

>  <r_i_glide_metal>  (170) 
-0

>  <r_i_glide_rewards>  (170) 
-1.76533

>  <r_i_glide_evdw>  (170) 
-25.0467

>  <r_i_glide_ecoul>  (170) 
-0.724975

>  <r_i_glide_erotb>  (170) 
0

>  <r_i_glide_esite>  (170) 
0

>  <r_i_glide_emodel>  (170) 
-37.3715

>  <r_i_glide_energy>  (170) 
-25.7716

>  <r_i_glide_einternal>  (170) 
0.433312

>  <r_i_glide_intrahb_reward>  (170) 
-0.5

>  <i_i_glide_confnum>  (170) 
2

>  <i_i_glide_posenum>  (170) 
2

>  <r_i_glide_eff_state_penalty>  (170) 
0

>  <ligand_id>  (170) 
43

>  <original_smiles>  (170) 
C=C1C(O)C2COC23C2C(=CC4(C)CC24)C2(C)C(O)CCC2C13

>  <smiles>  (170) 
[H]OC1([H])C(=C([H])[H])C2([H])C3([H])C([H])([H])C([H])([H])C([H])(O[H])C3(C([H])([H])[H])C3=C([H])C4(C([H])([H])[H])C([H])([H])C4([H])C3([H])C23OC([H])([H])C13[H]

$$$$
43:0:1
     RDKit          3D

 49 54  0  0  1  0  0  0  0  0999 V2000
    2.8846   -3.5954    4.4107 C   0  0  0  0  0  0  0  0  0  0  0  0
    3.7961   -2.8910    3.7271 C   0  0  0  0  0  0  0  0  0  0  0  0
    3.8780   -1.3760    3.7473 C   0  0  1  0  0  0  0  0  0  0  0  0
    4.9830   -0.9891    4.5400 O   0  0  0  0  0  0  0  0  0  0  0  0
    4.1087   -1.0480    2.2703 C   0  0  1  0  0  0  0  0  0  0  0  0
    5.3837   -0.4076    1.7456 C   0  0  0  0  0  0  0  0  0  0  0  0
    5.9232   -1.6951    1.3646 O   0  0  0  0  0  0  0  0  0  0  0  0
    4.6267   -2.3111    1.5893 C   0  0  2  0  0  0  0  0  0  0  0  0
    3.9748   -2.7963    0.2919 C   0  0  2  0  0  0  0  0  0  0  0  0
    4.6943   -4.0023   -0.2500 C   0  0  0  0  0  0  0  0  0  0  0  0
    4.9464   -3.8855   -1.5638 C   0  0  0  0  0  0  0  0  0  0  0  0
    4.4994   -2.5693   -2.0909 C   0  0  2  0  0  0  0  0  0  0  0  0
    3.7589   -2.5316   -3.4161 C   0  0  0  0  0  0  0  0  0  0  0  0
    5.2038   -1.3374   -1.5963 C   0  0  0  0  0  0  0  0  0  0  0  0
    3.9575   -1.8295   -0.8882 C   0  0  2  0  0  0  0  0  0  0  0  0
    4.9776   -5.1720    0.6946 C   0  0  1  0  0  0  0  0  0  0  0  0
    4.2330   -6.4097    0.1498 C   0  0  0  0  0  0  0  0  0  0  0  0
    6.4732   -5.5373    0.8793 C   0  0  1  0  0  0  0  0  0  0  0  0
    7.3234   -4.4115    0.9643 O   0  0  0  0  0  0  0  0  0  0  0  0
    6.5313   -6.2997    2.2124 C   0  0  0  0  0  0  0  0  0  0  0  0
    5.2936   -5.8782    3.0174 C   0  0  0  0  0  0  0  0  0  0  0  0
    4.5036   -4.8769    2.1488 C   0  0  1  0  0  0  0  0  0  0  0  0
    4.7350   -3.4124    2.6450 C   0  0  2  0  0  0  0  0  0  0  0  0
    2.7894   -4.6686    4.3073 H   0  0  0  0  0  0  0  0  0  0  0  0
    2.2061   -3.0874    5.0855 H   0  0  0  0  0  0  0  0  0  0  0  0
    2.9670   -0.9258    4.1491 H   0  0  0  0  0  0  0  0  0  0  0  0
    5.7555   -1.3539    4.1374 H   0  0  0  0  0  0  0  0  0  0  0  0
    3.2271   -0.6681    1.7554 H   0  0  0  0  0  0  0  0  0  0  0  0
    5.1995    0.2334    0.8809 H   0  0  0  0  0  0  0  0  0  0  0  0
    5.9843    0.1092    2.4908 H   0  0  0  0  0  0  0  0  0  0  0  0
    2.9437   -3.0988    0.4839 H   0  0  0  0  0  0  0  0  0  0  0  0
    5.4074   -4.6300   -2.1938 H   0  0  0  0  0  0  0  0  0  0  0  0
    3.3435   -1.5357   -3.5920 H   0  0  0  0  0  0  0  0  0  0  0  0
    2.9371   -3.2481   -3.4221 H   0  0  0  0  0  0  0  0  0  0  0  0
    4.4382   -2.7698   -4.2336 H   0  0  0  0  0  0  0  0  0  0  0  0
    6.1662   -1.4883   -1.1166 H   0  0  0  0  0  0  0  0  0  0  0  0
    5.1047   -0.4144   -2.1671 H   0  0  0  0  0  0  0  0  0  0  0  0
    3.0522   -1.2317   -1.0005 H   0  0  0  0  0  0  0  0  0  0  0  0
    4.3396   -7.2778    0.7986 H   0  0  0  0  0  0  0  0  0  0  0  0
    4.6127   -6.6947   -0.8311 H   0  0  0  0  0  0  0  0  0  0  0  0
    3.1661   -6.2091    0.0439 H   0  0  0  0  0  0  0  0  0  0  0  0
    6.8548   -6.1646    0.0815 H   0  0  0  0  0  0  0  0  0  0  0  0
    6.9865   -3.8338    1.6327 H   0  0  0  0  0  0  0  0  0  0  0  0
    6.4811   -7.3731    2.0249 H   0  0  0  0  0  0  0  0  0  0  0  0
    7.4596   -6.1304    2.7575 H   0  0  0  0  0  0  0  0  0  0  0  0
    4.6806   -6.7565    3.2190 H   0  0  0  0  0  0  0  0  0  0  0  0
    5.5649   -5.4655    3.9880 H   0  0  0  0  0  0  0  0  0  0  0  0
    3.4349   -5.0951    2.1977 H   0  0  0  0  0  0  0  0  0  0  0  0
    5.7307   -3.3594    3.0797 H   0  0  0  0  0  0  0  0  0  0  0  0
  1  2  2  0
  1 24  1  0
  1 25  1  0
  2 23  1  0
  2  3  1  0
  3  4  1  0
  3  5  1  0
  3 26  1  1
  4 27  1  0
  5  8  1  0
  5  6  1  0
  5 28  1  6
  6  7  1  0
  6 29  1  0
  6 30  1  0
  8  7  1  6
  8 23  1  0
  8  9  1  0
  9 15  1  0
  9 10  1  0
  9 31  1  1
 10 11  2  0
 10 16  1  0
 11 12  1  0
 11 32  1  0
 12 15  1  0
 12 13  1  6
 12 14  1  0
 13 33  1  0
 13 34  1  0
 13 35  1  0
 14 15  1  0
 14 36  1  0
 14 37  1  0
 15 38  1  6
 16 22  1  0
 16 17  1  6
 16 18  1  0
 17 39  1  0
 17 40  1  0
 17 41  1  0
 18 19  1  0
 18 20  1  0
 18 42  1  6
 19 43  1  0
 20 21  1  0
 20 44  1  0
 20 45  1  0
 21 22  1  0
 21 46  1  0
 21 47  1  0
 22 23  1  0
 22 48  1  6
 23 49  1  1
M  END
>  <i_m_ct_stereo_status>  (171) 
1

>  <s_m_source_file>  (171) 
/var/tmp/pbs.5076255.sched01/tmpyrjfudeo/454urwji6r.sdf

>  <i_m_source_file_index>  (171) 
31

>  <i_lp_mmshare_version>  (171) 
48012

>  <i_f3d_flags>  (171) 
0

>  <s_epik_input>  (171) 
TzFbQ0gyXVtDQEBIXShbQ0BdMTIzKVtDQEhdKFtPSF0pQyg9W0NIMl0pW0NASF0zW0NASF00W0NAXShbQ0gzXSkoW0NAQEhdKFtPSF0pW0NIMl1bQ0gyXTQpQz01W0NAQEhdMltDQEBIXTZbQ0BAXShbQ0hdNSkoW0NIM10pW0NIMl02

>  <s_epik_cmdline>  (171) 
J2VwaWtfcHl0aG9uJywgJy1waHQnLCAnMi4wJywgJy1waCcsICc3LjAnLCAnLXRuJywgJzgnLCAnLW1hJywgJzIwMCcsICctaW1hZScsICc8aW5maWxlLm1hZT4nLCAnLW9tYWUnLCAnPG91dGZpbGUubWFlPic=

>  <r_lp_tautomer_probability>  (171) 
1

>  <r_epik_Ionization_Penalty>  (171) 
7.32881e-07

>  <r_epik_Ionization_Penalty_Charging>  (171) 
0

>  <r_epik_Ionization_Penalty_Neutral>  (171) 
7.32881e-07

>  <r_epik_State_Penalty>  (171) 
-0

>  <r_epik_Charging_Adjusted_Penalty>  (171) 
0

>  <i_epik_Tot_Q>  (171) 
0

>  <i_epik_Tot_abs_Q>  (171) 
0

>  <s_lp_Force_Field>  (171) 
OPLS3e

>  <r_lp_Energy>  (171) 
34.3268

>  <b_lp_Chiralities_Consistent>  (171) 
1

>  <s_lp_Variant>  (171) 
43:0-1

>  <s_i_glide_gridfile>  (171) 
pfpi4k_grid

>  <i_i_glide_lignum>  (171) 
31

>  <i_i_glide_rotatable_bonds>  (171) 
2

>  <r_i_docking_score>  (171) 
-3.78116

>  <r_i_glide_ligand_efficiency>  (171) 
-0.164398

>  <r_i_glide_ligand_efficiency_sa>  (171) 
-0.467526

>  <r_i_glide_ligand_efficiency_ln>  (171) 
-0.914318

>  <r_i_glide_gscore>  (171) 
-3.78116

>  <r_i_glide_lipo>  (171) 
-0.709618

>  <r_i_glide_hbond>  (171) 
0

>  <r_i_glide_metal>  (171) 
-0

>  <r_i_glide_rewards>  (171) 
-1.76533

>  <r_i_glide_evdw>  (171) 
-25.1037

>  <r_i_glide_ecoul>  (171) 
-0.340181

>  <r_i_glide_erotb>  (171) 
0

>  <r_i_glide_esite>  (171) 
0

>  <r_i_glide_emodel>  (171) 
-37.1252

>  <r_i_glide_energy>  (171) 
-25.4439

>  <r_i_glide_einternal>  (171) 
0.00553285

>  <r_i_glide_intrahb_reward>  (171) 
-0.5

>  <i_i_glide_confnum>  (171) 
2

>  <i_i_glide_posenum>  (171) 
17

>  <r_i_glide_eff_state_penalty>  (171) 
0

>  <ligand_id>  (171) 
43

>  <original_smiles>  (171) 
C=C1C(O)C2COC23C2C(=CC4(C)CC24)C2(C)C(O)CCC2C13

>  <smiles>  (171) 
[H]OC1([H])C(=C([H])[H])C2([H])C3([H])C([H])([H])C([H])([H])C([H])(O[H])C3(C([H])([H])[H])C3=C([H])C4(C([H])([H])[H])C([H])([H])C4([H])C3([H])C23OC([H])([H])C13[H]

$$$$
43:0:2
     RDKit          3D

 49 54  0  0  1  0  0  0  0  0999 V2000
    2.8750   -3.5421    4.4002 C   0  0  0  0  0  0  0  0  0  0  0  0
    3.7884   -2.8538    3.6973 C   0  0  0  0  0  0  0  0  0  0  0  0
    3.8721   -1.3415    3.6851 C   0  0  1  0  0  0  0  0  0  0  0  0
    4.9608   -0.9318    4.4954 O   0  0  0  0  0  0  0  0  0  0  0  0
    4.1027   -1.0458    2.1989 C   0  0  1  0  0  0  0  0  0  0  0  0
    5.3761   -0.4185    1.6554 C   0  0  0  0  0  0  0  0  0  0  0  0
    5.9086   -1.7081    1.2848 O   0  0  0  0  0  0  0  0  0  0  0  0
    4.6202   -2.3253    1.5473 C   0  0  2  0  0  0  0  0  0  0  0  0
    3.9657   -2.8413    0.2654 C   0  0  2  0  0  0  0  0  0  0  0  0
    4.6822   -4.0602   -0.2452 C   0  0  0  0  0  0  0  0  0  0  0  0
    4.9348   -3.9686   -1.5629 C   0  0  0  0  0  0  0  0  0  0  0  0
    4.4896   -2.6679   -2.1196 C   0  0  2  0  0  0  0  0  0  0  0  0
    3.7519   -2.6624   -3.4476 C   0  0  0  0  0  0  0  0  0  0  0  0
    5.2009   -1.4282   -1.6582 C   0  0  0  0  0  0  0  0  0  0  0  0
    3.9514   -1.8998   -0.9362 C   0  0  2  0  0  0  0  0  0  0  0  0
    4.9645   -5.2107    0.7233 C   0  0  1  0  0  0  0  0  0  0  0  0
    4.2155   -6.4570    0.2095 C   0  0  0  0  0  0  0  0  0  0  0  0
    6.4580   -5.5779    0.9090 C   0  0  1  0  0  0  0  0  0  0  0  0
    7.2987   -4.4424    0.9810 O   0  0  0  0  0  0  0  0  0  0  0  0
    6.5167   -6.3068    2.2639 C   0  0  0  0  0  0  0  0  0  0  0  0
    5.2800   -5.8627    3.0606 C   0  0  0  0  0  0  0  0  0  0  0  0
    4.4933   -4.8789    2.1702 C   0  0  1  0  0  0  0  0  0  0  0  0
    4.7303   -3.4024    2.6303 C   0  0  2  0  0  0  0  0  0  0  0  0
    2.7806   -4.6159    4.3225 H   0  0  0  0  0  0  0  0  0  0  0  0
    2.1999   -3.0140    5.0608 H   0  0  0  0  0  0  0  0  0  0  0  0
    2.9570   -0.8811    4.0698 H   0  0  0  0  0  0  0  0  0  0  0  0
    5.0922   -0.0057    4.3850 H   0  0  0  0  0  0  0  0  0  0  0  0
    3.2215   -0.6798    1.6710 H   0  0  0  0  0  0  0  0  0  0  0  0
    5.1925    0.2100    0.7811 H   0  0  0  0  0  0  0  0  0  0  0  0
    5.9894    0.1000    2.3898 H   0  0  0  0  0  0  0  0  0  0  0  0
    2.9348   -3.1383    0.4658 H   0  0  0  0  0  0  0  0  0  0  0  0
    5.3927   -4.7176   -2.1835 H   0  0  0  0  0  0  0  0  0  0  0  0
    3.3366   -1.6711   -3.6464 H   0  0  0  0  0  0  0  0  0  0  0  0
    2.9308   -3.3793   -3.4373 H   0  0  0  0  0  0  0  0  0  0  0  0
    4.4319   -2.9194   -4.2586 H   0  0  0  0  0  0  0  0  0  0  0  0
    6.1651   -1.5743   -1.1786 H   0  0  0  0  0  0  0  0  0  0  0  0
    5.1029   -0.5196   -2.2492 H   0  0  0  0  0  0  0  0  0  0  0  0
    3.0482   -1.3047   -1.0618 H   0  0  0  0  0  0  0  0  0  0  0  0
    4.3133   -7.3091    0.8808 H   0  0  0  0  0  0  0  0  0  0  0  0
    4.6016   -6.7712   -0.7604 H   0  0  0  0  0  0  0  0  0  0  0  0
    3.1512   -6.2514    0.0902 H   0  0  0  0  0  0  0  0  0  0  0  0
    6.8399   -6.2145    0.1107 H   0  0  0  0  0  0  0  0  0  0  0  0
    8.1519   -4.7234    1.2664 H   0  0  0  0  0  0  0  0  0  0  0  0
    6.4656   -7.3846    2.1083 H   0  0  0  0  0  0  0  0  0  0  0  0
    7.4413   -6.1243    2.8107 H   0  0  0  0  0  0  0  0  0  0  0  0
    4.6646   -6.7343    3.2857 H   0  0  0  0  0  0  0  0  0  0  0  0
    5.5524   -5.4248    4.0205 H   0  0  0  0  0  0  0  0  0  0  0  0
    3.4241   -5.0923    2.2249 H   0  0  0  0  0  0  0  0  0  0  0  0
    5.7295   -3.3371    3.0565 H   0  0  0  0  0  0  0  0  0  0  0  0
  1  2  2  0
  1 24  1  0
  1 25  1  0
  2 23  1  0
  2  3  1  0
  3  4  1  0
  3  5  1  0
  3 26  1  1
  4 27  1  0
  5  8  1  0
  5  6  1  0
  5 28  1  6
  6  7  1  0
  6 29  1  0
  6 30  1  0
  8  7  1  6
  8 23  1  0
  8  9  1  0
  9 15  1  0
  9 10  1  0
  9 31  1  1
 10 11  2  0
 10 16  1  0
 11 12  1  0
 11 32  1  0
 12 15  1  0
 12 13  1  6
 12 14  1  0
 13 33  1  0
 13 34  1  0
 13 35  1  0
 14 15  1  0
 14 36  1  0
 14 37  1  0
 15 38  1  6
 16 22  1  0
 16 17  1  6
 16 18  1  0
 17 39  1  0
 17 40  1  0
 17 41  1  0
 18 19  1  0
 18 20  1  0
 18 42  1  6
 19 43  1  0
 20 21  1  0
 20 44  1  0
 20 45  1  0
 21 22  1  0
 21 46  1  0
 21 47  1  0
 22 23  1  0
 22 48  1  6
 23 49  1  1
M  END
>  <i_m_ct_stereo_status>  (172) 
1

>  <s_m_source_file>  (172) 
/var/tmp/pbs.5076255.sched01/tmpyrjfudeo/454urwji6r.sdf

>  <i_m_source_file_index>  (172) 
31

>  <i_lp_mmshare_version>  (172) 
48012

>  <i_f3d_flags>  (172) 
0

>  <s_epik_input>  (172) 
TzFbQ0gyXVtDQEBIXShbQ0BdMTIzKVtDQEhdKFtPSF0pQyg9W0NIMl0pW0NASF0zW0NASF00W0NAXShbQ0gzXSkoW0NAQEhdKFtPSF0pW0NIMl1bQ0gyXTQpQz01W0NAQEhdMltDQEBIXTZbQ0BAXShbQ0hdNSkoW0NIM10pW0NIMl02

>  <s_epik_cmdline>  (172) 
J2VwaWtfcHl0aG9uJywgJy1waHQnLCAnMi4wJywgJy1waCcsICc3LjAnLCAnLXRuJywgJzgnLCAnLW1hJywgJzIwMCcsICctaW1hZScsICc8aW5maWxlLm1hZT4nLCAnLW9tYWUnLCAnPG91dGZpbGUubWFlPic=

>  <r_lp_tautomer_probability>  (172) 
1

>  <r_epik_Ionization_Penalty>  (172) 
7.32881e-07

>  <r_epik_Ionization_Penalty_Charging>  (172) 
0

>  <r_epik_Ionization_Penalty_Neutral>  (172) 
7.32881e-07

>  <r_epik_State_Penalty>  (172) 
-0

>  <r_epik_Charging_Adjusted_Penalty>  (172) 
0

>  <i_epik_Tot_Q>  (172) 
0

>  <i_epik_Tot_abs_Q>  (172) 
0

>  <s_lp_Force_Field>  (172) 
OPLS3e

>  <r_lp_Energy>  (172) 
34.3268

>  <b_lp_Chiralities_Consistent>  (172) 
1

>  <s_lp_Variant>  (172) 
43:0-1

>  <s_i_glide_gridfile>  (172) 
pfpi4k_grid

>  <i_i_glide_lignum>  (172) 
31

>  <i_i_glide_rotatable_bonds>  (172) 
2

>  <r_i_docking_score>  (172) 
-3.33743

>  <r_i_glide_ligand_efficiency>  (172) 
-0.145105

>  <r_i_glide_ligand_efficiency_sa>  (172) 
-0.412661

>  <r_i_glide_ligand_efficiency_ln>  (172) 
-0.80702

>  <r_i_glide_gscore>  (172) 
-3.33743

>  <r_i_glide_lipo>  (172) 
-0.725093

>  <r_i_glide_hbond>  (172) 
0

>  <r_i_glide_metal>  (172) 
-0

>  <r_i_glide_rewards>  (172) 
-1.26533

>  <r_i_glide_evdw>  (172) 
-24.9682

>  <r_i_glide_ecoul>  (172) 
-0.657315

>  <r_i_glide_erotb>  (172) 
0

>  <r_i_glide_esite>  (172) 
0

>  <r_i_glide_emodel>  (172) 
-31.0633

>  <r_i_glide_energy>  (172) 
-25.6255

>  <r_i_glide_einternal>  (172) 
0.801575

>  <r_i_glide_intrahb_reward>  (172) 
-0

>  <i_i_glide_confnum>  (172) 
1

>  <i_i_glide_posenum>  (172) 
13

>  <r_i_glide_eff_state_penalty>  (172) 
0

>  <ligand_id>  (172) 
43

>  <original_smiles>  (172) 
C=C1C(O)C2COC23C2C(=CC4(C)CC24)C2(C)C(O)CCC2C13

>  <smiles>  (172) 
[H]OC1([H])C(=C([H])[H])C2([H])C3([H])C([H])([H])C([H])([H])C([H])(O[H])C3(C([H])([H])[H])C3=C([H])C4(C([H])([H])[H])C([H])([H])C4([H])C3([H])C23OC([H])([H])C13[H]

$$$$
44:0:0
     RDKit          3D

 39 43  0  0  1  0  0  0  0  0999 V2000
    0.8586   -6.0724    6.9853 C   0  0  0  0  0  0  0  0  0  0  0  0
    1.5702   -6.7905    6.0964 C   0  0  0  0  0  0  0  0  0  0  0  0
    2.3107   -6.2186    4.8973 C   0  0  0  0  0  0  0  0  0  0  0  0
    1.8440   -6.7478    3.5146 C   0  0  2  0  0  0  0  0  0  0  0  0
    2.4501   -6.1006    2.3295 C   0  0  0  0  0  0  0  0  0  0  0  0
    3.3035   -5.2201    2.2378 O   0  0  0  0  0  0  0  0  0  0  0  0
    1.6774   -6.8268    1.3078 C   0  0  2  0  0  0  0  0  0  0  0  0
    0.3710   -6.5153    1.7005 O   0  0  0  0  0  0  0  0  0  0  0  0
    0.3574   -6.6000    3.1420 C   0  0  1  0  0  0  0  0  0  0  0  0
   -0.3352   -7.9110    3.5010 C   0  0  0  0  0  0  0  0  0  0  0  0
   -1.5017   -7.8888    4.4696 C   0  0  0  0  0  0  0  0  0  0  0  0
   -1.7318   -8.2463    3.0297 C   0  0  0  0  0  0  0  0  0  0  0  0
    0.7889   -8.9316    3.6732 C   0  0  1  0  0  0  0  0  0  0  0  0
    0.6706  -10.3411    3.0738 C   0  0  0  0  0  0  0  0  0  0  0  0
    1.9627  -11.1383    3.3854 C   0  0  0  0  0  0  0  0  0  0  0  0
    3.2576  -10.4011    2.9639 C   0  0  0  0  0  0  0  0  0  0  0  0
    3.3249   -8.9577    3.4982 C   0  0  0  0  0  0  0  0  0  0  0  0
    2.0290   -8.2219    3.1223 C   0  0  2  0  0  0  0  0  0  0  0  0
    1.9391   -8.1527    1.6758 O   0  0  0  0  0  0  0  0  0  0  0  0
    0.7685   -4.9997    6.9114 H   0  0  0  0  0  0  0  0  0  0  0  0
    0.3537   -6.5745    7.7963 H   0  0  0  0  0  0  0  0  0  0  0  0
    1.6316   -7.8598    6.2438 H   0  0  0  0  0  0  0  0  0  0  0  0
    2.2236   -5.1333    4.9147 H   0  0  0  0  0  0  0  0  0  0  0  0
    3.3720   -6.4305    5.0426 H   0  0  0  0  0  0  0  0  0  0  0  0
    1.8950   -6.5950    0.2659 H   0  0  0  0  0  0  0  0  0  0  0  0
   -0.1217   -5.7379    3.6048 H   0  0  0  0  0  0  0  0  0  0  0  0
   -1.5716   -8.6836    5.2078 H   0  0  0  0  0  0  0  0  0  0  0  0
   -1.8492   -6.9147    4.8119 H   0  0  0  0  0  0  0  0  0  0  0  0
   -2.2263   -7.5109    2.4011 H   0  0  0  0  0  0  0  0  0  0  0  0
   -1.9576   -9.2839    2.7959 H   0  0  0  0  0  0  0  0  0  0  0  0
    0.8973   -9.0883    4.7453 H   0  0  0  0  0  0  0  0  0  0  0  0
   -0.1863  -10.8472    3.5174 H   0  0  0  0  0  0  0  0  0  0  0  0
    0.5044  -10.2881    1.9983 H   0  0  0  0  0  0  0  0  0  0  0  0
    2.0099  -11.3547    4.4558 H   0  0  0  0  0  0  0  0  0  0  0  0
    1.9230  -12.1023    2.8807 H   0  0  0  0  0  0  0  0  0  0  0  0
    4.1291  -10.9628    3.3065 H   0  0  0  0  0  0  0  0  0  0  0  0
    3.3137  -10.3806    1.8743 H   0  0  0  0  0  0  0  0  0  0  0  0
    3.4433   -8.9727    4.5817 H   0  0  0  0  0  0  0  0  0  0  0  0
    4.1989   -8.4478    3.0913 H   0  0  0  0  0  0  0  0  0  0  0  0
  1  2  2  0
  1 20  1  0
  1 21  1  0
  2  3  1  0
  2 22  1  0
  4  3  1  1
  3 23  1  0
  3 24  1  0
  4  9  1  0
  4 18  1  0
  4  5  1  0
  5  6  2  0
  5  7  1  0
  7 19  1  0
  7  8  1  0
  7 25  1  6
  8  9  1  0
  9 10  1  0
  9 26  1  1
 10 12  1  0
 10 11  1  0
 10 13  1  0
 11 12  1  0
 11 27  1  0
 11 28  1  0
 12 29  1  0
 12 30  1  0
 13 18  1  0
 13 14  1  0
 13 31  1  1
 14 15  1  0
 14 32  1  0
 14 33  1  0
 15 16  1  0
 15 34  1  0
 15 35  1  0
 16 17  1  0
 16 36  1  0
 16 37  1  0
 17 18  1  0
 17 38  1  0
 17 39  1  0
 18 19  1  6
M  END
>  <i_m_ct_stereo_status>  (173) 
1

>  <s_m_source_file>  (173) 
/var/tmp/pbs.5076255.sched01/tmpyrjfudeo/454urwji6r.sdf

>  <i_m_source_file_index>  (173) 
32

>  <i_lp_mmshare_version>  (173) 
48012

>  <i_f3d_flags>  (173) 
0

>  <s_epik_input>  (173) 
W0NIMl0xW0NIMl1DMTJbQ0BIXTNbQ0BAXTQoW0NIMl1bQ0hdPVtDSDJdKVtDQF01KE9bQ0BASF0oTzMpQzQ9TylbQ0BASF0yW0NIMl1bQ0gyXVtDSDJdW0NIMl01

>  <s_epik_cmdline>  (173) 
J2VwaWtfcHl0aG9uJywgJy1waHQnLCAnMi4wJywgJy1waCcsICc3LjAnLCAnLXRuJywgJzgnLCAnLW1hJywgJzIwMCcsICctaW1hZScsICc8aW5maWxlLm1hZT4nLCAnLW9tYWUnLCAnPG91dGZpbGUubWFlPic=

>  <r_lp_tautomer_probability>  (173) 
1

>  <r_epik_Ionization_Penalty>  (173) 
1.01847e-09

>  <r_epik_Ionization_Penalty_Charging>  (173) 
0

>  <r_epik_Ionization_Penalty_Neutral>  (173) 
1.01847e-09

>  <r_epik_State_Penalty>  (173) 
-0

>  <r_epik_Charging_Adjusted_Penalty>  (173) 
0

>  <i_epik_Tot_Q>  (173) 
0

>  <i_epik_Tot_abs_Q>  (173) 
0

>  <s_epik_Chemistry_Notes>  (173) 
This compound contains an acetal/aminal-like group ( X-CH(R)-Y where X, Y are N, S, or O) that may be acid/base labile, releasing an aldehyde.

>  <s_lp_Force_Field>  (173) 
OPLS3e

>  <r_lp_Energy>  (173) 
20.7031

>  <b_lp_Chiralities_Consistent>  (173) 
1

>  <s_lp_Variant>  (173) 
44:0-1

>  <s_i_glide_gridfile>  (173) 
pfpi4k_grid

>  <i_i_glide_lignum>  (173) 
32

>  <i_i_glide_rotatable_bonds>  (173) 
2

>  <r_i_docking_score>  (173) 
-2.75342

>  <r_i_glide_ligand_efficiency>  (173) 
-0.144917

>  <r_i_glide_ligand_efficiency_sa>  (173) 
-0.386696

>  <r_i_glide_ligand_efficiency_ln>  (173) 
-0.698051

>  <r_i_glide_gscore>  (173) 
-2.75342

>  <r_i_glide_lipo>  (173) 
-0.209162

>  <r_i_glide_hbond>  (173) 
-0.139958

>  <r_i_glide_metal>  (173) 
-0

>  <r_i_glide_rewards>  (173) 
-1.63413

>  <r_i_glide_evdw>  (173) 
-16.7035

>  <r_i_glide_ecoul>  (173) 
-0.970848

>  <r_i_glide_erotb>  (173) 
0.261184

>  <r_i_glide_esite>  (173) 
-0.0505569

>  <r_i_glide_emodel>  (173) 
-19.8882

>  <r_i_glide_energy>  (173) 
-17.6743

>  <r_i_glide_einternal>  (173) 
1.57854

>  <r_i_glide_intrahb_reward>  (173) 
-0

>  <i_i_glide_confnum>  (173) 
2

>  <i_i_glide_posenum>  (173) 
1

>  <r_i_glide_eff_state_penalty>  (173) 
0

>  <ligand_id>  (173) 
44

>  <original_smiles>  (173) 
C=CCC12C(=O)C3OC1C1(CC1)C1CCCCC12O3

>  <smiles>  (173) 
[H]C([H])=C([H])C([H])([H])C12C(=O)C3([H])OC1([H])C1(C([H])([H])C1([H])[H])C1([H])C([H])([H])C([H])([H])C([H])([H])C([H])([H])C12O3

$$$$
44:0:1
     RDKit          3D

 39 43  0  0  1  0  0  0  0  0999 V2000
    1.0666   -6.0376    8.3962 C   0  0  0  0  0  0  0  0  0  0  0  0
    0.5436   -6.4250    7.2248 C   0  0  0  0  0  0  0  0  0  0  0  0
    0.7736   -7.7894    6.5818 C   0  0  0  0  0  0  0  0  0  0  0  0
    1.3809   -7.7267    5.1631 C   0  0  2  0  0  0  0  0  0  0  0  0
    2.7163   -7.1223    4.9640 C   0  0  0  0  0  0  0  0  0  0  0  0
    3.5007   -6.6577    5.8031 O   0  0  0  0  0  0  0  0  0  0  0  0
    2.7775   -7.2691    3.5187 C   0  0  2  0  0  0  0  0  0  0  0  0
    1.6175   -6.5921    3.1234 O   0  0  0  0  0  0  0  0  0  0  0  0
    0.6045   -6.9628    4.0796 C   0  0  1  0  0  0  0  0  0  0  0  0
   -0.3233   -7.9411    3.3715 C   0  0  0  0  0  0  0  0  0  0  0  0
   -1.8184   -7.6888    3.3170 C   0  0  0  0  0  0  0  0  0  0  0  0
   -0.9974   -7.6109    2.0620 C   0  0  0  0  0  0  0  0  0  0  0  0
    0.2196   -9.3160    3.7441 C   0  0  1  0  0  0  0  0  0  0  0  0
    0.3670  -10.4053    2.6551 C   0  0  0  0  0  0  0  0  0  0  0  0
    0.9520  -11.6919    3.2892 C   0  0  0  0  0  0  0  0  0  0  0  0
    2.2542  -11.4423    4.0803 C   0  0  0  0  0  0  0  0  0  0  0  0
    2.1216  -10.2906    5.0975 C   0  0  0  0  0  0  0  0  0  0  0  0
    1.5769   -9.0462    4.3812 C   0  0  2  0  0  0  0  0  0  0  0  0
    2.5366   -8.6394    3.3719 O   0  0  0  0  0  0  0  0  0  0  0  0
    1.7148   -6.6925    8.9594 H   0  0  0  0  0  0  0  0  0  0  0  0
    0.8640   -5.0565    8.8054 H   0  0  0  0  0  0  0  0  0  0  0  0
   -0.1010   -5.7365    6.6939 H   0  0  0  0  0  0  0  0  0  0  0  0
    1.4249   -8.3783    7.2329 H   0  0  0  0  0  0  0  0  0  0  0  0
   -0.1816   -8.3063    6.5534 H   0  0  0  0  0  0  0  0  0  0  0  0
    3.6866   -6.9228    3.0244 H   0  0  0  0  0  0  0  0  0  0  0  0
    0.0607   -6.0805    4.4356 H   0  0  0  0  0  0  0  0  0  0  0  0
   -2.4848   -8.5391    3.4352 H   0  0  0  0  0  0  0  0  0  0  0  0
   -2.1760   -6.7612    3.7648 H   0  0  0  0  0  0  0  0  0  0  0  0
   -0.7854   -6.6277    1.6472 H   0  0  0  0  0  0  0  0  0  0  0  0
   -1.1253   -8.3982    1.3281 H   0  0  0  0  0  0  0  0  0  0  0  0
   -0.4559   -9.7037    4.5112 H   0  0  0  0  0  0  0  0  0  0  0  0
   -0.5893  -10.6438    2.1951 H   0  0  0  0  0  0  0  0  0  0  0  0
    1.0245  -10.0548    1.8611 H   0  0  0  0  0  0  0  0  0  0  0  0
    0.2148  -12.1432    3.9544 H   0  0  0  0  0  0  0  0  0  0  0  0
    1.1355  -12.4272    2.5053 H   0  0  0  0  0  0  0  0  0  0  0  0
    2.5494  -12.3560    4.6017 H   0  0  0  0  0  0  0  0  0  0  0  0
    3.0606  -11.2169    3.3787 H   0  0  0  0  0  0  0  0  0  0  0  0
    1.4402  -10.5968    5.8944 H   0  0  0  0  0  0  0  0  0  0  0  0
    3.0852  -10.0891    5.5643 H   0  0  0  0  0  0  0  0  0  0  0  0
  1  2  2  0
  1 20  1  0
  1 21  1  0
  2  3  1  0
  2 22  1  0
  4  3  1  1
  3 23  1  0
  3 24  1  0
  4  9  1  0
  4 18  1  0
  4  5  1  0
  5  6  2  0
  5  7  1  0
  7 19  1  0
  7  8  1  0
  7 25  1  6
  8  9  1  0
  9 10  1  0
  9 26  1  1
 10 12  1  0
 10 11  1  0
 10 13  1  0
 11 12  1  0
 11 27  1  0
 11 28  1  0
 12 29  1  0
 12 30  1  0
 13 18  1  0
 13 14  1  0
 13 31  1  1
 14 15  1  0
 14 32  1  0
 14 33  1  0
 15 16  1  0
 15 34  1  0
 15 35  1  0
 16 17  1  0
 16 36  1  0
 16 37  1  0
 17 18  1  0
 17 38  1  0
 17 39  1  0
 18 19  1  6
M  END
>  <i_m_ct_stereo_status>  (174) 
1

>  <s_m_source_file>  (174) 
/var/tmp/pbs.5076255.sched01/tmpyrjfudeo/454urwji6r.sdf

>  <i_m_source_file_index>  (174) 
32

>  <i_lp_mmshare_version>  (174) 
48012

>  <i_f3d_flags>  (174) 
0

>  <s_epik_input>  (174) 
W0NIMl0xW0NIMl1DMTJbQ0BIXTNbQ0BAXTQoW0NIMl1bQ0hdPVtDSDJdKVtDQF01KE9bQ0BASF0oTzMpQzQ9TylbQ0BASF0yW0NIMl1bQ0gyXVtDSDJdW0NIMl01

>  <s_epik_cmdline>  (174) 
J2VwaWtfcHl0aG9uJywgJy1waHQnLCAnMi4wJywgJy1waCcsICc3LjAnLCAnLXRuJywgJzgnLCAnLW1hJywgJzIwMCcsICctaW1hZScsICc8aW5maWxlLm1hZT4nLCAnLW9tYWUnLCAnPG91dGZpbGUubWFlPic=

>  <r_lp_tautomer_probability>  (174) 
1

>  <r_epik_Ionization_Penalty>  (174) 
1.01847e-09

>  <r_epik_Ionization_Penalty_Charging>  (174) 
0

>  <r_epik_Ionization_Penalty_Neutral>  (174) 
1.01847e-09

>  <r_epik_State_Penalty>  (174) 
-0

>  <r_epik_Charging_Adjusted_Penalty>  (174) 
0

>  <i_epik_Tot_Q>  (174) 
0

>  <i_epik_Tot_abs_Q>  (174) 
0

>  <s_epik_Chemistry_Notes>  (174) 
This compound contains an acetal/aminal-like group ( X-CH(R)-Y where X, Y are N, S, or O) that may be acid/base labile, releasing an aldehyde.

>  <s_lp_Force_Field>  (174) 
OPLS3e

>  <r_lp_Energy>  (174) 
20.7031

>  <b_lp_Chiralities_Consistent>  (174) 
1

>  <s_lp_Variant>  (174) 
44:0-1

>  <s_i_glide_gridfile>  (174) 
pfpi4k_grid

>  <i_i_glide_lignum>  (174) 
32

>  <i_i_glide_rotatable_bonds>  (174) 
2

>  <r_i_docking_score>  (174) 
-2.49077

>  <r_i_glide_ligand_efficiency>  (174) 
-0.131093

>  <r_i_glide_ligand_efficiency_sa>  (174) 
-0.34981

>  <r_i_glide_ligand_efficiency_ln>  (174) 
-0.631464

>  <r_i_glide_gscore>  (174) 
-2.49077

>  <r_i_glide_lipo>  (174) 
-0.242444

>  <r_i_glide_hbond>  (174) 
0

>  <r_i_glide_metal>  (174) 
-0

>  <r_i_glide_rewards>  (174) 
-1.63413

>  <r_i_glide_evdw>  (174) 
-15.6242

>  <r_i_glide_ecoul>  (174) 
-0.62143

>  <r_i_glide_erotb>  (174) 
0.261184

>  <r_i_glide_esite>  (174) 
-0.000964431

>  <r_i_glide_emodel>  (174) 
-18.9396

>  <r_i_glide_energy>  (174) 
-16.2456

>  <r_i_glide_einternal>  (174) 
0.0947818

>  <r_i_glide_intrahb_reward>  (174) 
-0

>  <i_i_glide_confnum>  (174) 
2

>  <i_i_glide_posenum>  (174) 
7

>  <r_i_glide_eff_state_penalty>  (174) 
0

>  <ligand_id>  (174) 
44

>  <original_smiles>  (174) 
C=CCC12C(=O)C3OC1C1(CC1)C1CCCCC12O3

>  <smiles>  (174) 
[H]C([H])=C([H])C([H])([H])C12C(=O)C3([H])OC1([H])C1(C([H])([H])C1([H])[H])C1([H])C([H])([H])C([H])([H])C([H])([H])C([H])([H])C12O3

$$$$
44:0:2
     RDKit          3D

 39 43  0  0  1  0  0  0  0  0999 V2000
   -0.9801    1.3174    2.4995 C   0  0  0  0  0  0  0  0  0  0  0  0
   -0.4672    1.3106    3.7379 C   0  0  0  0  0  0  0  0  0  0  0  0
   -1.2601    1.6042    5.0061 C   0  0  0  0  0  0  0  0  0  0  0  0
   -0.7150    2.7868    5.8437 C   0  0  2  0  0  0  0  0  0  0  0  0
   -0.6447    4.1251    5.2180 C   0  0  0  0  0  0  0  0  0  0  0  0
   -1.1103    4.5463    4.1560 O   0  0  0  0  0  0  0  0  0  0  0  0
   -0.0441    4.8225    6.3696 C   0  0  2  0  0  0  0  0  0  0  0  0
    1.1028    4.0595    6.5855 O   0  0  0  0  0  0  0  0  0  0  0  0
    0.7240    2.6863    6.3893 C   0  0  1  0  0  0  0  0  0  0  0  0
    0.6572    2.0595    7.7744 C   0  0  0  0  0  0  0  0  0  0  0  0
    1.4411    0.7970    8.0797 C   0  0  0  0  0  0  0  0  0  0  0  0
    1.8382    2.0967    8.7203 C   0  0  0  0  0  0  0  0  0  0  0  0
   -0.7999    2.1943    8.1978 C   0  0  1  0  0  0  0  0  0  0  0  0
   -1.1460    2.6710    9.6232 C   0  0  0  0  0  0  0  0  0  0  0  0
   -2.6813    2.7520    9.7933 C   0  0  0  0  0  0  0  0  0  0  0  0
   -3.3802    3.5666    8.6815 C   0  0  0  0  0  0  0  0  0  0  0  0
   -2.9544    3.1248    7.2624 C   0  0  0  0  0  0  0  0  0  0  0  0
   -1.4196    3.1422    7.1653 C   0  0  2  0  0  0  0  0  0  0  0  0
   -0.9639    4.5033    7.3762 O   0  0  0  0  0  0  0  0  0  0  0  0
   -2.0199    1.5498    2.3267 H   0  0  0  0  0  0  0  0  0  0  0  0
   -0.3651    1.1006    1.6354 H   0  0  0  0  0  0  0  0  0  0  0  0
    0.5819    1.0734    3.8639 H   0  0  0  0  0  0  0  0  0  0  0  0
   -2.3002    1.7940    4.7280 H   0  0  0  0  0  0  0  0  0  0  0  0
   -1.2594    0.6944    5.6054 H   0  0  0  0  0  0  0  0  0  0  0  0
    0.1477    5.8877    6.2601 H   0  0  0  0  0  0  0  0  0  0  0  0
    1.4195    2.1635    5.7339 H   0  0  0  0  0  0  0  0  0  0  0  0
    0.9797    0.0423    8.7137 H   0  0  0  0  0  0  0  0  0  0  0  0
    2.0796    0.4041    7.2878 H   0  0  0  0  0  0  0  0  0  0  0  0
    2.7430    2.5805    8.3558 H   0  0  0  0  0  0  0  0  0  0  0  0
    1.6515    2.2108    9.7847 H   0  0  0  0  0  0  0  0  0  0  0  0
   -1.2324    1.2020    8.0596 H   0  0  0  0  0  0  0  0  0  0  0  0
   -0.7387    1.9864   10.3669 H   0  0  0  0  0  0  0  0  0  0  0  0
   -0.7015    3.6494    9.8115 H   0  0  0  0  0  0  0  0  0  0  0  0
   -3.0966    1.7468    9.8037 H   0  0  0  0  0  0  0  0  0  0  0  0
   -2.9198    3.1781   10.7683 H   0  0  0  0  0  0  0  0  0  0  0  0
   -4.4611    3.4722    8.7984 H   0  0  0  0  0  0  0  0  0  0  0  0
   -3.1484    4.6236    8.8235 H   0  0  0  0  0  0  0  0  0  0  0  0
   -3.3357    2.1223    7.0659 H   0  0  0  0  0  0  0  0  0  0  0  0
   -3.3883    3.7709    6.5023 H   0  0  0  0  0  0  0  0  0  0  0  0
  1  2  2  0
  1 20  1  0
  1 21  1  0
  2  3  1  0
  2 22  1  0
  4  3  1  6
  3 23  1  0
  3 24  1  0
  4  9  1  0
  4 18  1  0
  4  5  1  0
  5  6  2  0
  5  7  1  0
  7 19  1  0
  7  8  1  0
  7 25  1  6
  8  9  1  0
  9 10  1  0
  9 26  1  6
 10 12  1  0
 10 11  1  0
 10 13  1  0
 11 12  1  0
 11 27  1  0
 11 28  1  0
 12 29  1  0
 12 30  1  0
 13 18  1  0
 13 14  1  0
 13 31  1  6
 14 15  1  0
 14 32  1  0
 14 33  1  0
 15 16  1  0
 15 34  1  0
 15 35  1  0
 16 17  1  0
 16 36  1  0
 16 37  1  0
 17 18  1  0
 17 38  1  0
 17 39  1  0
 18 19  1  1
M  END
>  <i_m_ct_stereo_status>  (175) 
1

>  <s_m_source_file>  (175) 
/var/tmp/pbs.5076255.sched01/tmpyrjfudeo/454urwji6r.sdf

>  <i_m_source_file_index>  (175) 
32

>  <i_lp_mmshare_version>  (175) 
48012

>  <i_f3d_flags>  (175) 
0

>  <s_epik_input>  (175) 
W0NIMl0xW0NIMl1DMTJbQ0BIXTNbQ0BAXTQoW0NIMl1bQ0hdPVtDSDJdKVtDQF01KE9bQ0BASF0oTzMpQzQ9TylbQ0BASF0yW0NIMl1bQ0gyXVtDSDJdW0NIMl01

>  <s_epik_cmdline>  (175) 
J2VwaWtfcHl0aG9uJywgJy1waHQnLCAnMi4wJywgJy1waCcsICc3LjAnLCAnLXRuJywgJzgnLCAnLW1hJywgJzIwMCcsICctaW1hZScsICc8aW5maWxlLm1hZT4nLCAnLW9tYWUnLCAnPG91dGZpbGUubWFlPic=

>  <r_lp_tautomer_probability>  (175) 
1

>  <r_epik_Ionization_Penalty>  (175) 
1.01847e-09

>  <r_epik_Ionization_Penalty_Charging>  (175) 
0

>  <r_epik_Ionization_Penalty_Neutral>  (175) 
1.01847e-09

>  <r_epik_State_Penalty>  (175) 
-0

>  <r_epik_Charging_Adjusted_Penalty>  (175) 
0

>  <i_epik_Tot_Q>  (175) 
0

>  <i_epik_Tot_abs_Q>  (175) 
0

>  <s_epik_Chemistry_Notes>  (175) 
This compound contains an acetal/aminal-like group ( X-CH(R)-Y where X, Y are N, S, or O) that may be acid/base labile, releasing an aldehyde.

>  <s_lp_Force_Field>  (175) 
OPLS3e

>  <r_lp_Energy>  (175) 
20.7031

>  <b_lp_Chiralities_Consistent>  (175) 
1

>  <s_lp_Variant>  (175) 
44:0-1

>  <s_i_glide_gridfile>  (175) 
pfpi4k_grid

>  <i_i_glide_lignum>  (175) 
32

>  <i_i_glide_rotatable_bonds>  (175) 
2

>  <r_i_docking_score>  (175) 
-2.48101

>  <r_i_glide_ligand_efficiency>  (175) 
-0.130579

>  <r_i_glide_ligand_efficiency_sa>  (175) 
-0.348438

>  <r_i_glide_ligand_efficiency_ln>  (175) 
-0.628989

>  <r_i_glide_gscore>  (175) 
-2.48101

>  <r_i_glide_lipo>  (175) 
-0.239943

>  <r_i_glide_hbond>  (175) 
-0.05891

>  <r_i_glide_metal>  (175) 
-0

>  <r_i_glide_rewards>  (175) 
-1.63413

>  <r_i_glide_evdw>  (175) 
-13.5511

>  <r_i_glide_ecoul>  (175) 
-0.667363

>  <r_i_glide_erotb>  (175) 
0.261184

>  <r_i_glide_esite>  (175) 
-0.0315555

>  <r_i_glide_emodel>  (175) 
-16.9149

>  <r_i_glide_energy>  (175) 
-14.2185

>  <r_i_glide_einternal>  (175) 
0.0584436

>  <r_i_glide_intrahb_reward>  (175) 
-0

>  <i_i_glide_confnum>  (175) 
2

>  <i_i_glide_posenum>  (175) 
3

>  <r_i_glide_eff_state_penalty>  (175) 
0

>  <ligand_id>  (175) 
44

>  <original_smiles>  (175) 
C=CCC12C(=O)C3OC1C1(CC1)C1CCCCC12O3

>  <smiles>  (175) 
[H]C([H])=C([H])C([H])([H])C12C(=O)C3([H])OC1([H])C1(C([H])([H])C1([H])[H])C1([H])C([H])([H])C([H])([H])C([H])([H])C([H])([H])C12O3

$$$$
45:0:0
     RDKit          3D

 40 43  0  0  1  0  0  0  0  0999 V2000
    3.6969   -0.6629   -3.9468 C   0  0  0  0  0  0  0  0  0  0  0  0
    3.5394   -2.0076   -3.2128 C   0  0  0  0  0  0  0  0  0  0  0  0
    2.4980   -2.9137   -3.8786 C   0  0  0  0  0  0  0  0  0  0  0  0
    4.7569   -2.6871   -3.2145 O   0  0  0  0  0  0  0  0  0  0  0  0
    4.8945   -3.1785   -1.9283 C   0  0  1  0  0  0  0  0  0  0  0  0
    6.2123   -3.4162   -1.5660 O   0  0  0  0  0  0  0  0  0  0  0  0
    6.4773   -3.7706   -0.1935 C   0  0  1  0  0  0  0  0  0  0  0  0
    7.2668   -2.5980    0.4248 C   0  0  0  0  0  0  0  0  0  0  0  0
    6.4278   -1.3952    0.8807 C   0  0  0  0  0  0  0  0  0  0  0  0
    5.0102   -1.7417    1.3912 C   0  0  2  0  0  0  0  0  0  0  0  0
    5.1143   -2.6679    2.6193 C   0  0  0  0  0  0  0  0  0  0  0  0
    5.5236   -4.1061    2.2173 C   0  0  0  0  0  0  0  0  0  0  0  0
    5.3140   -4.3661    0.7040 C   0  0  2  0  0  0  0  0  0  0  0  0
    5.1376   -5.8734    0.4607 C   0  0  0  0  0  0  0  0  0  0  0  0
    4.0407   -3.7952    0.4527 O   0  0  0  0  0  0  0  0  0  0  0  0
    4.0426   -2.3783    0.3391 C   0  0  2  0  0  0  0  0  0  0  0  0
    4.3001   -2.0178   -1.1468 C   0  0  2  0  0  0  0  0  0  0  0  0
    3.1473   -1.7419   -1.9037 O   0  0  0  0  0  0  0  0  0  0  0  0
    4.4339   -0.0424   -3.4370 H   0  0  0  0  0  0  0  0  0  0  0  0
    2.7426   -0.1373   -3.9375 H   0  0  0  0  0  0  0  0  0  0  0  0
    4.0048   -0.8252   -4.9799 H   0  0  0  0  0  0  0  0  0  0  0  0
    2.3976   -3.8491   -3.3280 H   0  0  0  0  0  0  0  0  0  0  0  0
    2.8364   -3.1359   -4.8825 H   0  0  0  0  0  0  0  0  0  0  0  0
    1.5259   -2.4227   -3.9153 H   0  0  0  0  0  0  0  0  0  0  0  0
    4.3116   -4.1012   -1.8699 H   0  0  0  0  0  0  0  0  0  0  0  0
    7.2292   -4.5580   -0.2690 H   0  0  0  0  0  0  0  0  0  0  0  0
    7.8209   -2.9804    1.2774 H   0  0  0  0  0  0  0  0  0  0  0  0
    8.0337   -2.2592   -0.2733 H   0  0  0  0  0  0  0  0  0  0  0  0
    6.9729   -0.9005    1.6836 H   0  0  0  0  0  0  0  0  0  0  0  0
    6.3872   -0.6371    0.0989 H   0  0  0  0  0  0  0  0  0  0  0  0
    4.5676   -0.7974    1.7159 H   0  0  0  0  0  0  0  0  0  0  0  0
    5.8064   -2.2688    3.3618 H   0  0  0  0  0  0  0  0  0  0  0  0
    4.1392   -2.7069    3.1069 H   0  0  0  0  0  0  0  0  0  0  0  0
    6.5581   -4.3207    2.4852 H   0  0  0  0  0  0  0  0  0  0  0  0
    4.9267   -4.7993    2.8127 H   0  0  0  0  0  0  0  0  0  0  0  0
    6.0354   -6.4289    0.7304 H   0  0  0  0  0  0  0  0  0  0  0  0
    4.9105   -6.0760   -0.5849 H   0  0  0  0  0  0  0  0  0  0  0  0
    4.3142   -6.2654    1.0576 H   0  0  0  0  0  0  0  0  0  0  0  0
    3.0297   -2.0540    0.5898 H   0  0  0  0  0  0  0  0  0  0  0  0
    4.9324   -1.1392   -1.2633 H   0  0  0  0  0  0  0  0  0  0  0  0
  1  2  1  0
  1 19  1  0
  1 20  1  0
  1 21  1  0
  2 18  1  0
  2  3  1  0
  2  4  1  0
  3 22  1  0
  3 23  1  0
  3 24  1  0
  4  5  1  0
  5 17  1  0
  5  6  1  0
  5 25  1  6
  6  7  1  0
  7 13  1  0
  7  8  1  0
  7 26  1  6
  8  9  1  0
  8 27  1  0
  8 28  1  0
  9 10  1  0
  9 29  1  0
  9 30  1  0
 10 16  1  0
 10 11  1  0
 10 31  1  1
 11 12  1  0
 11 32  1  0
 11 33  1  0
 12 13  1  0
 12 34  1  0
 12 35  1  0
 13 14  1  1
 13 15  1  0
 14 36  1  0
 14 37  1  0
 14 38  1  0
 15 16  1  0
 16 17  1  0
 16 39  1  1
 17 18  1  0
 17 40  1  1
M  END
>  <i_m_ct_stereo_status>  (176) 
1

>  <s_m_source_file>  (176) 
/var/tmp/pbs.5076255.sched01/tmpyrjfudeo/454urwji6r.sdf

>  <i_m_source_file_index>  (176) 
33

>  <i_lp_mmshare_version>  (176) 
48012

>  <i_f3d_flags>  (176) 
0

>  <s_epik_input>  (176) 
W0NIMl0xW0NIMl1bQ0BIXShbQ0gyXVtDSDJdMilbQ0BIXShPMylbQ0BIXShPQyhPNCkoW0NIM10pW0NIM10pW0NAQEhdNE9bQ0BASF0xW0NAQF0yM1tDSDNd

>  <s_epik_cmdline>  (176) 
J2VwaWtfcHl0aG9uJywgJy1waHQnLCAnMi4wJywgJy1waCcsICc3LjAnLCAnLXRuJywgJzgnLCAnLW1hJywgJzIwMCcsICctaW1hZScsICc8aW5maWxlLm1hZT4nLCAnLW9tYWUnLCAnPG91dGZpbGUubWFlPic=

>  <r_lp_tautomer_probability>  (176) 
1

>  <r_epik_Ionization_Penalty>  (176) 
9.29328e-13

>  <r_epik_Ionization_Penalty_Charging>  (176) 
0

>  <r_epik_Ionization_Penalty_Neutral>  (176) 
9.29328e-13

>  <r_epik_State_Penalty>  (176) 
-0

>  <r_epik_Charging_Adjusted_Penalty>  (176) 
0

>  <i_epik_Tot_Q>  (176) 
0

>  <i_epik_Tot_abs_Q>  (176) 
0

>  <s_epik_Chemistry_Notes>  (176) 
This compound contains an acetal/aminal-like group ( X-CH(R)-Y where X, Y are N, S, or O) that may be acid/base labile, releasing an aldehyde.

>  <s_lp_Force_Field>  (176) 
OPLS3e

>  <r_lp_Energy>  (176) 
41.9033

>  <b_lp_Chiralities_Consistent>  (176) 
1

>  <s_lp_Variant>  (176) 
45:0-1

>  <s_i_glide_gridfile>  (176) 
pfpi4k_grid

>  <i_i_glide_lignum>  (176) 
33

>  <i_i_glide_rotatable_bonds>  (176) 
0

>  <r_i_docking_score>  (176) 
-4.2726

>  <r_i_glide_ligand_efficiency>  (176) 
-0.237367

>  <r_i_glide_ligand_efficiency_sa>  (176) 
-0.622077

>  <r_i_glide_ligand_efficiency_ln>  (176) 
-1.09825

>  <r_i_glide_gscore>  (176) 
-4.2726

>  <r_i_glide_lipo>  (176) 
-1.02607

>  <r_i_glide_hbond>  (176) 
0

>  <r_i_glide_metal>  (176) 
-0

>  <r_i_glide_rewards>  (176) 
-1.91114

>  <r_i_glide_evdw>  (176) 
-26.1159

>  <r_i_glide_ecoul>  (176) 
-0.19729

>  <r_i_glide_erotb>  (176) 
0

>  <r_i_glide_esite>  (176) 
0

>  <r_i_glide_emodel>  (176) 
-33.0452

>  <r_i_glide_energy>  (176) 
-26.3132

>  <r_i_glide_einternal>  (176) 
0

>  <r_i_glide_intrahb_reward>  (176) 
-0

>  <i_i_glide_confnum>  (176) 
1

>  <i_i_glide_posenum>  (176) 
13

>  <r_i_glide_eff_state_penalty>  (176) 
0

>  <ligand_id>  (176) 
45

>  <original_smiles>  (176) 
CC1(C)OC2OC3CCC4CCC3(C)OC4C2O1

>  <smiles>  (176) 
[H]C([H])([H])C1(C([H])([H])[H])OC2([H])OC3([H])C([H])([H])C([H])([H])C4([H])C([H])([H])C([H])([H])C3(C([H])([H])[H])OC4([H])C2([H])O1

$$$$
45:0:1
     RDKit          3D

 40 43  0  0  1  0  0  0  0  0999 V2000
    3.4078   -1.3203   -3.8773 C   0  0  0  0  0  0  0  0  0  0  0  0
    3.9993   -2.4755   -3.0565 C   0  0  0  0  0  0  0  0  0  0  0  0
    4.1938   -3.7462   -3.8915 C   0  0  0  0  0  0  0  0  0  0  0  0
    5.2496   -2.1007   -2.5591 O   0  0  0  0  0  0  0  0  0  0  0  0
    5.2592   -2.5055   -1.2424 C   0  0  1  0  0  0  0  0  0  0  0  0
    6.1561   -1.7965   -0.4510 O   0  0  0  0  0  0  0  0  0  0  0  0
    6.1179   -2.0262    0.9708 C   0  0  1  0  0  0  0  0  0  0  0  0
    5.5784   -0.7401    1.6355 C   0  0  0  0  0  0  0  0  0  0  0  0
    4.0580   -0.5529    1.6194 C   0  0  0  0  0  0  0  0  0  0  0  0
    3.2414   -1.8614    1.6917 C   0  0  2  0  0  0  0  0  0  0  0  0
    3.5621   -2.6021    3.0080 C   0  0  0  0  0  0  0  0  0  0  0  0
    4.9660   -3.2574    2.9724 C   0  0  0  0  0  0  0  0  0  0  0  0
    5.5135   -3.3827    1.5248 C   0  0  2  0  0  0  0  0  0  0  0  0
    6.5366   -4.5257    1.4393 C   0  0  0  0  0  0  0  0  0  0  0  0
    4.3815   -3.8491    0.8004 O   0  0  0  0  0  0  0  0  0  0  0  0
    3.4222   -2.8465    0.4882 C   0  0  2  0  0  0  0  0  0  0  0  0
    3.8113   -2.2165   -0.8714 C   0  0  2  0  0  0  0  0  0  0  0  0
    3.1355   -2.7483   -1.9894 O   0  0  0  0  0  0  0  0  0  0  0  0
    3.2711   -0.4323   -3.2549 H   0  0  0  0  0  0  0  0  0  0  0  0
    2.4314   -1.6191   -4.2623 H   0  0  0  0  0  0  0  0  0  0  0  0
    4.0604   -1.0734   -4.7147 H   0  0  0  0  0  0  0  0  0  0  0  0
    4.6012   -4.5422   -3.2690 H   0  0  0  0  0  0  0  0  0  0  0  0
    4.8852   -3.5511   -4.7081 H   0  0  0  0  0  0  0  0  0  0  0  0
    3.2408   -4.0771   -4.2960 H   0  0  0  0  0  0  0  0  0  0  0  0
    5.5130   -3.5687   -1.2391 H   0  0  0  0  0  0  0  0  0  0  0  0
    7.1712   -2.0354    1.2513 H   0  0  0  0  0  0  0  0  0  0  0  0
    5.9222   -0.7067    2.6675 H   0  0  0  0  0  0  0  0  0  0  0  0
    6.0369    0.1232    1.1564 H   0  0  0  0  0  0  0  0  0  0  0  0
    3.7892    0.0751    2.4703 H   0  0  0  0  0  0  0  0  0  0  0  0
    3.7653    0.0471    0.7636 H   0  0  0  0  0  0  0  0  0  0  0  0
    2.1930   -1.5636    1.7122 H   0  0  0  0  0  0  0  0  0  0  0  0
    3.4773   -1.9377    3.8695 H   0  0  0  0  0  0  0  0  0  0  0  0
    2.8187   -3.3860    3.1532 H   0  0  0  0  0  0  0  0  0  0  0  0
    5.6710   -2.7124    3.6041 H   0  0  0  0  0  0  0  0  0  0  0  0
    4.8816   -4.2454    3.4303 H   0  0  0  0  0  0  0  0  0  0  0  0
    7.4102   -4.3242    2.0581 H   0  0  0  0  0  0  0  0  0  0  0  0
    6.8736   -4.6826    0.4171 H   0  0  0  0  0  0  0  0  0  0  0  0
    6.0947   -5.4586    1.7891 H   0  0  0  0  0  0  0  0  0  0  0  0
    2.4754   -3.3696    0.3538 H   0  0  0  0  0  0  0  0  0  0  0  0
    3.6335   -1.1433   -0.9065 H   0  0  0  0  0  0  0  0  0  0  0  0
  1  2  1  0
  1 19  1  0
  1 20  1  0
  1 21  1  0
  2 18  1  0
  2  3  1  0
  2  4  1  0
  3 22  1  0
  3 23  1  0
  3 24  1  0
  4  5  1  0
  5 17  1  0
  5  6  1  0
  5 25  1  6
  6  7  1  0
  7 13  1  0
  7  8  1  0
  7 26  1  1
  8  9  1  0
  8 27  1  0
  8 28  1  0
  9 10  1  0
  9 29  1  0
  9 30  1  0
 10 16  1  0
 10 11  1  0
 10 31  1  1
 11 12  1  0
 11 32  1  0
 11 33  1  0
 12 13  1  0
 12 34  1  0
 12 35  1  0
 13 14  1  1
 13 15  1  0
 14 36  1  0
 14 37  1  0
 14 38  1  0
 15 16  1  0
 16 17  1  0
 16 39  1  6
 17 18  1  0
 17 40  1  1
M  END
>  <i_m_ct_stereo_status>  (177) 
1

>  <s_m_source_file>  (177) 
/var/tmp/pbs.5076255.sched01/tmpyrjfudeo/454urwji6r.sdf

>  <i_m_source_file_index>  (177) 
33

>  <i_lp_mmshare_version>  (177) 
48012

>  <i_f3d_flags>  (177) 
0

>  <s_epik_input>  (177) 
W0NIMl0xW0NIMl1bQ0BIXShbQ0gyXVtDSDJdMilbQ0BIXShPMylbQ0BIXShPQyhPNCkoW0NIM10pW0NIM10pW0NAQEhdNE9bQ0BASF0xW0NAQF0yM1tDSDNd

>  <s_epik_cmdline>  (177) 
J2VwaWtfcHl0aG9uJywgJy1waHQnLCAnMi4wJywgJy1waCcsICc3LjAnLCAnLXRuJywgJzgnLCAnLW1hJywgJzIwMCcsICctaW1hZScsICc8aW5maWxlLm1hZT4nLCAnLW9tYWUnLCAnPG91dGZpbGUubWFlPic=

>  <r_lp_tautomer_probability>  (177) 
1

>  <r_epik_Ionization_Penalty>  (177) 
9.29328e-13

>  <r_epik_Ionization_Penalty_Charging>  (177) 
0

>  <r_epik_Ionization_Penalty_Neutral>  (177) 
9.29328e-13

>  <r_epik_State_Penalty>  (177) 
-0

>  <r_epik_Charging_Adjusted_Penalty>  (177) 
0

>  <i_epik_Tot_Q>  (177) 
0

>  <i_epik_Tot_abs_Q>  (177) 
0

>  <s_epik_Chemistry_Notes>  (177) 
This compound contains an acetal/aminal-like group ( X-CH(R)-Y where X, Y are N, S, or O) that may be acid/base labile, releasing an aldehyde.

>  <s_lp_Force_Field>  (177) 
OPLS3e

>  <r_lp_Energy>  (177) 
41.9033

>  <b_lp_Chiralities_Consistent>  (177) 
1

>  <s_lp_Variant>  (177) 
45:0-1

>  <s_i_glide_gridfile>  (177) 
pfpi4k_grid

>  <i_i_glide_lignum>  (177) 
33

>  <i_i_glide_rotatable_bonds>  (177) 
0

>  <r_i_docking_score>  (177) 
-3.82881

>  <r_i_glide_ligand_efficiency>  (177) 
-0.212712

>  <r_i_glide_ligand_efficiency_sa>  (177) 
-0.557463

>  <r_i_glide_ligand_efficiency_ln>  (177) 
-0.984177

>  <r_i_glide_gscore>  (177) 
-3.82881

>  <r_i_glide_lipo>  (177) 
-0.606533

>  <r_i_glide_hbond>  (177) 
-0.0297159

>  <r_i_glide_metal>  (177) 
-0

>  <r_i_glide_rewards>  (177) 
-1.85146

>  <r_i_glide_evdw>  (177) 
-24.6963

>  <r_i_glide_ecoul>  (177) 
-0.615601

>  <r_i_glide_erotb>  (177) 
0

>  <r_i_glide_esite>  (177) 
-0.0139494

>  <r_i_glide_emodel>  (177) 
-31.365

>  <r_i_glide_energy>  (177) 
-25.3119

>  <r_i_glide_einternal>  (177) 
0

>  <r_i_glide_intrahb_reward>  (177) 
-0

>  <i_i_glide_confnum>  (177) 
1

>  <i_i_glide_posenum>  (177) 
1

>  <r_i_glide_eff_state_penalty>  (177) 
0

>  <ligand_id>  (177) 
45

>  <original_smiles>  (177) 
CC1(C)OC2OC3CCC4CCC3(C)OC4C2O1

>  <smiles>  (177) 
[H]C([H])([H])C1(C([H])([H])[H])OC2([H])OC3([H])C([H])([H])C([H])([H])C4([H])C([H])([H])C([H])([H])C3(C([H])([H])[H])OC4([H])C2([H])O1

$$$$
45:0:2
     RDKit          3D

 40 43  0  0  1  0  0  0  0  0999 V2000
    4.8377   -1.5669   -1.8832 C   0  0  0  0  0  0  0  0  0  0  0  0
    3.8814   -2.7099   -1.5154 C   0  0  0  0  0  0  0  0  0  0  0  0
    2.8887   -3.0224   -2.6482 C   0  0  0  0  0  0  0  0  0  0  0  0
    4.6225   -3.8660   -1.2471 O   0  0  0  0  0  0  0  0  0  0  0  0
    4.0634   -4.4033   -0.1086 C   0  0  1  0  0  0  0  0  0  0  0  0
    4.9216   -5.2276    0.6120 O   0  0  0  0  0  0  0  0  0  0  0  0
    4.4961   -5.6979    1.9062 C   0  0  1  0  0  0  0  0  0  0  0  0
    5.3938   -5.0143    2.9630 C   0  0  0  0  0  0  0  0  0  0  0  0
    5.0120   -3.5753    3.3400 C   0  0  0  0  0  0  0  0  0  0  0  0
    3.5004   -3.2670    3.2870 C   0  0  2  0  0  0  0  0  0  0  0  0
    2.7501   -4.1727    4.2853 C   0  0  0  0  0  0  0  0  0  0  0  0
    2.6610   -5.6318    3.7766 C   0  0  0  0  0  0  0  0  0  0  0  0
    2.9499   -5.7364    2.2538 C   0  0  2  0  0  0  0  0  0  0  0  0
    2.2809   -6.9903    1.6793 C   0  0  0  0  0  0  0  0  0  0  0  0
    2.2117   -4.6505    1.7118 O   0  0  0  0  0  0  0  0  0  0  0  0
    2.8294   -3.3781    1.8749 C   0  0  2  0  0  0  0  0  0  0  0  0
    3.7464   -3.1238    0.6522 C   0  0  2  0  0  0  0  0  0  0  0  0
    3.1760   -2.3377   -0.3662 O   0  0  0  0  0  0  0  0  0  0  0  0
    5.5202   -1.3614   -1.0574 H   0  0  0  0  0  0  0  0  0  0  0  0
    4.2583   -0.6651   -2.0853 H   0  0  0  0  0  0  0  0  0  0  0  0
    5.4131   -1.8334   -2.7710 H   0  0  0  0  0  0  0  0  0  0  0  0
    2.2285   -3.8442   -2.3676 H   0  0  0  0  0  0  0  0  0  0  0  0
    3.4424   -3.3205   -3.5386 H   0  0  0  0  0  0  0  0  0  0  0  0
    2.2851   -2.1453   -2.8802 H   0  0  0  0  0  0  0  0  0  0  0  0
    3.1788   -4.9640   -0.4191 H   0  0  0  0  0  0  0  0  0  0  0  0
    4.8309   -6.7374    1.9203 H   0  0  0  0  0  0  0  0  0  0  0  0
    5.3974   -5.6172    3.8706 H   0  0  0  0  0  0  0  0  0  0  0  0
    6.4274   -5.0276    2.6185 H   0  0  0  0  0  0  0  0  0  0  0  0
    5.3731   -3.3881    4.3534 H   0  0  0  0  0  0  0  0  0  0  0  0
    5.5802   -2.8670    2.7380 H   0  0  0  0  0  0  0  0  0  0  0  0
    3.3896   -2.2337    3.6197 H   0  0  0  0  0  0  0  0  0  0  0  0
    3.2117   -4.1446    5.2714 H   0  0  0  0  0  0  0  0  0  0  0  0
    1.7383   -3.7872    4.4113 H   0  0  0  0  0  0  0  0  0  0  0  0
    3.3302   -6.2898    4.3364 H   0  0  0  0  0  0  0  0  0  0  0  0
    1.6562   -6.0000    3.9968 H   0  0  0  0  0  0  0  0  0  0  0  0
    2.7026   -7.9007    2.1050 H   0  0  0  0  0  0  0  0  0  0  0  0
    2.4084   -7.0230    0.6008 H   0  0  0  0  0  0  0  0  0  0  0  0
    1.2116   -6.9910    1.8861 H   0  0  0  0  0  0  0  0  0  0  0  0
    2.0228   -2.6464    1.8420 H   0  0  0  0  0  0  0  0  0  0  0  0
    4.6756   -2.6221    0.9138 H   0  0  0  0  0  0  0  0  0  0  0  0
  1  2  1  0
  1 19  1  0
  1 20  1  0
  1 21  1  0
  2 18  1  0
  2  3  1  0
  2  4  1  0
  3 22  1  0
  3 23  1  0
  3 24  1  0
  4  5  1  0
  5 17  1  0
  5  6  1  0
  5 25  1  6
  6  7  1  0
  7 13  1  0
  7  8  1  0
  7 26  1  6
  8  9  1  0
  8 27  1  0
  8 28  1  0
  9 10  1  0
  9 29  1  0
  9 30  1  0
 10 16  1  0
 10 11  1  0
 10 31  1  1
 11 12  1  0
 11 32  1  0
 11 33  1  0
 12 13  1  0
 12 34  1  0
 12 35  1  0
 13 14  1  6
 13 15  1  0
 14 36  1  0
 14 37  1  0
 14 38  1  0
 15 16  1  0
 16 17  1  0
 16 39  1  1
 17 18  1  0
 17 40  1  1
M  END
>  <i_m_ct_stereo_status>  (178) 
1

>  <s_m_source_file>  (178) 
/var/tmp/pbs.5076255.sched01/tmpyrjfudeo/454urwji6r.sdf

>  <i_m_source_file_index>  (178) 
33

>  <i_lp_mmshare_version>  (178) 
48012

>  <i_f3d_flags>  (178) 
0

>  <s_epik_input>  (178) 
W0NIMl0xW0NIMl1bQ0BIXShbQ0gyXVtDSDJdMilbQ0BIXShPMylbQ0BIXShPQyhPNCkoW0NIM10pW0NIM10pW0NAQEhdNE9bQ0BASF0xW0NAQF0yM1tDSDNd

>  <s_epik_cmdline>  (178) 
J2VwaWtfcHl0aG9uJywgJy1waHQnLCAnMi4wJywgJy1waCcsICc3LjAnLCAnLXRuJywgJzgnLCAnLW1hJywgJzIwMCcsICctaW1hZScsICc8aW5maWxlLm1hZT4nLCAnLW9tYWUnLCAnPG91dGZpbGUubWFlPic=

>  <r_lp_tautomer_probability>  (178) 
1

>  <r_epik_Ionization_Penalty>  (178) 
9.29328e-13

>  <r_epik_Ionization_Penalty_Charging>  (178) 
0

>  <r_epik_Ionization_Penalty_Neutral>  (178) 
9.29328e-13

>  <r_epik_State_Penalty>  (178) 
-0

>  <r_epik_Charging_Adjusted_Penalty>  (178) 
0

>  <i_epik_Tot_Q>  (178) 
0

>  <i_epik_Tot_abs_Q>  (178) 
0

>  <s_epik_Chemistry_Notes>  (178) 
This compound contains an acetal/aminal-like group ( X-CH(R)-Y where X, Y are N, S, or O) that may be acid/base labile, releasing an aldehyde.

>  <s_lp_Force_Field>  (178) 
OPLS3e

>  <r_lp_Energy>  (178) 
41.9033

>  <b_lp_Chiralities_Consistent>  (178) 
1

>  <s_lp_Variant>  (178) 
45:0-1

>  <s_i_glide_gridfile>  (178) 
pfpi4k_grid

>  <i_i_glide_lignum>  (178) 
33

>  <i_i_glide_rotatable_bonds>  (178) 
0

>  <r_i_docking_score>  (178) 
-2.59316

>  <r_i_glide_ligand_efficiency>  (178) 
-0.144064

>  <r_i_glide_ligand_efficiency_sa>  (178) 
-0.377556

>  <r_i_glide_ligand_efficiency_ln>  (178) 
-0.666558

>  <r_i_glide_gscore>  (178) 
-2.59316

>  <r_i_glide_lipo>  (178) 
-0.067774

>  <r_i_glide_hbond>  (178) 
0

>  <r_i_glide_metal>  (178) 
-0

>  <r_i_glide_rewards>  (178) 
-1.67508

>  <r_i_glide_evdw>  (178) 
-17.6621

>  <r_i_glide_ecoul>  (178) 
0.463917

>  <r_i_glide_erotb>  (178) 
0

>  <r_i_glide_esite>  (178) 
-0.0367905

>  <r_i_glide_emodel>  (178) 
-21.2582

>  <r_i_glide_energy>  (178) 
-17.1982

>  <r_i_glide_einternal>  (178) 
0

>  <r_i_glide_intrahb_reward>  (178) 
-0

>  <i_i_glide_confnum>  (178) 
2

>  <i_i_glide_posenum>  (178) 
26

>  <r_i_glide_eff_state_penalty>  (178) 
0

>  <ligand_id>  (178) 
45

>  <original_smiles>  (178) 
CC1(C)OC2OC3CCC4CCC3(C)OC4C2O1

>  <smiles>  (178) 
[H]C([H])([H])C1(C([H])([H])[H])OC2([H])OC3([H])C([H])([H])C([H])([H])C4([H])C([H])([H])C([H])([H])C3(C([H])([H])[H])OC4([H])C2([H])O1

$$$$
46:0:0
     RDKit          3D

 71 77  0  0  1  0  0  0  0  0999 V2000
    0.1680    0.7138    9.6865 C   0  0  0  0  0  0  0  0  0  0  0  0
   -0.2891    0.8319    8.3509 O   0  0  0  0  0  0  0  0  0  0  0  0
    0.3763    1.6266    7.4774 C   0  0  0  0  0  0  0  0  0  0  0  0
    1.3948    2.2546    7.7693 O   0  0  0  0  0  0  0  0  0  0  0  0
   -0.2881    1.7382    6.0544 C   0  0  1  0  0  0  0  0  0  0  0  0
   -1.1440    0.4019    5.5299 C   0  0  0  0  0  0  0  0  0  0  0  0
   -0.5501   -0.7702    4.5756 C   0  0  0  0  0  0  0  0  0  0  0  0
    0.9092   -0.3777    4.3031 C   0  0  2  0  0  0  0  0  0  0  0  0
    1.2521   -0.7386    5.8985 C   0  0  0  0  0  0  0  0  0  0  0  0
    2.5200   -0.2482    6.5795 C   0  0  0  0  0  0  0  0  0  0  0  0
    3.3873    0.4227    5.8593 C   0  0  0  0  0  0  0  0  0  0  0  0
    3.0726    0.5454    4.4050 C   0  0  2  0  0  0  0  0  0  0  0  0
    4.3347    0.6664    3.7637 O   0  0  0  0  0  0  0  0  0  0  0  0
    2.1855    1.9118    4.2117 C   0  0  1  0  0  0  0  0  0  0  0  0
    1.8050    1.6521    2.7681 C   0  0  0  0  0  0  0  0  0  0  0  0
    0.5999    0.7912    3.1185 C   0  0  2  0  0  0  0  0  0  0  0  0
   -0.5189    1.8948    3.0808 C   0  0  0  0  0  0  0  0  0  0  0  0
   -0.1126    3.1404    3.9351 C   0  0  1  0  0  0  0  0  0  0  0  0
    0.6620    4.1630    3.3102 O   0  0  0  0  0  0  0  0  0  0  0  0
   -1.2989    4.0397    4.3549 C   0  0  1  0  0  0  0  0  0  0  0  0
   -2.0586    4.4674    3.2308 O   0  0  0  0  0  0  0  0  0  0  0  0
   -2.2358    3.3568    5.3153 C   0  0  0  0  0  0  0  0  0  0  0  0
   -1.4260    2.7758    6.4617 C   0  0  1  0  0  0  0  0  0  0  0  0
   -2.4199    2.2837    7.3516 O   0  0  0  0  0  0  0  0  0  0  0  0
    0.7976    2.4965    5.0349 C   0  0  1  0  0  0  0  0  0  0  0  0
    2.3649   -0.8306    3.8475 C   0  0  1  0  0  0  0  0  0  0  0  0
    2.9557   -2.0145    4.5073 O   0  0  0  0  0  0  0  0  0  0  0  0
    3.0823   -3.0275    3.5747 C   0  0  2  0  0  0  0  0  0  0  0  0
    3.9824   -4.0706    3.7431 O   0  0  0  0  0  0  0  0  0  0  0  0
    4.3511   -4.4807    2.4010 C   0  0  1  0  0  0  0  0  0  0  0  0
    3.6545   -5.7884    2.0050 C   0  0  0  0  0  0  0  0  0  0  0  0
    3.9242   -3.3407    1.4512 C   0  0  0  0  0  0  0  0  0  0  0  0
    3.6909   -2.2788    2.4804 C   0  0  1  0  0  0  0  0  0  0  0  0
    2.6743   -1.1970    2.3322 C   0  0  1  0  0  0  0  0  0  0  0  0
    1.5329   -1.6786    1.6827 O   0  0  0  0  0  0  0  0  0  0  0  0
   -0.4901    0.0398   10.2334 H   0  0  0  0  0  0  0  0  0  0  0  0
    0.1498    1.6819   10.1879 H   0  0  0  0  0  0  0  0  0  0  0  0
    1.1809    0.3110    9.7285 H   0  0  0  0  0  0  0  0  0  0  0  0
   -1.5267   -0.1093    6.4155 H   0  0  0  0  0  0  0  0  0  0  0  0
   -2.1018    0.6916    5.1025 H   0  0  0  0  0  0  0  0  0  0  0  0
   -0.7048   -1.7632    5.0152 H   0  0  0  0  0  0  0  0  0  0  0  0
   -1.1562   -0.8137    3.6777 H   0  0  0  0  0  0  0  0  0  0  0  0
    0.4965   -0.7459    6.6704 H   0  0  0  0  0  0  0  0  0  0  0  0
    1.3209   -1.8252    5.9594 H   0  0  0  0  0  0  0  0  0  0  0  0
    2.6659   -0.4398    7.6348 H   0  0  0  0  0  0  0  0  0  0  0  0
    4.3101    0.8345    6.2463 H   0  0  0  0  0  0  0  0  0  0  0  0
    4.3232    1.4295    3.2008 H   0  0  0  0  0  0  0  0  0  0  0  0
    2.8999    2.7278    4.2074 H   0  0  0  0  0  0  0  0  0  0  0  0
    1.5600    2.4956    2.1308 H   0  0  0  0  0  0  0  0  0  0  0  0
    2.5979    1.2621    2.1433 H   0  0  0  0  0  0  0  0  0  0  0  0
    0.3008    0.2580    2.2239 H   0  0  0  0  0  0  0  0  0  0  0  0
   -0.6506    2.2315    2.0485 H   0  0  0  0  0  0  0  0  0  0  0  0
   -1.5101    1.5122    3.2969 H   0  0  0  0  0  0  0  0  0  0  0  0
    0.4864    4.1635    2.3451 H   0  0  0  0  0  0  0  0  0  0  0  0
   -0.9014    4.9322    4.8496 H   0  0  0  0  0  0  0  0  0  0  0  0
   -1.4872    4.4617    2.4677 H   0  0  0  0  0  0  0  0  0  0  0  0
   -2.9246    4.1052    5.7030 H   0  0  0  0  0  0  0  0  0  0  0  0
   -2.8648    2.6274    4.8077 H   0  0  0  0  0  0  0  0  0  0  0  0
   -0.9641    3.6333    6.9584 H   0  0  0  0  0  0  0  0  0  0  0  0
   -2.1005    2.4037    8.2356 H   0  0  0  0  0  0  0  0  0  0  0  0
    1.1939    3.3317    5.6068 H   0  0  0  0  0  0  0  0  0  0  0  0
    2.0978   -3.4440    3.3561 H   0  0  0  0  0  0  0  0  0  0  0  0
    5.4334   -4.5983    2.3860 H   0  0  0  0  0  0  0  0  0  0  0  0
    3.9436   -6.0520    0.9875 H   0  0  0  0  0  0  0  0  0  0  0  0
    2.5657   -5.6801    2.0242 H   0  0  0  0  0  0  0  0  0  0  0  0
    3.9351   -6.6107    2.6659 H   0  0  0  0  0  0  0  0  0  0  0  0
    4.6916   -3.0562    0.7218 H   0  0  0  0  0  0  0  0  0  0  0  0
    2.9886   -3.5810    0.9367 H   0  0  0  0  0  0  0  0  0  0  0  0
    4.6487   -1.8663    2.8210 H   0  0  0  0  0  0  0  0  0  0  0  0
    3.2121   -0.4959    1.7024 H   0  0  0  0  0  0  0  0  0  0  0  0
    1.4868   -1.2577    0.8078 H   0  0  0  0  0  0  0  0  0  0  0  0
  1  2  1  0
  1 36  1  0
  1 37  1  0
  1 38  1  0
  2  3  1  0
  3  4  2  0
  5  3  1  1
  5 23  1  0
  5 25  1  0
  5  6  1  0
  6  7  1  0
  6 39  1  0
  6 40  1  0
  7  8  1  0
  7 41  1  0
  7 42  1  0
  8 16  1  0
  8 26  1  0
  8  9  1  1
  9 10  1  0
  9 43  1  0
  9 44  1  0
 10 11  2  0
 10 45  1  0
 11 12  1  0
 11 46  1  0
 12 13  1  6
 12 14  1  0
 12 26  1  0
 13 47  1  0
 14 25  1  0
 14 15  1  0
 14 48  1  6
 15 16  1  0
 15 49  1  0
 15 50  1  0
 16 17  1  0
 16 51  1  6
 17 18  1  0
 17 52  1  0
 17 53  1  0
 18 19  1  6
 18 20  1  0
 18 25  1  0
 19 54  1  0
 20 21  1  0
 20 22  1  0
 20 55  1  1
 21 56  1  0
 22 23  1  0
 22 57  1  0
 22 58  1  0
 23 24  1  0
 23 59  1  1
 24 60  1  0
 25 61  1  1
 26 34  1  0
 26 27  1  1
 27 28  1  0
 28 33  1  0
 28 29  1  0
 28 62  1  6
 29 30  1  0
 30 31  1  0
 30 32  1  0
 30 63  1  1
 31 64  1  0
 31 65  1  0
 31 66  1  0
 32 33  1  0
 32 67  1  0
 32 68  1  0
 33 34  1  0
 33 69  1  1
 34 35  1  0
 34 70  1  6
 35 71  1  0
M  END
>  <i_m_ct_stereo_status>  (179) 
1

>  <s_m_source_file>  (179) 
/var/tmp/pbs.5076255.sched01/tmpyrjfudeo/454urwji6r.sdf

>  <i_m_source_file_index>  (179) 
34

>  <i_lp_mmshare_version>  (179) 
48012

>  <i_f3d_flags>  (179) 
0

>  <s_epik_input>  (179) 
W0NIMl0xW0NAQEhdMltDSDJdW0NAQF0zKFtPSF0pW0NAQEhdKFtPSF0pW0NIMl1bQ0BASF0oW09IXSlbQ0BdKFtDSDJdW0NIMl00KShDKD1PKU9bQ0gzXSlbQ0BIXTNbQ0BIXTFbQ0BAXShbT0hdKShbQ0hdPVtDSF1bQ0gyXTUpW0NAXTYoQzI0NSlPW0NASF03W0NASF0oW0NASF02W09IXSlbQ0gyXVtDQEBIXShPNylbQ0gzXQ==

>  <s_epik_cmdline>  (179) 
J2VwaWtfcHl0aG9uJywgJy1waHQnLCAnMi4wJywgJy1waCcsICc3LjAnLCAnLXRuJywgJzgnLCAnLW1hJywgJzIwMCcsICctaW1hZScsICc8aW5maWxlLm1hZT4nLCAnLW9tYWUnLCAnPG91dGZpbGUubWFlPic=

>  <r_lp_tautomer_probability>  (179) 
1

>  <r_epik_Ionization_Penalty>  (179) 
4.66616e-07

>  <r_epik_Ionization_Penalty_Charging>  (179) 
0

>  <r_epik_Ionization_Penalty_Neutral>  (179) 
4.66616e-07

>  <r_epik_State_Penalty>  (179) 
-0

>  <r_epik_Charging_Adjusted_Penalty>  (179) 
0

>  <i_epik_Tot_Q>  (179) 
0

>  <i_epik_Tot_abs_Q>  (179) 
0

>  <s_epik_Chemistry_Notes>  (179) 
This compound has an ester and may undergo hydrolysis at high or low pH. This compound contains an acetal/aminal-like group ( X-CH(R)-Y where X, Y are N, S, or O) that may be acid/base labile, releasing an aldehyde.

>  <s_lp_Force_Field>  (179) 
OPLS3e

>  <r_lp_Energy>  (179) 
310.049

>  <b_lp_Chiralities_Consistent>  (179) 
1

>  <s_lp_Variant>  (179) 
46:0-1

>  <s_i_glide_gridfile>  (179) 
pfpi4k_grid

>  <i_i_glide_lignum>  (179) 
34

>  <i_i_glide_rotatable_bonds>  (179) 
7

>  <r_i_docking_score>  (179) 
-3.37035

>  <r_i_glide_ligand_efficiency>  (179) 
-0.0962958

>  <r_i_glide_ligand_efficiency_sa>  (179) 
-0.31499

>  <r_i_glide_ligand_efficiency_ln>  (179) 
-0.739868

>  <r_i_glide_gscore>  (179) 
-3.37035

>  <r_i_glide_lipo>  (179) 
-0.062262

>  <r_i_glide_hbond>  (179) 
0

>  <r_i_glide_metal>  (179) 
-0

>  <r_i_glide_rewards>  (179) 
-0.0508362

>  <r_i_glide_evdw>  (179) 
-25.5406

>  <r_i_glide_ecoul>  (179) 
-13.5902

>  <r_i_glide_erotb>  (179) 
0.0587591

>  <r_i_glide_esite>  (179) 
-0.000461987

>  <r_i_glide_emodel>  (179) 
-45.4844

>  <r_i_glide_energy>  (179) 
-39.1307

>  <r_i_glide_einternal>  (179) 
5.05985

>  <r_i_glide_intrahb_reward>  (179) 
-0

>  <i_i_glide_confnum>  (179) 
2

>  <i_i_glide_posenum>  (179) 
3

>  <r_i_glide_eff_state_penalty>  (179) 
0

>  <ligand_id>  (179) 
46

>  <original_smiles>  (179) 
COC(=O)C12CCC34CC=CC(O)(C5CC3CC(O)(C(O)CC1O)C52)C41OC2OC(C)CC2C1O

>  <smiles>  (179) 
[H]OC1([H])C([H])([H])C([H])(O[H])C2(C(=O)OC([H])([H])[H])C([H])([H])C([H])([H])C34C([H])([H])C([H])=C([H])C(O[H])(C5([H])C([H])([H])C3([H])C([H])([H])C1(O[H])C52[H])C41OC2([H])OC([H])(C([H])([H])[H])C([H])([H])C2([H])C1([H])O[H]

$$$$
46:0:1
     RDKit          3D

 71 77  0  0  1  0  0  0  0  0999 V2000
    0.2164    0.6685    9.6850 C   0  0  0  0  0  0  0  0  0  0  0  0
   -0.2745    0.8024    8.3634 O   0  0  0  0  0  0  0  0  0  0  0  0
    0.3644    1.6145    7.4843 C   0  0  0  0  0  0  0  0  0  0  0  0
    1.3836    2.2494    7.7666 O   0  0  0  0  0  0  0  0  0  0  0  0
   -0.3134    1.7241    6.0685 C   0  0  1  0  0  0  0  0  0  0  0  0
   -1.1690    0.3822    5.5525 C   0  0  0  0  0  0  0  0  0  0  0  0
   -0.5819   -0.7885    4.5875 C   0  0  0  0  0  0  0  0  0  0  0  0
    0.8746   -0.3834    4.3054 C   0  0  2  0  0  0  0  0  0  0  0  0
    1.2365   -0.7451    5.8996 C   0  0  0  0  0  0  0  0  0  0  0  0
    2.5025   -0.2574    6.5748 C   0  0  0  0  0  0  0  0  0  0  0  0
    3.3713    0.4225    5.8351 C   0  0  0  0  0  0  0  0  0  0  0  0
    3.0305    0.5409    4.3850 C   0  0  2  0  0  0  0  0  0  0  0  0
    4.2905    0.6656    3.7283 O   0  0  0  0  0  0  0  0  0  0  0  0
    2.1361    1.9054    4.2003 C   0  0  1  0  0  0  0  0  0  0  0  0
    1.7425    1.6435    2.7588 C   0  0  0  0  0  0  0  0  0  0  0  0
    0.5421    0.7769    3.1320 C   0  0  2  0  0  0  0  0  0  0  0  0
   -0.5783    1.8741    3.0963 C   0  0  0  0  0  0  0  0  0  0  0  0
   -0.1733    3.1213    3.9501 C   0  0  1  0  0  0  0  0  0  0  0  0
    0.5564    4.1748    3.2830 O   0  0  0  0  0  0  0  0  0  0  0  0
   -1.3486    4.0220    4.3810 C   0  0  1  0  0  0  0  0  0  0  0  0
   -2.1190    4.4486    3.2679 O   0  0  0  0  0  0  0  0  0  0  0  0
   -2.2694    3.3415    5.3522 C   0  0  0  0  0  0  0  0  0  0  0  0
   -1.4485    2.7590    6.4884 C   0  0  1  0  0  0  0  0  0  0  0  0
   -2.4414    2.2448    7.3699 O   0  0  0  0  0  0  0  0  0  0  0  0
    0.7598    2.4909    5.0314 C   0  0  1  0  0  0  0  0  0  0  0  0
    2.3251   -0.8391    3.8378 C   0  0  1  0  0  0  0  0  0  0  0  0
    2.9225   -2.0279    4.4854 O   0  0  0  0  0  0  0  0  0  0  0  0
    3.0414   -3.0440    3.5537 C   0  0  2  0  0  0  0  0  0  0  0  0
    3.9430   -4.0839    3.7116 O   0  0  0  0  0  0  0  0  0  0  0  0
    4.3002   -4.4929    2.3656 C   0  0  1  0  0  0  0  0  0  0  0  0
    3.5988   -5.8039    1.9853 C   0  0  0  0  0  0  0  0  0  0  0  0
    3.8567   -3.3566    1.4140 C   0  0  0  0  0  0  0  0  0  0  0  0
    3.6304   -2.3004    2.4549 C   0  0  1  0  0  0  0  0  0  0  0  0
    2.6140   -1.2158    2.3158 C   0  0  1  0  0  0  0  0  0  0  0  0
    1.4503   -1.7000    1.7030 O   0  0  0  0  0  0  0  0  0  0  0  0
   -0.4347   -0.0014   10.2438 H   0  0  0  0  0  0  0  0  0  0  0  0
    0.2320    1.6316   10.1972 H   0  0  0  0  0  0  0  0  0  0  0  0
    1.2240    0.2489    9.6904 H   0  0  0  0  0  0  0  0  0  0  0  0
   -1.5386   -0.1289    6.4493 H   0  0  0  0  0  0  0  0  0  0  0  0
   -2.1361    0.6680    5.1410 H   0  0  0  0  0  0  0  0  0  0  0  0
   -0.7232   -1.7790    5.0394 H   0  0  0  0  0  0  0  0  0  0  0  0
   -1.1878   -0.8362    3.6904 H   0  0  0  0  0  0  0  0  0  0  0  0
    0.4859   -0.7564    6.6786 H   0  0  0  0  0  0  0  0  0  0  0  0
    1.3071   -1.8301    5.9558 H   0  0  0  0  0  0  0  0  0  0  0  0
    2.6645   -0.4546    7.6204 H   0  0  0  0  0  0  0  0  0  0  0  0
    4.2940    0.8292    6.2109 H   0  0  0  0  0  0  0  0  0  0  0  0
    4.2843    1.4553    3.2122 H   0  0  0  0  0  0  0  0  0  0  0  0
    2.8473    2.7217    4.1912 H   0  0  0  0  0  0  0  0  0  0  0  0
    1.4815    2.4824    2.1297 H   0  0  0  0  0  0  0  0  0  0  0  0
    2.5383    1.2423    2.1294 H   0  0  0  0  0  0  0  0  0  0  0  0
    0.2256    0.2449    2.2411 H   0  0  0  0  0  0  0  0  0  0  0  0
   -0.7254    2.2113    2.0715 H   0  0  0  0  0  0  0  0  0  0  0  0
   -1.5704    1.4934    3.3284 H   0  0  0  0  0  0  0  0  0  0  0  0
    0.4373    4.1318    2.3474 H   0  0  0  0  0  0  0  0  0  0  0  0
   -0.9352    4.9116    4.8729 H   0  0  0  0  0  0  0  0  0  0  0  0
   -1.5223    4.5424    2.5291 H   0  0  0  0  0  0  0  0  0  0  0  0
   -2.9576    4.0831    5.7400 H   0  0  0  0  0  0  0  0  0  0  0  0
   -2.8989    2.6035    4.8491 H   0  0  0  0  0  0  0  0  0  0  0  0
   -0.9753    3.6098    6.9876 H   0  0  0  0  0  0  0  0  0  0  0  0
   -2.8811    2.9784    7.7740 H   0  0  0  0  0  0  0  0  0  0  0  0
    1.1564    3.3229    5.6047 H   0  0  0  0  0  0  0  0  0  0  0  0
    2.0572   -3.4718    3.3455 H   0  0  0  0  0  0  0  0  0  0  0  0
    5.3814   -4.5989    2.3514 H   0  0  0  0  0  0  0  0  0  0  0  0
    3.8774   -6.0658    0.9654 H   0  0  0  0  0  0  0  0  0  0  0  0
    2.5082   -5.6990    2.0200 H   0  0  0  0  0  0  0  0  0  0  0  0
    3.8925   -6.6239    2.6478 H   0  0  0  0  0  0  0  0  0  0  0  0
    4.6211   -3.0719    0.6771 H   0  0  0  0  0  0  0  0  0  0  0  0
    2.9133   -3.6003    0.9113 H   0  0  0  0  0  0  0  0  0  0  0  0
    4.5958   -1.8852    2.7775 H   0  0  0  0  0  0  0  0  0  0  0  0
    3.1443   -0.5239    1.6665 H   0  0  0  0  0  0  0  0  0  0  0  0
    1.3909   -1.2914    0.8202 H   0  0  0  0  0  0  0  0  0  0  0  0
  1  2  1  0
  1 36  1  0
  1 37  1  0
  1 38  1  0
  2  3  1  0
  3  4  2  0
  5  3  1  1
  5 23  1  0
  5 25  1  0
  5  6  1  0
  6  7  1  0
  6 39  1  0
  6 40  1  0
  7  8  1  0
  7 41  1  0
  7 42  1  0
  8 16  1  0
  8 26  1  0
  8  9  1  1
  9 10  1  0
  9 43  1  0
  9 44  1  0
 10 11  2  0
 10 45  1  0
 11 12  1  0
 11 46  1  0
 12 13  1  6
 12 14  1  0
 12 26  1  0
 13 47  1  0
 14 25  1  0
 14 15  1  0
 14 48  1  6
 15 16  1  0
 15 49  1  0
 15 50  1  0
 16 17  1  0
 16 51  1  6
 17 18  1  0
 17 52  1  0
 17 53  1  0
 18 19  1  6
 18 20  1  0
 18 25  1  0
 19 54  1  0
 20 21  1  0
 20 22  1  0
 20 55  1  1
 21 56  1  0
 22 23  1  0
 22 57  1  0
 22 58  1  0
 23 24  1  0
 23 59  1  1
 24 60  1  0
 25 61  1  1
 26 34  1  0
 26 27  1  1
 27 28  1  0
 28 33  1  0
 28 29  1  0
 28 62  1  6
 29 30  1  0
 30 31  1  0
 30 32  1  0
 30 63  1  1
 31 64  1  0
 31 65  1  0
 31 66  1  0
 32 33  1  0
 32 67  1  0
 32 68  1  0
 33 34  1  0
 33 69  1  1
 34 35  1  0
 34 70  1  6
 35 71  1  0
M  END
>  <i_m_ct_stereo_status>  (180) 
1

>  <s_m_source_file>  (180) 
/var/tmp/pbs.5076255.sched01/tmpyrjfudeo/454urwji6r.sdf

>  <i_m_source_file_index>  (180) 
34

>  <i_lp_mmshare_version>  (180) 
48012

>  <i_f3d_flags>  (180) 
0

>  <s_epik_input>  (180) 
W0NIMl0xW0NAQEhdMltDSDJdW0NAQF0zKFtPSF0pW0NAQEhdKFtPSF0pW0NIMl1bQ0BASF0oW09IXSlbQ0BdKFtDSDJdW0NIMl00KShDKD1PKU9bQ0gzXSlbQ0BIXTNbQ0BIXTFbQ0BAXShbT0hdKShbQ0hdPVtDSF1bQ0gyXTUpW0NAXTYoQzI0NSlPW0NASF03W0NASF0oW0NASF02W09IXSlbQ0gyXVtDQEBIXShPNylbQ0gzXQ==

>  <s_epik_cmdline>  (180) 
J2VwaWtfcHl0aG9uJywgJy1waHQnLCAnMi4wJywgJy1waCcsICc3LjAnLCAnLXRuJywgJzgnLCAnLW1hJywgJzIwMCcsICctaW1hZScsICc8aW5maWxlLm1hZT4nLCAnLW9tYWUnLCAnPG91dGZpbGUubWFlPic=

>  <r_lp_tautomer_probability>  (180) 
1

>  <r_epik_Ionization_Penalty>  (180) 
4.66616e-07

>  <r_epik_Ionization_Penalty_Charging>  (180) 
0

>  <r_epik_Ionization_Penalty_Neutral>  (180) 
4.66616e-07

>  <r_epik_State_Penalty>  (180) 
-0

>  <r_epik_Charging_Adjusted_Penalty>  (180) 
0

>  <i_epik_Tot_Q>  (180) 
0

>  <i_epik_Tot_abs_Q>  (180) 
0

>  <s_epik_Chemistry_Notes>  (180) 
This compound has an ester and may undergo hydrolysis at high or low pH. This compound contains an acetal/aminal-like group ( X-CH(R)-Y where X, Y are N, S, or O) that may be acid/base labile, releasing an aldehyde.

>  <s_lp_Force_Field>  (180) 
OPLS3e

>  <r_lp_Energy>  (180) 
310.049

>  <b_lp_Chiralities_Consistent>  (180) 
1

>  <s_lp_Variant>  (180) 
46:0-1

>  <s_i_glide_gridfile>  (180) 
pfpi4k_grid

>  <i_i_glide_lignum>  (180) 
34

>  <i_i_glide_rotatable_bonds>  (180) 
7

>  <r_i_docking_score>  (180) 
-3.30628

>  <r_i_glide_ligand_efficiency>  (180) 
-0.0944651

>  <r_i_glide_ligand_efficiency_sa>  (180) 
-0.309001

>  <r_i_glide_ligand_efficiency_ln>  (180) 
-0.725801

>  <r_i_glide_gscore>  (180) 
-3.30628

>  <r_i_glide_lipo>  (180) 
-0.0628206

>  <r_i_glide_hbond>  (180) 
0

>  <r_i_glide_metal>  (180) 
-0

>  <r_i_glide_rewards>  (180) 
-0.0509742

>  <r_i_glide_evdw>  (180) 
-25.1334

>  <r_i_glide_ecoul>  (180) 
-13.2927

>  <r_i_glide_erotb>  (180) 
0.0587591

>  <r_i_glide_esite>  (180) 
-0.000666551

>  <r_i_glide_emodel>  (180) 
-45.0608

>  <r_i_glide_energy>  (180) 
-38.4261

>  <r_i_glide_einternal>  (180) 
4.43649

>  <r_i_glide_intrahb_reward>  (180) 
-0

>  <i_i_glide_confnum>  (180) 
2

>  <i_i_glide_posenum>  (180) 
27

>  <r_i_glide_eff_state_penalty>  (180) 
0

>  <ligand_id>  (180) 
46

>  <original_smiles>  (180) 
COC(=O)C12CCC34CC=CC(O)(C5CC3CC(O)(C(O)CC1O)C52)C41OC2OC(C)CC2C1O

>  <smiles>  (180) 
[H]OC1([H])C([H])([H])C([H])(O[H])C2(C(=O)OC([H])([H])[H])C([H])([H])C([H])([H])C34C([H])([H])C([H])=C([H])C(O[H])(C5([H])C([H])([H])C3([H])C([H])([H])C1(O[H])C52[H])C41OC2([H])OC([H])(C([H])([H])[H])C([H])([H])C2([H])C1([H])O[H]

$$$$
46:0:2
     RDKit          3D

 71 77  0  0  1  0  0  0  0  0999 V2000
    1.2745    2.0206    9.3082 C   0  0  0  0  0  0  0  0  0  0  0  0
    0.8831    2.1273    7.9587 O   0  0  0  0  0  0  0  0  0  0  0  0
    0.2464    1.1081    7.3455 C   0  0  0  0  0  0  0  0  0  0  0  0
   -0.0831    0.0631    7.9323 O   0  0  0  0  0  0  0  0  0  0  0  0
   -0.1600    1.4168    5.8503 C   0  0  1  0  0  0  0  0  0  0  0  0
   -0.7998    0.1385    4.9871 C   0  0  0  0  0  0  0  0  0  0  0  0
    0.0371   -0.7893    3.9430 C   0  0  0  0  0  0  0  0  0  0  0  0
    1.4769   -0.2981    3.9788 C   0  0  2  0  0  0  0  0  0  0  0  0
    1.5937   -0.9095    5.5241 C   0  0  0  0  0  0  0  0  0  0  0  0
    2.6675   -0.4482    6.4919 C   0  0  0  0  0  0  0  0  0  0  0  0
    3.5843    0.3747    6.0436 C   0  0  0  0  0  0  0  0  0  0  0  0
    3.4839    0.7123    4.5862 C   0  0  2  0  0  0  0  0  0  0  0  0
    4.8101    0.9989    4.2140 O   0  0  0  0  0  0  0  0  0  0  0  0
    2.5328    2.0554    4.4685 C   0  0  1  0  0  0  0  0  0  0  0  0
    2.4028    2.0218    2.9618 C   0  0  0  0  0  0  0  0  0  0  0  0
    1.2489    1.0363    2.9696 C   0  0  2  0  0  0  0  0  0  0  0  0
    0.0435    2.0502    2.9419 C   0  0  0  0  0  0  0  0  0  0  0  0
    0.1885    3.1723    4.0281 C   0  0  1  0  0  0  0  0  0  0  0  0
    0.9273    4.3491    3.6766 O   0  0  0  0  0  0  0  0  0  0  0  0
   -1.1221    3.9023    4.3979 C   0  0  1  0  0  0  0  0  0  0  0  0
   -1.7396    4.4903    3.2563 O   0  0  0  0  0  0  0  0  0  0  0  0
   -2.1266    3.0025    5.0638 C   0  0  0  0  0  0  0  0  0  0  0  0
   -1.4447    2.2836    6.2191 C   0  0  1  0  0  0  0  0  0  0  0  0
   -2.4687    1.5490    6.8774 O   0  0  0  0  0  0  0  0  0  0  0  0
    0.9947    2.4101    5.1427 C   0  0  1  0  0  0  0  0  0  0  0  0
    3.0173   -0.5660    3.6847 C   0  0  1  0  0  0  0  0  0  0  0  0
    3.5909   -1.7979    4.2448 O   0  0  0  0  0  0  0  0  0  0  0  0
    3.9499   -2.6364    3.1992 C   0  0  2  0  0  0  0  0  0  0  0  0
    4.9170   -3.6467    3.3615 O   0  0  0  0  0  0  0  0  0  0  0  0
    5.5154   -3.7863    2.0271 C   0  0  1  0  0  0  0  0  0  0  0  0
    4.9983   -5.0462    1.3292 C   0  0  0  0  0  0  0  0  0  0  0  0
    5.1436   -2.5243    1.2178 C   0  0  0  0  0  0  0  0  0  0  0  0
    4.6552   -1.6784    2.3528 C   0  0  1  0  0  0  0  0  0  0  0  0
    3.5905   -0.6381    2.2007 C   0  0  1  0  0  0  0  0  0  0  0  0
    2.6437   -1.0715    1.2357 O   0  0  0  0  0  0  0  0  0  0  0  0
    1.6711    2.9681    9.6645 H   0  0  0  0  0  0  0  0  0  0  0  0
    2.0452    1.2591    9.3939 H   0  0  0  0  0  0  0  0  0  0  0  0
    0.4309    1.7373    9.9469 H   0  0  0  0  0  0  0  0  0  0  0  0
   -1.2642   -0.5416    5.7111 H   0  0  0  0  0  0  0  0  0  0  0  0
   -1.7063    0.4300    4.4600 H   0  0  0  0  0  0  0  0  0  0  0  0
   -0.1042   -1.8594    4.1604 H   0  0  0  0  0  0  0  0  0  0  0  0
   -0.3845   -0.6687    2.9485 H   0  0  0  0  0  0  0  0  0  0  0  0
    0.7205   -1.1583    6.1251 H   0  0  0  0  0  0  0  0  0  0  0  0
    1.7932   -1.9710    5.3974 H   0  0  0  0  0  0  0  0  0  0  0  0
    2.6767   -0.8337    7.5023 H   0  0  0  0  0  0  0  0  0  0  0  0
    4.4027    0.7789    6.6360 H   0  0  0  0  0  0  0  0  0  0  0  0
    4.7658    1.5560    3.4470 H   0  0  0  0  0  0  0  0  0  0  0  0
    3.1586    2.8981    4.7351 H   0  0  0  0  0  0  0  0  0  0  0  0
    2.1783    2.9456    2.4519 H   0  0  0  0  0  0  0  0  0  0  0  0
    3.2955    1.7876    2.4433 H   0  0  0  0  0  0  0  0  0  0  0  0
    1.1360    0.6500    1.9641 H   0  0  0  0  0  0  0  0  0  0  0  0
    0.0303    2.5186    1.9580 H   0  0  0  0  0  0  0  0  0  0  0  0
   -0.9413    1.5895    2.9262 H   0  0  0  0  0  0  0  0  0  0  0  0
    0.8457    4.5032    2.7376 H   0  0  0  0  0  0  0  0  0  0  0  0
   -0.8699    4.7143    5.0916 H   0  0  0  0  0  0  0  0  0  0  0  0
   -1.0886    4.5363    2.5565 H   0  0  0  0  0  0  0  0  0  0  0  0
   -2.9306    3.6339    5.4349 H   0  0  0  0  0  0  0  0  0  0  0  0
   -2.5921    2.3361    4.3393 H   0  0  0  0  0  0  0  0  0  0  0  0
   -1.1634    3.0885    6.9010 H   0  0  0  0  0  0  0  0  0  0  0  0
   -3.1378    2.1696    7.1380 H   0  0  0  0  0  0  0  0  0  0  0  0
    1.2261    3.1685    5.8792 H   0  0  0  0  0  0  0  0  0  0  0  0
    3.0692   -3.0899    2.7614 H   0  0  0  0  0  0  0  0  0  0  0  0
    6.5906   -3.8231    2.1841 H   0  0  0  0  0  0  0  0  0  0  0  0
    5.4636   -5.1073    0.3476 H   0  0  0  0  0  0  0  0  0  0  0  0
    3.9102   -5.0102    1.1854 H   0  0  0  0  0  0  0  0  0  0  0  0
    5.2496   -5.9482    1.8939 H   0  0  0  0  0  0  0  0  0  0  0  0
    5.9900   -2.0664    0.6872 H   0  0  0  0  0  0  0  0  0  0  0  0
    4.3214   -2.7372    0.5151 H   0  0  0  0  0  0  0  0  0  0  0  0
    5.5098   -1.2763    2.9096 H   0  0  0  0  0  0  0  0  0  0  0  0
    4.1591    0.1766    1.7973 H   0  0  0  0  0  0  0  0  0  0  0  0
    2.1513   -1.8270    1.5314 H   0  0  0  0  0  0  0  0  0  0  0  0
  1  2  1  0
  1 36  1  0
  1 37  1  0
  1 38  1  0
  2  3  1  0
  3  4  2  0
  5  3  1  1
  5 23  1  0
  5 25  1  0
  5  6  1  0
  6  7  1  0
  6 39  1  0
  6 40  1  0
  7  8  1  0
  7 41  1  0
  7 42  1  0
  8 16  1  0
  8 26  1  0
  8  9  1  1
  9 10  1  0
  9 43  1  0
  9 44  1  0
 10 11  2  0
 10 45  1  0
 11 12  1  0
 11 46  1  0
 12 13  1  6
 12 14  1  0
 12 26  1  0
 13 47  1  0
 14 25  1  0
 14 15  1  0
 14 48  1  6
 15 16  1  0
 15 49  1  0
 15 50  1  0
 16 17  1  0
 16 51  1  6
 17 18  1  0
 17 52  1  0
 17 53  1  0
 18 19  1  6
 18 20  1  0
 18 25  1  0
 19 54  1  0
 20 21  1  0
 20 22  1  0
 20 55  1  1
 21 56  1  0
 22 23  1  0
 22 57  1  0
 22 58  1  0
 23 24  1  0
 23 59  1  1
 24 60  1  0
 25 61  1  1
 26 34  1  0
 26 27  1  1
 27 28  1  0
 28 33  1  0
 28 29  1  0
 28 62  1  6
 29 30  1  0
 30 31  1  0
 30 32  1  0
 30 63  1  1
 31 64  1  0
 31 65  1  0
 31 66  1  0
 32 33  1  0
 32 67  1  0
 32 68  1  0
 33 34  1  0
 33 69  1  1
 34 35  1  0
 34 70  1  6
 35 71  1  0
M  END
>  <i_m_ct_stereo_status>  (181) 
1

>  <s_m_source_file>  (181) 
/var/tmp/pbs.5076255.sched01/tmpyrjfudeo/454urwji6r.sdf

>  <i_m_source_file_index>  (181) 
34

>  <i_lp_mmshare_version>  (181) 
48012

>  <i_f3d_flags>  (181) 
0

>  <s_epik_input>  (181) 
W0NIMl0xW0NAQEhdMltDSDJdW0NAQF0zKFtPSF0pW0NAQEhdKFtPSF0pW0NIMl1bQ0BASF0oW09IXSlbQ0BdKFtDSDJdW0NIMl00KShDKD1PKU9bQ0gzXSlbQ0BIXTNbQ0BIXTFbQ0BAXShbT0hdKShbQ0hdPVtDSF1bQ0gyXTUpW0NAXTYoQzI0NSlPW0NASF03W0NASF0oW0NASF02W09IXSlbQ0gyXVtDQEBIXShPNylbQ0gzXQ==

>  <s_epik_cmdline>  (181) 
J2VwaWtfcHl0aG9uJywgJy1waHQnLCAnMi4wJywgJy1waCcsICc3LjAnLCAnLXRuJywgJzgnLCAnLW1hJywgJzIwMCcsICctaW1hZScsICc8aW5maWxlLm1hZT4nLCAnLW9tYWUnLCAnPG91dGZpbGUubWFlPic=

>  <r_lp_tautomer_probability>  (181) 
1

>  <r_epik_Ionization_Penalty>  (181) 
4.66616e-07

>  <r_epik_Ionization_Penalty_Charging>  (181) 
0

>  <r_epik_Ionization_Penalty_Neutral>  (181) 
4.66616e-07

>  <r_epik_State_Penalty>  (181) 
-0

>  <r_epik_Charging_Adjusted_Penalty>  (181) 
0

>  <i_epik_Tot_Q>  (181) 
0

>  <i_epik_Tot_abs_Q>  (181) 
0

>  <s_epik_Chemistry_Notes>  (181) 
This compound has an ester and may undergo hydrolysis at high or low pH. This compound contains an acetal/aminal-like group ( X-CH(R)-Y where X, Y are N, S, or O) that may be acid/base labile, releasing an aldehyde.

>  <s_lp_Force_Field>  (181) 
OPLS3e

>  <r_lp_Energy>  (181) 
310.049

>  <b_lp_Chiralities_Consistent>  (181) 
1

>  <s_lp_Variant>  (181) 
46:0-1

>  <s_i_glide_gridfile>  (181) 
pfpi4k_grid

>  <i_i_glide_lignum>  (181) 
34

>  <i_i_glide_rotatable_bonds>  (181) 
7

>  <r_i_docking_score>  (181) 
-3.257

>  <r_i_glide_ligand_efficiency>  (181) 
-0.0930571

>  <r_i_glide_ligand_efficiency_sa>  (181) 
-0.304396

>  <r_i_glide_ligand_efficiency_ln>  (181) 
-0.714983

>  <r_i_glide_gscore>  (181) 
-3.257

>  <r_i_glide_lipo>  (181) 
-0.173085

>  <r_i_glide_hbond>  (181) 
0

>  <r_i_glide_metal>  (181) 
-0

>  <r_i_glide_rewards>  (181) 
-0.0508981

>  <r_i_glide_evdw>  (181) 
-26.1432

>  <r_i_glide_ecoul>  (181) 
-12.004

>  <r_i_glide_erotb>  (181) 
0.0839415

>  <r_i_glide_esite>  (181) 
-0.00918899

>  <r_i_glide_emodel>  (181) 
-45.3057

>  <r_i_glide_energy>  (181) 
-38.1473

>  <r_i_glide_einternal>  (181) 
2.41409

>  <r_i_glide_intrahb_reward>  (181) 
-0

>  <i_i_glide_confnum>  (181) 
3

>  <i_i_glide_posenum>  (181) 
30

>  <r_i_glide_eff_state_penalty>  (181) 
0

>  <ligand_id>  (181) 
46

>  <original_smiles>  (181) 
COC(=O)C12CCC34CC=CC(O)(C5CC3CC(O)(C(O)CC1O)C52)C41OC2OC(C)CC2C1O

>  <smiles>  (181) 
[H]OC1([H])C([H])([H])C([H])(O[H])C2(C(=O)OC([H])([H])[H])C([H])([H])C([H])([H])C34C([H])([H])C([H])=C([H])C(O[H])(C5([H])C([H])([H])C3([H])C([H])([H])C1(O[H])C52[H])C41OC2([H])OC([H])(C([H])([H])[H])C([H])([H])C2([H])C1([H])O[H]

$$$$
47:0:0
     RDKit          3D

 33 35  0  0  1  0  0  0  0  0999 V2000
    5.9636   -0.8378    1.5011 C   0  0  0  0  0  0  0  0  0  0  0  0
    5.3364   -2.1091    1.0908 N   0  0  0  0  0  0  0  0  0  0  0  0
    5.0806   -3.0928    1.9636 C   0  0  0  0  0  0  0  0  0  0  0  0
    5.2821   -2.9746    3.1901 O   0  0  0  0  0  0  0  0  0  0  0  0
    4.5074   -4.4372    1.4794 C   0  0  0  0  0  0  0  0  0  0  0  0
    4.8961   -4.7413    0.0255 C   0  0  0  0  0  0  0  0  0  0  0  0
    4.5704   -3.5582   -0.8784 C   0  0  1  0  0  0  0  0  0  0  0  0
    3.0731   -3.2723   -1.1136 C   0  0  0  0  0  0  0  0  0  0  0  0
    3.0509   -1.9141   -1.6702 N   0  0  2  0  0  0  0  0  0  0  0  0
    3.0683   -1.8323   -3.1833 C   0  0  0  0  0  0  0  0  0  0  0  0
    3.5381   -3.0438   -3.9904 C   0  0  0  0  0  0  0  0  0  0  0  0
    4.4304   -1.8236   -3.8537 C   0  0  0  0  0  0  0  0  0  0  0  0
    4.0963   -1.1478   -0.9347 C   0  0  0  0  0  0  0  0  0  0  0  0
    5.1039   -2.2044   -0.3793 C   0  0  1  0  0  0  0  0  0  0  0  0
    6.1852   -0.8001    2.5679 H   0  0  0  0  0  0  0  0  0  0  0  0
    5.3260    0.0157    1.2888 H   0  0  0  0  0  0  0  0  0  0  0  0
    6.9091   -0.6881    0.9821 H   0  0  0  0  0  0  0  0  0  0  0  0
    4.8668   -5.2412    2.1155 H   0  0  0  0  0  0  0  0  0  0  0  0
    3.4225   -4.4143    1.5769 H   0  0  0  0  0  0  0  0  0  0  0  0
    5.9699   -4.9383   -0.0214 H   0  0  0  0  0  0  0  0  0  0  0  0
    4.3954   -5.6420   -0.3386 H   0  0  0  0  0  0  0  0  0  0  0  0
    5.0747   -3.7646   -1.8190 H   0  0  0  0  0  0  0  0  0  0  0  0
    2.5474   -4.0169   -1.7178 H   0  0  0  0  0  0  0  0  0  0  0  0
    2.5480   -3.2079   -0.1562 H   0  0  0  0  0  0  0  0  0  0  0  0
    2.2732   -1.2320   -3.5916 H   0  0  0  0  0  0  0  0  0  0  0  0
    3.9084   -3.9394   -3.5116 H   0  0  0  0  0  0  0  0  0  0  0  0
    3.0478   -3.1754   -4.9549 H   0  0  0  0  0  0  0  0  0  0  0  0
    4.5545   -1.1859   -4.7323 H   0  0  0  0  0  0  0  0  0  0  0  0
    5.3167   -1.9278   -3.2499 H   0  0  0  0  0  0  0  0  0  0  0  0
    4.6102   -0.4165   -1.5763 H   0  0  0  0  0  0  0  0  0  0  0  0
    3.6250   -0.5816   -0.1250 H   0  0  0  0  0  0  0  0  0  0  0  0
    6.0780   -2.0565   -0.8469 H   0  0  0  0  0  0  0  0  0  0  0  0
    2.1405   -1.5019   -1.4023 H   0  0  0  0  0  0  0  0  0  0  0  0
  1  2  1  0
  1 15  1  0
  1 16  1  0
  1 17  1  0
  2 14  1  0
  2  3  1  0
  3  4  2  0
  3  5  1  0
  5  6  1  0
  5 18  1  0
  5 19  1  0
  6  7  1  0
  6 20  1  0
  6 21  1  0
  7 14  1  0
  7  8  1  0
  7 22  1  6
  8  9  1  0
  8 23  1  0
  8 24  1  0
  9 10  1  0
  9 13  1  0
  9 33  1  1
 10 12  1  0
 10 11  1  0
 10 25  1  0
 11 12  1  0
 11 26  1  0
 11 27  1  0
 12 28  1  0
 12 29  1  0
 13 14  1  0
 13 30  1  0
 13 31  1  0
 14 32  1  6
M  CHG  1   9   1
M  END
>  <i_m_ct_stereo_status>  (182) 
1

>  <s_m_source_file>  (182) 
/var/tmp/pbs.5076255.sched01/tmpyrjfudeo/454urwji6r.sdf

>  <i_m_source_file_index>  (182) 
35

>  <i_lp_mmshare_version>  (182) 
48012

>  <i_f3d_flags>  (182) 
0

>  <s_epik_input>  (182) 
W0NIMl0xW0NIMl1DKD1PKU4oW0NIM10pW0NAQEhdKFtDQEBIXTEyKVtDSDJdTihbQ0gyXTIpW0NIXTNbQ0gyXVtDSDJdMw==

>  <s_epik_cmdline>  (182) 
J2VwaWtfcHl0aG9uJywgJy1waHQnLCAnMi4wJywgJy1waCcsICc3LjAnLCAnLXRuJywgJzgnLCAnLW1hJywgJzIwMCcsICctaW1hZScsICc8aW5maWxlLm1hZT4nLCAnLW9tYWUnLCAnPG91dGZpbGUubWFlPic=

>  <r_epik_Ionization_Penalty>  (182) 
0.001165

>  <r_epik_Ionization_Penalty_Charging>  (182) 
0.001165

>  <r_epik_Ionization_Penalty_Neutral>  (182) 
1.70737e-09

>  <r_epik_State_Penalty>  (182) 
0.000767286

>  <r_epik_Charging_Adjusted_Penalty>  (182) 
0.00193229

>  <i_epik_Tot_Q>  (182) 
1

>  <i_epik_Tot_abs_Q>  (182) 
1

>  <s_lp_Force_Field>  (182) 
OPLS3e

>  <r_lp_Energy>  (182) 
20.072

>  <b_lp_Chiralities_Consistent>  (182) 
1

>  <s_lp_Variant>  (182) 
47:0-1

>  <s_i_glide_gridfile>  (182) 
pfpi4k_grid

>  <i_i_glide_lignum>  (182) 
35

>  <i_i_glide_rotatable_bonds>  (182) 
1

>  <r_i_docking_score>  (182) 
-4.25223

>  <r_i_glide_ligand_efficiency>  (182) 
-0.303731

>  <r_i_glide_ligand_efficiency_sa>  (182) 
-0.732035

>  <r_i_glide_ligand_efficiency_ln>  (182) 
-1.1685

>  <r_i_glide_gscore>  (182) 
-4.25223

>  <r_i_glide_lipo>  (182) 
-0.387913

>  <r_i_glide_hbond>  (182) 
-0.2

>  <r_i_glide_metal>  (182) 
-0

>  <r_i_glide_rewards>  (182) 
-2.22662

>  <r_i_glide_evdw>  (182) 
-14.7712

>  <r_i_glide_ecoul>  (182) 
-6.88144

>  <r_i_glide_erotb>  (182) 
0.424883

>  <r_i_glide_esite>  (182) 
-0.0918063

>  <r_i_glide_emodel>  (182) 
-23.3302

>  <r_i_glide_energy>  (182) 
-21.6526

>  <r_i_glide_einternal>  (182) 
9.65753

>  <r_i_glide_intrahb_reward>  (182) 
-0

>  <i_i_glide_confnum>  (182) 
4

>  <i_i_glide_posenum>  (182) 
34

>  <r_i_glide_eff_state_penalty>  (182) 
0

>  <ligand_id>  (182) 
47

>  <original_smiles>  (182) 
CN1C(=O)CCC2CN(C3CC3)CC21

>  <smiles>  (182) 
[H]C([H])([H])N1C(=O)C([H])([H])C([H])([H])C2([H])C1([H])C([H])([H])[N+]([H])(C1([H])C([H])([H])C1([H])[H])C2([H])[H]

$$$$
47:0:1
     RDKit          3D

 33 35  0  0  1  0  0  0  0  0999 V2000
    4.8396   -1.5903    2.6036 C   0  0  0  0  0  0  0  0  0  0  0  0
    4.5990   -2.7031    1.6672 N   0  0  0  0  0  0  0  0  0  0  0  0
    4.2277   -3.9243    2.1222 C   0  0  0  0  0  0  0  0  0  0  0  0
    3.9965   -4.1518    3.3081 O   0  0  0  0  0  0  0  0  0  0  0  0
    4.0737   -5.0948    1.1424 C   0  0  0  0  0  0  0  0  0  0  0  0
    4.9540   -4.9410   -0.0969 C   0  0  0  0  0  0  0  0  0  0  0  0
    4.7640   -3.5677   -0.7418 C   0  0  1  0  0  0  0  0  0  0  0  0
    3.4205   -3.3162   -1.4177 C   0  0  0  0  0  0  0  0  0  0  0  0
    3.3424   -1.8468   -1.5585 N   0  0  2  0  0  0  0  0  0  0  0  0
    3.9216   -1.3668   -2.8344 C   0  0  0  0  0  0  0  0  0  0  0  0
    3.1325   -0.2635   -3.5079 C   0  0  0  0  0  0  0  0  0  0  0  0
    3.0687   -1.6764   -4.0436 C   0  0  0  0  0  0  0  0  0  0  0  0
    3.9864   -1.2901   -0.3414 C   0  0  0  0  0  0  0  0  0  0  0  0
    4.8926   -2.3965    0.2480 C   0  0  1  0  0  0  0  0  0  0  0  0
    4.6790   -1.8529    3.6502 H   0  0  0  0  0  0  0  0  0  0  0  0
    4.1750   -0.7512    2.4062 H   0  0  0  0  0  0  0  0  0  0  0  0
    5.8697   -1.2386    2.5338 H   0  0  0  0  0  0  0  0  0  0  0  0
    4.3185   -6.0229    1.6593 H   0  0  0  0  0  0  0  0  0  0  0  0
    3.0244   -5.1694    0.8638 H   0  0  0  0  0  0  0  0  0  0  0  0
    5.9959   -5.0442    0.2066 H   0  0  0  0  0  0  0  0  0  0  0  0
    4.7592   -5.7417   -0.8110 H   0  0  0  0  0  0  0  0  0  0  0  0
    5.5315   -3.4502   -1.5096 H   0  0  0  0  0  0  0  0  0  0  0  0
    3.3182   -3.8535   -2.3653 H   0  0  0  0  0  0  0  0  0  0  0  0
    2.6035   -3.6139   -0.7635 H   0  0  0  0  0  0  0  0  0  0  0  0
    5.0103   -1.4093   -2.9242 H   0  0  0  0  0  0  0  0  0  0  0  0
    2.2303    0.1266   -3.0383 H   0  0  0  0  0  0  0  0  0  0  0  0
    3.6829    0.4638   -4.1067 H   0  0  0  0  0  0  0  0  0  0  0  0
    3.5710   -1.8612   -4.9876 H   0  0  0  0  0  0  0  0  0  0  0  0
    2.1210   -2.2044   -3.9192 H   0  0  0  0  0  0  0  0  0  0  0  0
    4.5796   -0.4126   -0.6061 H   0  0  0  0  0  0  0  0  0  0  0  0
    3.2121   -0.9546    0.3500 H   0  0  0  0  0  0  0  0  0  0  0  0
    5.9314   -2.0677    0.2251 H   0  0  0  0  0  0  0  0  0  0  0  0
    2.3643   -1.5545   -1.5245 H   0  0  0  0  0  0  0  0  0  0  0  0
  1  2  1  0
  1 15  1  0
  1 16  1  0
  1 17  1  0
  2 14  1  0
  2  3  1  0
  3  4  2  0
  3  5  1  0
  5  6  1  0
  5 18  1  0
  5 19  1  0
  6  7  1  0
  6 20  1  0
  6 21  1  0
  7 14  1  0
  7  8  1  0
  7 22  1  6
  8  9  1  0
  8 23  1  0
  8 24  1  0
  9 10  1  0
  9 13  1  0
  9 33  1  6
 10 12  1  0
 10 11  1  0
 10 25  1  0
 11 12  1  0
 11 26  1  0
 11 27  1  0
 12 28  1  0
 12 29  1  0
 13 14  1  0
 13 30  1  0
 13 31  1  0
 14 32  1  1
M  CHG  1   9   1
M  END
>  <i_m_ct_stereo_status>  (183) 
1

>  <s_m_source_file>  (183) 
/var/tmp/pbs.5076255.sched01/tmpyrjfudeo/454urwji6r.sdf

>  <i_m_source_file_index>  (183) 
35

>  <i_lp_mmshare_version>  (183) 
48012

>  <i_f3d_flags>  (183) 
0

>  <s_epik_input>  (183) 
W0NIMl0xW0NIMl1DKD1PKU4oW0NIM10pW0NAQEhdKFtDQEBIXTEyKVtDSDJdTihbQ0gyXTIpW0NIXTNbQ0gyXVtDSDJdMw==

>  <s_epik_cmdline>  (183) 
J2VwaWtfcHl0aG9uJywgJy1waHQnLCAnMi4wJywgJy1waCcsICc3LjAnLCAnLXRuJywgJzgnLCAnLW1hJywgJzIwMCcsICctaW1hZScsICc8aW5maWxlLm1hZT4nLCAnLW9tYWUnLCAnPG91dGZpbGUubWFlPic=

>  <r_epik_Ionization_Penalty>  (183) 
0.001165

>  <r_epik_Ionization_Penalty_Charging>  (183) 
0.001165

>  <r_epik_Ionization_Penalty_Neutral>  (183) 
1.70737e-09

>  <r_epik_State_Penalty>  (183) 
0.000767286

>  <r_epik_Charging_Adjusted_Penalty>  (183) 
0.00193229

>  <i_epik_Tot_Q>  (183) 
1

>  <i_epik_Tot_abs_Q>  (183) 
1

>  <s_lp_Force_Field>  (183) 
OPLS3e

>  <r_lp_Energy>  (183) 
20.072

>  <b_lp_Chiralities_Consistent>  (183) 
1

>  <s_lp_Variant>  (183) 
47:0-1

>  <s_i_glide_gridfile>  (183) 
pfpi4k_grid

>  <i_i_glide_lignum>  (183) 
35

>  <i_i_glide_rotatable_bonds>  (183) 
1

>  <r_i_docking_score>  (183) 
-3.89387

>  <r_i_glide_ligand_efficiency>  (183) 
-0.278133

>  <r_i_glide_ligand_efficiency_sa>  (183) 
-0.670341

>  <r_i_glide_ligand_efficiency_ln>  (183) 
-1.07002

>  <r_i_glide_gscore>  (183) 
-3.89387

>  <r_i_glide_lipo>  (183) 
-0.422817

>  <r_i_glide_hbond>  (183) 
-0.2

>  <r_i_glide_metal>  (183) 
-0

>  <r_i_glide_rewards>  (183) 
-2.11975

>  <r_i_glide_evdw>  (183) 
-14.2061

>  <r_i_glide_ecoul>  (183) 
-5.19513

>  <r_i_glide_erotb>  (183) 
0.424883

>  <r_i_glide_esite>  (183) 
-0.0866163

>  <r_i_glide_emodel>  (183) 
-25.4731

>  <r_i_glide_energy>  (183) 
-19.4012

>  <r_i_glide_einternal>  (183) 
0.289395

>  <r_i_glide_intrahb_reward>  (183) 
-0

>  <i_i_glide_confnum>  (183) 
4

>  <i_i_glide_posenum>  (183) 
30

>  <r_i_glide_eff_state_penalty>  (183) 
0

>  <ligand_id>  (183) 
47

>  <original_smiles>  (183) 
CN1C(=O)CCC2CN(C3CC3)CC21

>  <smiles>  (183) 
[H]C([H])([H])N1C(=O)C([H])([H])C([H])([H])C2([H])C1([H])C([H])([H])[N+]([H])(C1([H])C([H])([H])C1([H])[H])C2([H])[H]

$$$$
47:0:2
     RDKit          3D

 33 35  0  0  1  0  0  0  0  0999 V2000
    4.5329   -1.2470    1.4053 C   0  0  0  0  0  0  0  0  0  0  0  0
    4.4428   -2.3832    0.4715 N   0  0  0  0  0  0  0  0  0  0  0  0
    4.1467   -3.6282    0.9141 C   0  0  0  0  0  0  0  0  0  0  0  0
    3.8727   -3.8741    2.0846 O   0  0  0  0  0  0  0  0  0  0  0  0
    4.1414   -4.8061   -0.0633 C   0  0  0  0  0  0  0  0  0  0  0  0
    5.0712   -4.5723   -1.2478 C   0  0  0  0  0  0  0  0  0  0  0  0
    4.7969   -3.2324   -1.9246 C   0  0  1  0  0  0  0  0  0  0  0  0
    3.4636   -3.0938   -2.6686 C   0  0  0  0  0  0  0  0  0  0  0  0
    3.2766   -1.6430   -2.8179 N   0  0  2  0  0  0  0  0  0  0  0  0
    3.8848   -1.1469   -4.0884 C   0  0  0  0  0  0  0  0  0  0  0  0
    3.8212    0.3497   -4.3010 C   0  0  0  0  0  0  0  0  0  0  0  0
    2.8877   -0.5393   -5.0449 C   0  0  0  0  0  0  0  0  0  0  0  0
    3.8249   -1.0521   -1.5755 C   0  0  0  0  0  0  0  0  0  0  0  0
    4.7863   -2.0665   -0.9322 C   0  0  1  0  0  0  0  0  0  0  0  0
    4.3403   -1.5197    2.4419 H   0  0  0  0  0  0  0  0  0  0  0  0
    3.8095   -0.4705    1.1667 H   0  0  0  0  0  0  0  0  0  0  0  0
    5.5294   -0.8068    1.3853 H   0  0  0  0  0  0  0  0  0  0  0  0
    4.4478   -5.7106    0.4598 H   0  0  0  0  0  0  0  0  0  0  0  0
    3.1222   -4.9751   -0.4003 H   0  0  0  0  0  0  0  0  0  0  0  0
    6.0944   -4.5606   -0.8689 H   0  0  0  0  0  0  0  0  0  0  0  0
    5.0159   -5.3882   -1.9681 H   0  0  0  0  0  0  0  0  0  0  0  0
    5.5948   -3.0500   -2.6519 H   0  0  0  0  0  0  0  0  0  0  0  0
    3.4571   -3.6306   -3.6201 H   0  0  0  0  0  0  0  0  0  0  0  0
    2.6453   -3.4644   -2.0512 H   0  0  0  0  0  0  0  0  0  0  0  0
    4.7162   -1.7186   -4.4777 H   0  0  0  0  0  0  0  0  0  0  0  0
    3.4228    0.9438   -3.4922 H   0  0  0  0  0  0  0  0  0  0  0  0
    4.5313    0.8563   -4.9430 H   0  0  0  0  0  0  0  0  0  0  0  0
    3.0932   -0.5818   -6.1117 H   0  0  0  0  0  0  0  0  0  0  0  0
    1.8355   -0.4486   -4.7795 H   0  0  0  0  0  0  0  0  0  0  0  0
    4.3846   -0.1361   -1.7603 H   0  0  0  0  0  0  0  0  0  0  0  0
    3.0103   -0.7816   -0.9037 H   0  0  0  0  0  0  0  0  0  0  0  0
    5.7913   -1.6411   -0.9083 H   0  0  0  0  0  0  0  0  0  0  0  0
    2.2898   -1.4286   -2.8317 H   0  0  0  0  0  0  0  0  0  0  0  0
  1  2  1  0
  1 15  1  0
  1 16  1  0
  1 17  1  0
  2 14  1  0
  2  3  1  0
  3  4  2  0
  3  5  1  0
  5  6  1  0
  5 18  1  0
  5 19  1  0
  6  7  1  0
  6 20  1  0
  6 21  1  0
  7 14  1  0
  7  8  1  0
  7 22  1  6
  8  9  1  0
  8 23  1  0
  8 24  1  0
  9 10  1  0
  9 13  1  0
  9 33  1  6
 10 12  1  0
 10 11  1  0
 10 25  1  0
 11 12  1  0
 11 26  1  0
 11 27  1  0
 12 28  1  0
 12 29  1  0
 13 14  1  0
 13 30  1  0
 13 31  1  0
 14 32  1  1
M  CHG  1   9   1
M  END
>  <i_m_ct_stereo_status>  (184) 
1

>  <s_m_source_file>  (184) 
/var/tmp/pbs.5076255.sched01/tmpyrjfudeo/454urwji6r.sdf

>  <i_m_source_file_index>  (184) 
35

>  <i_lp_mmshare_version>  (184) 
48012

>  <i_f3d_flags>  (184) 
0

>  <s_epik_input>  (184) 
W0NIMl0xW0NIMl1DKD1PKU4oW0NIM10pW0NAQEhdKFtDQEBIXTEyKVtDSDJdTihbQ0gyXTIpW0NIXTNbQ0gyXVtDSDJdMw==

>  <s_epik_cmdline>  (184) 
J2VwaWtfcHl0aG9uJywgJy1waHQnLCAnMi4wJywgJy1waCcsICc3LjAnLCAnLXRuJywgJzgnLCAnLW1hJywgJzIwMCcsICctaW1hZScsICc8aW5maWxlLm1hZT4nLCAnLW9tYWUnLCAnPG91dGZpbGUubWFlPic=

>  <r_epik_Ionization_Penalty>  (184) 
0.001165

>  <r_epik_Ionization_Penalty_Charging>  (184) 
0.001165

>  <r_epik_Ionization_Penalty_Neutral>  (184) 
1.70737e-09

>  <r_epik_State_Penalty>  (184) 
0.000767286

>  <r_epik_Charging_Adjusted_Penalty>  (184) 
0.00193229

>  <i_epik_Tot_Q>  (184) 
1

>  <i_epik_Tot_abs_Q>  (184) 
1

>  <s_lp_Force_Field>  (184) 
OPLS3e

>  <r_lp_Energy>  (184) 
20.072

>  <b_lp_Chiralities_Consistent>  (184) 
1

>  <s_lp_Variant>  (184) 
47:0-1

>  <s_i_glide_gridfile>  (184) 
pfpi4k_grid

>  <i_i_glide_lignum>  (184) 
35

>  <i_i_glide_rotatable_bonds>  (184) 
1

>  <r_i_docking_score>  (184) 
-3.21323

>  <r_i_glide_ligand_efficiency>  (184) 
-0.229516

>  <r_i_glide_ligand_efficiency_sa>  (184) 
-0.553167

>  <r_i_glide_ligand_efficiency_ln>  (184) 
-0.882983

>  <r_i_glide_gscore>  (184) 
-3.21323

>  <r_i_glide_lipo>  (184) 
-0.33216

>  <r_i_glide_hbond>  (184) 
0

>  <r_i_glide_metal>  (184) 
-0

>  <r_i_glide_rewards>  (184) 
-2.10096

>  <r_i_glide_evdw>  (184) 
-13.3237

>  <r_i_glide_ecoul>  (184) 
-3.36962

>  <r_i_glide_erotb>  (184) 
0.424883

>  <r_i_glide_esite>  (184) 
-0.0333608

>  <r_i_glide_emodel>  (184) 
-20.5855

>  <r_i_glide_energy>  (184) 
-16.6933

>  <r_i_glide_einternal>  (184) 
1.71689

>  <r_i_glide_intrahb_reward>  (184) 
-0

>  <i_i_glide_confnum>  (184) 
4

>  <i_i_glide_posenum>  (184) 
3

>  <r_i_glide_eff_state_penalty>  (184) 
0

>  <ligand_id>  (184) 
47

>  <original_smiles>  (184) 
CN1C(=O)CCC2CN(C3CC3)CC21

>  <smiles>  (184) 
[H]C([H])([H])N1C(=O)C([H])([H])C([H])([H])C2([H])C1([H])C([H])([H])[N+]([H])(C1([H])C([H])([H])C1([H])[H])C2([H])[H]

$$$$
48:0:0
     RDKit          3D

 38 40  0  0  1  0  0  0  0  0999 V2000
    3.2937    6.0663    3.4862 C   0  0  0  0  0  0  0  0  0  0  0  0
    2.9430    4.8547    4.1401 O   0  0  0  0  0  0  0  0  0  0  0  0
    1.8598    4.1942    3.5630 C   0  0  2  0  0  0  0  0  0  0  0  0
    0.5559    4.8607    4.0359 C   0  0  0  0  0  0  0  0  0  0  0  0
   -0.5593    4.0187    3.7161 N   0  0  0  0  0  0  0  0  0  0  0  0
   -1.8167    4.5018    3.6860 N   0  0  0  0  0  0  0  0  0  0  0  0
   -2.5388    3.4323    3.3463 C   0  0  0  0  0  0  0  0  0  0  0  0
   -1.7544    2.2565    3.1916 C   0  0  0  0  0  0  0  0  0  0  0  0
   -0.4715    2.6782    3.4319 C   0  0  0  0  0  0  0  0  0  0  0  0
    0.8453    1.9801    3.3863 C   0  0  0  0  0  0  0  0  0  0  0  0
    1.2733    1.6195    1.9420 C   0  0  0  0  0  0  0  0  0  0  0  0
    2.6048    0.8586    1.9260 C   0  0  0  0  0  0  0  0  0  0  0  0
    2.4917   -0.3616    2.7294 N   0  0  0  0  0  0  0  0  0  0  0  0
    2.7048   -1.6295    2.2696 C   0  0  0  0  0  0  0  0  0  0  0  0
    3.2412   -1.8365    0.8574 C   0  0  0  0  0  0  0  0  0  0  0  0
    2.5468   -2.6116    2.9802 O   0  0  0  0  0  0  0  0  0  0  0  0
    2.1664   -0.0842    4.1354 C   0  0  0  0  0  0  0  0  0  0  0  0
    0.8401    0.6942    4.2429 C   0  0  0  0  0  0  0  0  0  0  0  0
    1.8287    2.8537    3.9772 O   0  0  0  0  0  0  0  0  0  0  0  0
    4.1246    6.5465    4.0038 H   0  0  0  0  0  0  0  0  0  0  0  0
    2.4685    6.7761    3.4686 H   0  0  0  0  0  0  0  0  0  0  0  0
    3.6065    5.8739    2.4635 H   0  0  0  0  0  0  0  0  0  0  0  0
    1.9635    4.2320    2.4769 H   0  0  0  0  0  0  0  0  0  0  0  0
    0.5908    4.9710    5.1204 H   0  0  0  0  0  0  0  0  0  0  0  0
    0.4206    5.8381    3.5744 H   0  0  0  0  0  0  0  0  0  0  0  0
   -3.6144    3.5607    3.2316 H   0  0  0  0  0  0  0  0  0  0  0  0
   -2.0760    1.2629    2.9204 H   0  0  0  0  0  0  0  0  0  0  0  0
    0.5006    1.0008    1.4735 H   0  0  0  0  0  0  0  0  0  0  0  0
    1.3623    2.5037    1.3129 H   0  0  0  0  0  0  0  0  0  0  0  0
    2.8536    0.7051    0.8823 H   0  0  0  0  0  0  0  0  0  0  0  0
    3.3998    1.4883    2.3232 H   0  0  0  0  0  0  0  0  0  0  0  0
    4.2527   -1.4455    0.7770 H   0  0  0  0  0  0  0  0  0  0  0  0
    2.6181   -1.3615    0.1016 H   0  0  0  0  0  0  0  0  0  0  0  0
    3.2706   -2.8964    0.5994 H   0  0  0  0  0  0  0  0  0  0  0  0
    2.0953   -0.9834    4.7477 H   0  0  0  0  0  0  0  0  0  0  0  0
    2.9749    0.4999    4.5821 H   0  0  0  0  0  0  0  0  0  0  0  0
    0.6405    0.9519    5.2858 H   0  0  0  0  0  0  0  0  0  0  0  0
    0.0286    0.0379    3.9228 H   0  0  0  0  0  0  0  0  0  0  0  0
  1  2  1  0
  1 20  1  0
  1 21  1  0
  1 22  1  0
  2  3  1  0
  3 19  1  0
  3  4  1  0
  3 23  1  6
  4  5  1  0
  4 24  1  0
  4 25  1  0
  5  9  1  0
  5  6  1  0
  6  7  2  0
  7  8  1  0
  7 26  1  0
  8  9  2  0
  8 27  1  0
  9 10  1  0
 10 18  1  0
 10 11  1  0
 10 19  1  0
 11 12  1  0
 11 28  1  0
 11 29  1  0
 12 13  1  0
 12 30  1  0
 12 31  1  0
 13 14  1  0
 13 17  1  0
 14 15  1  0
 14 16  2  0
 15 32  1  0
 15 33  1  0
 15 34  1  0
 17 18  1  0
 17 35  1  0
 17 36  1  0
 18 37  1  0
 18 38  1  0
M  END
>  <i_m_ct_stereo_status>  (185) 
1

>  <s_m_source_file>  (185) 
/var/tmp/pbs.5076255.sched01/tmpyrjfudeo/454urwji6r.sdf

>  <i_m_source_file_index>  (185) 
36

>  <i_lp_mmshare_version>  (185) 
48012

>  <i_f3d_flags>  (185) 
0

>  <s_epik_input>  (185) 
W0NIM11PW0NAQEhdKE8xKVtDSDJdbihuW2NIXVtjSF0yKWMyQzEzW0NIMl1bQ0gyXU4oQyg9TylbQ0gzXSlbQ0gyXVtDSDJdMw==

>  <s_epik_cmdline>  (185) 
J2VwaWtfcHl0aG9uJywgJy1waHQnLCAnMi4wJywgJy1waCcsICc3LjAnLCAnLXRuJywgJzgnLCAnLW1hJywgJzIwMCcsICctaW1hZScsICc8aW5maWxlLm1hZT4nLCAnLW9tYWUnLCAnPG91dGZpbGUubWFlPic=

>  <r_lp_tautomer_probability>  (185) 
1

>  <r_epik_Ionization_Penalty>  (185) 
0.00129929

>  <r_epik_Ionization_Penalty_Charging>  (185) 
0

>  <r_epik_Ionization_Penalty_Neutral>  (185) 
0.00129929

>  <r_epik_State_Penalty>  (185) 
-0

>  <r_epik_Charging_Adjusted_Penalty>  (185) 
0

>  <i_epik_Tot_Q>  (185) 
0

>  <i_epik_Tot_abs_Q>  (185) 
0

>  <s_epik_Chemistry_Notes>  (185) 
This compound contains an acetal/aminal-like group ( X-CH(R)-Y where X, Y are N, S, or O) that may be acid/base labile, releasing an aldehyde.

>  <s_lp_Force_Field>  (185) 
OPLS3e

>  <r_lp_Energy>  (185) 
12.4984

>  <b_lp_Chiralities_Consistent>  (185) 
1

>  <s_lp_Variant>  (185) 
48:0-1

>  <s_i_glide_gridfile>  (185) 
pfpi4k_grid

>  <i_i_glide_lignum>  (185) 
36

>  <i_i_glide_rotatable_bonds>  (185) 
2

>  <r_i_docking_score>  (185) 
-3.76916

>  <r_i_glide_ligand_efficiency>  (185) 
-0.198377

>  <r_i_glide_ligand_efficiency_sa>  (185) 
-0.52935

>  <r_i_glide_ligand_efficiency_ln>  (185) 
-0.955564

>  <r_i_glide_gscore>  (185) 
-3.76916

>  <r_i_glide_lipo>  (185) 
-0.100389

>  <r_i_glide_hbond>  (185) 
-0.16

>  <r_i_glide_metal>  (185) 
-0

>  <r_i_glide_rewards>  (185) 
-1.60017

>  <r_i_glide_evdw>  (185) 
-18.5323

>  <r_i_glide_ecoul>  (185) 
-5.35591

>  <r_i_glide_erotb>  (185) 
0

>  <r_i_glide_esite>  (185) 
-0.178603

>  <r_i_glide_emodel>  (185) 
-27.9196

>  <r_i_glide_energy>  (185) 
-23.8882

>  <r_i_glide_einternal>  (185) 
4.77108

>  <r_i_glide_intrahb_reward>  (185) 
-0

>  <i_i_glide_confnum>  (185) 
2

>  <i_i_glide_posenum>  (185) 
3

>  <r_i_glide_eff_state_penalty>  (185) 
0

>  <ligand_id>  (185) 
48

>  <original_smiles>  (185) 
COC1Cn2nccc2C2(CCN(C(C)=O)CC2)O1

>  <smiles>  (185) 
[H]c1nn2c(c1[H])C1(OC([H])(OC([H])([H])[H])C2([H])[H])C([H])([H])C([H])([H])N(C(=O)C([H])([H])[H])C([H])([H])C1([H])[H]

$$$$
48:0:1
     RDKit          3D

 38 40  0  0  1  0  0  0  0  0999 V2000
    3.4306    5.9534    3.4704 C   0  0  0  0  0  0  0  0  0  0  0  0
    2.9782    4.8162    4.1917 O   0  0  0  0  0  0  0  0  0  0  0  0
    1.8888    4.1765    3.6057 C   0  0  2  0  0  0  0  0  0  0  0  0
    0.5952    4.8677    4.0759 C   0  0  0  0  0  0  0  0  0  0  0  0
   -0.5338    4.0473    3.7195 N   0  0  0  0  0  0  0  0  0  0  0  0
   -1.7874    4.5433    3.6849 N   0  0  0  0  0  0  0  0  0  0  0  0
   -2.5268    3.4950    3.3498 C   0  0  0  0  0  0  0  0  0  0  0  0
   -1.7570    2.3071    3.1878 C   0  0  0  0  0  0  0  0  0  0  0  0
   -0.4735    2.7057    3.4317 C   0  0  0  0  0  0  0  0  0  0  0  0
    0.8484    1.9845    3.3945 C   0  0  0  0  0  0  0  0  0  0  0  0
    1.2744    1.6200    1.9538 C   0  0  0  0  0  0  0  0  0  0  0  0
    2.5788    0.8038    1.9251 C   0  0  0  0  0  0  0  0  0  0  0  0
    2.4687   -0.3947    2.7717 N   0  0  0  0  0  0  0  0  0  0  0  0
    2.7696   -1.6341    2.3067 C   0  0  0  0  0  0  0  0  0  0  0  0
    2.7438   -2.8230    3.2671 C   0  0  0  0  0  0  0  0  0  0  0  0
    3.0946   -1.8517    1.1413 O   0  0  0  0  0  0  0  0  0  0  0  0
    2.1249   -0.0866    4.1682 C   0  0  0  0  0  0  0  0  0  0  0  0
    0.8080    0.7028    4.2461 C   0  0  0  0  0  0  0  0  0  0  0  0
    1.8352    2.8337    4.0104 O   0  0  0  0  0  0  0  0  0  0  0  0
    4.2565    6.4292    4.0004 H   0  0  0  0  0  0  0  0  0  0  0  0
    2.6420    6.6962    3.3555 H   0  0  0  0  0  0  0  0  0  0  0  0
    3.7849    5.6716    2.4817 H   0  0  0  0  0  0  0  0  0  0  0  0
    1.9939    4.2162    2.5208 H   0  0  0  0  0  0  0  0  0  0  0  0
    0.6162    4.9570    5.1631 H   0  0  0  0  0  0  0  0  0  0  0  0
    0.4953    5.8559    3.6267 H   0  0  0  0  0  0  0  0  0  0  0  0
   -3.5913    3.6260    3.2394 H   0  0  0  0  0  0  0  0  0  0  0  0
   -2.0968    1.3219    2.9134 H   0  0  0  0  0  0  0  0  0  0  0  0
    0.4850    1.0383    1.4710 H   0  0  0  0  0  0  0  0  0  0  0  0
    1.3970    2.5092    1.3356 H   0  0  0  0  0  0  0  0  0  0  0  0
    2.8028    0.5640    0.8841 H   0  0  0  0  0  0  0  0  0  0  0  0
    3.4138    1.4091    2.2813 H   0  0  0  0  0  0  0  0  0  0  0  0
    1.7235   -3.0276    3.5885 H   0  0  0  0  0  0  0  0  0  0  0  0
    3.3674   -2.6381    4.1429 H   0  0  0  0  0  0  0  0  0  0  0  0
    3.1313   -3.7174    2.7781 H   0  0  0  0  0  0  0  0  0  0  0  0
    2.0024   -0.9644    4.8004 H   0  0  0  0  0  0  0  0  0  0  0  0
    2.9422    0.4860    4.6109 H   0  0  0  0  0  0  0  0  0  0  0  0
    0.5976    0.9549    5.2862 H   0  0  0  0  0  0  0  0  0  0  0  0
   -0.0087    0.0592    3.9137 H   0  0  0  0  0  0  0  0  0  0  0  0
  1  2  1  0
  1 20  1  0
  1 21  1  0
  1 22  1  0
  2  3  1  0
  3 19  1  0
  3  4  1  0
  3 23  1  6
  4  5  1  0
  4 24  1  0
  4 25  1  0
  5  9  1  0
  5  6  1  0
  6  7  2  0
  7  8  1  0
  7 26  1  0
  8  9  2  0
  8 27  1  0
  9 10  1  0
 10 18  1  0
 10 11  1  0
 10 19  1  0
 11 12  1  0
 11 28  1  0
 11 29  1  0
 12 13  1  0
 12 30  1  0
 12 31  1  0
 13 14  1  0
 13 17  1  0
 14 15  1  0
 14 16  2  0
 15 32  1  0
 15 33  1  0
 15 34  1  0
 17 18  1  0
 17 35  1  0
 17 36  1  0
 18 37  1  0
 18 38  1  0
M  END
>  <i_m_ct_stereo_status>  (186) 
1

>  <s_m_source_file>  (186) 
/var/tmp/pbs.5076255.sched01/tmpyrjfudeo/454urwji6r.sdf

>  <i_m_source_file_index>  (186) 
36

>  <i_lp_mmshare_version>  (186) 
48012

>  <i_f3d_flags>  (186) 
0

>  <s_epik_input>  (186) 
W0NIM11PW0NAQEhdKE8xKVtDSDJdbihuW2NIXVtjSF0yKWMyQzEzW0NIMl1bQ0gyXU4oQyg9TylbQ0gzXSlbQ0gyXVtDSDJdMw==

>  <s_epik_cmdline>  (186) 
J2VwaWtfcHl0aG9uJywgJy1waHQnLCAnMi4wJywgJy1waCcsICc3LjAnLCAnLXRuJywgJzgnLCAnLW1hJywgJzIwMCcsICctaW1hZScsICc8aW5maWxlLm1hZT4nLCAnLW9tYWUnLCAnPG91dGZpbGUubWFlPic=

>  <r_lp_tautomer_probability>  (186) 
1

>  <r_epik_Ionization_Penalty>  (186) 
0.00129929

>  <r_epik_Ionization_Penalty_Charging>  (186) 
0

>  <r_epik_Ionization_Penalty_Neutral>  (186) 
0.00129929

>  <r_epik_State_Penalty>  (186) 
-0

>  <r_epik_Charging_Adjusted_Penalty>  (186) 
0

>  <i_epik_Tot_Q>  (186) 
0

>  <i_epik_Tot_abs_Q>  (186) 
0

>  <s_epik_Chemistry_Notes>  (186) 
This compound contains an acetal/aminal-like group ( X-CH(R)-Y where X, Y are N, S, or O) that may be acid/base labile, releasing an aldehyde.

>  <s_lp_Force_Field>  (186) 
OPLS3e

>  <r_lp_Energy>  (186) 
12.4984

>  <b_lp_Chiralities_Consistent>  (186) 
1

>  <s_lp_Variant>  (186) 
48:0-1

>  <s_i_glide_gridfile>  (186) 
pfpi4k_grid

>  <i_i_glide_lignum>  (186) 
36

>  <i_i_glide_rotatable_bonds>  (186) 
2

>  <r_i_docking_score>  (186) 
-3.64088

>  <r_i_glide_ligand_efficiency>  (186) 
-0.191625

>  <r_i_glide_ligand_efficiency_sa>  (186) 
-0.511334

>  <r_i_glide_ligand_efficiency_ln>  (186) 
-0.923042

>  <r_i_glide_gscore>  (186) 
-3.64088

>  <r_i_glide_lipo>  (186) 
-0.0899036

>  <r_i_glide_hbond>  (186) 
-0.16

>  <r_i_glide_metal>  (186) 
-0

>  <r_i_glide_rewards>  (186) 
-1.60017

>  <r_i_glide_evdw>  (186) 
-18.8789

>  <r_i_glide_ecoul>  (186) 
-4.49962

>  <r_i_glide_erotb>  (186) 
0

>  <r_i_glide_esite>  (186) 
-0.171923

>  <r_i_glide_emodel>  (186) 
-28.2263

>  <r_i_glide_energy>  (186) 
-23.3785

>  <r_i_glide_einternal>  (186) 
2.9513

>  <r_i_glide_intrahb_reward>  (186) 
-0

>  <i_i_glide_confnum>  (186) 
4

>  <i_i_glide_posenum>  (186) 
9

>  <r_i_glide_eff_state_penalty>  (186) 
0

>  <ligand_id>  (186) 
48

>  <original_smiles>  (186) 
COC1Cn2nccc2C2(CCN(C(C)=O)CC2)O1

>  <smiles>  (186) 
[H]c1nn2c(c1[H])C1(OC([H])(OC([H])([H])[H])C2([H])[H])C([H])([H])C([H])([H])N(C(=O)C([H])([H])[H])C([H])([H])C1([H])[H]

$$$$
48:0:2
     RDKit          3D

 38 40  0  0  1  0  0  0  0  0999 V2000
   -1.8180    2.6608    9.5899 C   0  0  0  0  0  0  0  0  0  0  0  0
   -2.1840    1.7443    8.5661 O   0  0  0  0  0  0  0  0  0  0  0  0
   -1.5634    1.9695    7.3463 C   0  0  2  0  0  0  0  0  0  0  0  0
   -2.3795    3.0132    6.5691 C   0  0  0  0  0  0  0  0  0  0  0  0
   -1.9212    3.0454    5.2094 N   0  0  0  0  0  0  0  0  0  0  0  0
   -2.1840    4.0911    4.4067 N   0  0  0  0  0  0  0  0  0  0  0  0
   -1.6556    3.7366    3.2484 C   0  0  0  0  0  0  0  0  0  0  0  0
   -1.0329    2.4561    3.2921 C   0  0  0  0  0  0  0  0  0  0  0  0
   -1.2277    2.0422    4.5806 C   0  0  0  0  0  0  0  0  0  0  0  0
   -0.8088    0.8157    5.3387 C   0  0  0  0  0  0  0  0  0  0  0  0
    0.7192    0.7942    5.5949 C   0  0  0  0  0  0  0  0  0  0  0  0
    1.1728   -0.5033    6.2870 C   0  0  0  0  0  0  0  0  0  0  0  0
    0.7415   -1.6838    5.5224 N   0  0  0  0  0  0  0  0  0  0  0  0
    1.6100   -2.6587    5.1549 C   0  0  0  0  0  0  0  0  0  0  0  0
    1.0737   -3.9366    4.5062 C   0  0  0  0  0  0  0  0  0  0  0  0
    2.8200   -2.5774    5.3456 O   0  0  0  0  0  0  0  0  0  0  0  0
   -0.7100   -1.7361    5.3058 C   0  0  0  0  0  0  0  0  0  0  0  0
   -1.2053   -0.4686    4.5900 C   0  0  0  0  0  0  0  0  0  0  0  0
   -1.5304    0.7880    6.5895 O   0  0  0  0  0  0  0  0  0  0  0  0
   -2.3581    2.4318   10.5109 H   0  0  0  0  0  0  0  0  0  0  0  0
   -2.0559    3.6904    9.3159 H   0  0  0  0  0  0  0  0  0  0  0  0
   -0.7490    2.6033    9.8082 H   0  0  0  0  0  0  0  0  0  0  0  0
   -0.5399    2.3033    7.5256 H   0  0  0  0  0  0  0  0  0  0  0  0
   -3.4260    2.7112    6.5685 H   0  0  0  0  0  0  0  0  0  0  0  0
   -2.2858    3.9976    7.0237 H   0  0  0  0  0  0  0  0  0  0  0  0
   -1.7427    4.4259    2.4211 H   0  0  0  0  0  0  0  0  0  0  0  0
   -0.5171    1.9386    2.4954 H   0  0  0  0  0  0  0  0  0  0  0  0
    1.2499    0.8858    4.6433 H   0  0  0  0  0  0  0  0  0  0  0  0
    1.0452    1.6535    6.1832 H   0  0  0  0  0  0  0  0  0  0  0  0
    2.2559   -0.4550    6.4155 H   0  0  0  0  0  0  0  0  0  0  0  0
    0.7575   -0.5640    7.2939 H   0  0  0  0  0  0  0  0  0  0  0  0
    0.6779   -3.7210    3.5148 H   0  0  0  0  0  0  0  0  0  0  0  0
    0.2894   -4.3910    5.1132 H   0  0  0  0  0  0  0  0  0  0  0  0
    1.8684   -4.6760    4.3991 H   0  0  0  0  0  0  0  0  0  0  0  0
   -1.0237   -2.5825    4.7007 H   0  0  0  0  0  0  0  0  0  0  0  0
   -1.2058   -1.8492    6.2703 H   0  0  0  0  0  0  0  0  0  0  0  0
   -2.2900   -0.5065    4.4768 H   0  0  0  0  0  0  0  0  0  0  0  0
   -0.7875   -0.4463    3.5807 H   0  0  0  0  0  0  0  0  0  0  0  0
  1  2  1  0
  1 20  1  0
  1 21  1  0
  1 22  1  0
  2  3  1  0
  3 19  1  0
  3  4  1  0
  3 23  1  1
  4  5  1  0
  4 24  1  0
  4 25  1  0
  5  9  1  0
  5  6  1  0
  6  7  2  0
  7  8  1  0
  7 26  1  0
  8  9  2  0
  8 27  1  0
  9 10  1  0
 10 18  1  0
 10 11  1  0
 10 19  1  0
 11 12  1  0
 11 28  1  0
 11 29  1  0
 12 13  1  0
 12 30  1  0
 12 31  1  0
 13 14  1  0
 13 17  1  0
 14 15  1  0
 14 16  2  0
 15 32  1  0
 15 33  1  0
 15 34  1  0
 17 18  1  0
 17 35  1  0
 17 36  1  0
 18 37  1  0
 18 38  1  0
M  END
>  <i_m_ct_stereo_status>  (187) 
1

>  <s_m_source_file>  (187) 
/var/tmp/pbs.5076255.sched01/tmpyrjfudeo/454urwji6r.sdf

>  <i_m_source_file_index>  (187) 
36

>  <i_lp_mmshare_version>  (187) 
48012

>  <i_f3d_flags>  (187) 
0

>  <s_epik_input>  (187) 
W0NIM11PW0NAQEhdKE8xKVtDSDJdbihuW2NIXVtjSF0yKWMyQzEzW0NIMl1bQ0gyXU4oQyg9TylbQ0gzXSlbQ0gyXVtDSDJdMw==

>  <s_epik_cmdline>  (187) 
J2VwaWtfcHl0aG9uJywgJy1waHQnLCAnMi4wJywgJy1waCcsICc3LjAnLCAnLXRuJywgJzgnLCAnLW1hJywgJzIwMCcsICctaW1hZScsICc8aW5maWxlLm1hZT4nLCAnLW9tYWUnLCAnPG91dGZpbGUubWFlPic=

>  <r_lp_tautomer_probability>  (187) 
1

>  <r_epik_Ionization_Penalty>  (187) 
0.00129929

>  <r_epik_Ionization_Penalty_Charging>  (187) 
0

>  <r_epik_Ionization_Penalty_Neutral>  (187) 
0.00129929

>  <r_epik_State_Penalty>  (187) 
-0

>  <r_epik_Charging_Adjusted_Penalty>  (187) 
0

>  <i_epik_Tot_Q>  (187) 
0

>  <i_epik_Tot_abs_Q>  (187) 
0

>  <s_epik_Chemistry_Notes>  (187) 
This compound contains an acetal/aminal-like group ( X-CH(R)-Y where X, Y are N, S, or O) that may be acid/base labile, releasing an aldehyde.

>  <s_lp_Force_Field>  (187) 
OPLS3e

>  <r_lp_Energy>  (187) 
12.4984

>  <b_lp_Chiralities_Consistent>  (187) 
1

>  <s_lp_Variant>  (187) 
48:0-1

>  <s_i_glide_gridfile>  (187) 
pfpi4k_grid

>  <i_i_glide_lignum>  (187) 
36

>  <i_i_glide_rotatable_bonds>  (187) 
2

>  <r_i_docking_score>  (187) 
-3.55205

>  <r_i_glide_ligand_efficiency>  (187) 
-0.18695

>  <r_i_glide_ligand_efficiency_sa>  (187) 
-0.498857

>  <r_i_glide_ligand_efficiency_ln>  (187) 
-0.900521

>  <r_i_glide_gscore>  (187) 
-3.55205

>  <r_i_glide_lipo>  (187) 
-0.132253

>  <r_i_glide_hbond>  (187) 
-0.149347

>  <r_i_glide_metal>  (187) 
-0

>  <r_i_glide_rewards>  (187) 
-1.60136

>  <r_i_glide_evdw>  (187) 
-16.2706

>  <r_i_glide_ecoul>  (187) 
-5.48025

>  <r_i_glide_erotb>  (187) 
0

>  <r_i_glide_esite>  (187) 
-0.0335187

>  <r_i_glide_emodel>  (187) 
-26.4596

>  <r_i_glide_energy>  (187) 
-21.7509

>  <r_i_glide_einternal>  (187) 
2.90171

>  <r_i_glide_intrahb_reward>  (187) 
-0

>  <i_i_glide_confnum>  (187) 
4

>  <i_i_glide_posenum>  (187) 
29

>  <r_i_glide_eff_state_penalty>  (187) 
0

>  <ligand_id>  (187) 
48

>  <original_smiles>  (187) 
COC1Cn2nccc2C2(CCN(C(C)=O)CC2)O1

>  <smiles>  (187) 
[H]c1nn2c(c1[H])C1(OC([H])(OC([H])([H])[H])C2([H])[H])C([H])([H])C([H])([H])N(C(=O)C([H])([H])[H])C([H])([H])C1([H])[H]

$$$$
49:0:0
     RDKit          3D

 62 67  0  0  1  0  0  0  0  0999 V2000
    2.8236   -1.0583   -2.8651 C   0  0  0  0  0  0  0  0  0  0  0  0
    3.9404   -1.2902   -1.8881 C   0  0  2  0  0  0  0  0  0  0  0  0
    5.0591   -1.9794   -2.6417 C   0  0  0  0  0  0  0  0  0  0  0  0
    5.5418   -3.3966   -2.1924 C   0  0  1  0  0  0  0  0  0  0  0  0
    6.9356   -3.4162   -2.2466 O   0  0  0  0  0  0  0  0  0  0  0  0
    4.9766   -4.0110   -0.8596 C   0  0  2  0  0  0  0  0  0  0  0  0
    4.9991   -5.4007   -1.0736 O   0  0  0  0  0  0  0  0  0  0  0  0
    3.5308   -3.4955   -0.8611 C   0  0  1  0  0  0  0  0  0  0  0  0
    2.6065   -4.3297   -0.0000 C   0  0  0  0  0  0  0  0  0  0  0  0
    3.0173   -4.4883    1.4576 C   0  0  1  0  0  0  0  0  0  0  0  0
    2.3080   -3.5180    2.2159 O   0  0  0  0  0  0  0  0  0  0  0  0
    2.6358   -5.8752    1.9221 C   0  0  0  0  0  0  0  0  0  0  0  0
    1.6752   -6.3540    2.7261 C   0  0  0  0  0  0  0  0  0  0  0  0
    0.6885   -5.6853    3.3299 O   0  0  0  0  0  0  0  0  0  0  0  0
    2.0224   -7.7442    3.0401 C   0  0  0  0  0  0  0  0  0  0  0  0
    1.3673   -8.5479    3.6961 O   0  0  0  0  0  0  0  0  0  0  0  0
    3.3785   -8.1299    2.4429 C   0  0  0  0  0  0  0  0  0  0  0  0
    4.3771   -8.5108    3.5560 C   0  0  0  0  0  0  0  0  0  0  0  0
    3.1975   -9.3299    1.4920 C   0  0  0  0  0  0  0  0  0  0  0  0
    3.7370   -6.8367    1.6488 C   0  0  2  0  0  0  0  0  0  0  0  0
    4.9811   -5.9745    1.9502 C   0  0  1  0  0  0  0  0  0  0  0  0
    6.0624   -6.5306    1.2346 O   0  0  0  0  0  0  0  0  0  0  0  0
    4.5938   -4.4699    1.6406 C   0  0  2  0  0  0  0  0  0  0  0  0
    4.7297   -3.9293    2.9389 O   0  0  0  0  0  0  0  0  0  0  0  0
    5.5286   -3.6929    0.5575 C   0  0  1  0  0  0  0  0  0  0  0  0
    6.9791   -3.6234    1.0348 C   0  0  0  0  0  0  0  0  0  0  0  0
    6.6034   -2.4108    1.7613 O   0  0  0  0  0  0  0  0  0  0  0  0
    5.7523   -2.1600    0.6602 C   0  0  1  0  0  0  0  0  0  0  0  0
    6.4725   -1.4465   -0.2977 O   0  0  0  0  0  0  0  0  0  0  0  0
    4.4130   -1.4898    0.6861 C   0  0  1  0  0  0  0  0  0  0  0  0
    4.4740   -0.0864    0.7247 O   0  0  0  0  0  0  0  0  0  0  0  0
    3.5621   -1.9673   -0.5493 C   0  0  1  0  0  0  0  0  0  0  0  0
    2.3109   -1.9810   -3.1623 H   0  0  0  0  0  0  0  0  0  0  0  0
    3.0981   -0.4968   -3.7656 H   0  0  0  0  0  0  0  0  0  0  0  0
    2.1994   -0.3948   -2.3045 H   0  0  0  0  0  0  0  0  0  0  0  0
    4.2476   -0.2687   -1.6785 H   0  0  0  0  0  0  0  0  0  0  0  0
    4.8785   -1.9852   -3.7113 H   0  0  0  0  0  0  0  0  0  0  0  0
    5.8122   -1.2202   -2.5008 H   0  0  0  0  0  0  0  0  0  0  0  0
    5.2108   -4.0315   -3.0231 H   0  0  0  0  0  0  0  0  0  0  0  0
    7.2721   -2.9972   -1.4474 H   0  0  0  0  0  0  0  0  0  0  0  0
    4.3898   -5.5673   -1.7802 H   0  0  0  0  0  0  0  0  0  0  0  0
    3.1041   -3.6261   -1.8663 H   0  0  0  0  0  0  0  0  0  0  0  0
    1.5989   -3.9636   -0.1425 H   0  0  0  0  0  0  0  0  0  0  0  0
    2.5645   -5.3267   -0.4229 H   0  0  0  0  0  0  0  0  0  0  0  0
    2.3989   -2.6880    1.7752 H   0  0  0  0  0  0  0  0  0  0  0  0
    0.8064   -4.7605    3.1373 H   0  0  0  0  0  0  0  0  0  0  0  0
    5.3859   -8.6298    3.1535 H   0  0  0  0  0  0  0  0  0  0  0  0
    4.0912   -9.4451    4.0425 H   0  0  0  0  0  0  0  0  0  0  0  0
    4.3998   -7.7522    4.3372 H   0  0  0  0  0  0  0  0  0  0  0  0
    4.1129   -9.5482    0.9411 H   0  0  0  0  0  0  0  0  0  0  0  0
    2.4014   -9.1392    0.7763 H   0  0  0  0  0  0  0  0  0  0  0  0
    2.9084  -10.2372    2.0182 H   0  0  0  0  0  0  0  0  0  0  0  0
    3.6880   -7.0373    0.5840 H   0  0  0  0  0  0  0  0  0  0  0  0
    5.2402   -6.0537    3.0086 H   0  0  0  0  0  0  0  0  0  0  0  0
    5.8820   -6.3915    0.3070 H   0  0  0  0  0  0  0  0  0  0  0  0
    4.5967   -2.9991    2.8814 H   0  0  0  0  0  0  0  0  0  0  0  0
    7.2547   -4.4351    1.6845 H   0  0  0  0  0  0  0  0  0  0  0  0
    7.7364   -3.4536    0.2749 H   0  0  0  0  0  0  0  0  0  0  0  0
    5.7775   -0.9889   -0.7780 H   0  0  0  0  0  0  0  0  0  0  0  0
    3.9019   -1.7634    1.5887 H   0  0  0  0  0  0  0  0  0  0  0  0
    3.5884    0.2146    0.8768 H   0  0  0  0  0  0  0  0  0  0  0  0
    2.6066   -1.6502   -0.2259 H   0  0  0  0  0  0  0  0  0  0  0  0
  1  2  1  0
  1 33  1  0
  1 34  1  0
  1 35  1  0
  2 32  1  0
  2  3  1  0
  2 36  1  1
  3  4  1  0
  3 37  1  0
  3 38  1  0
  4  5  1  0
  4  6  1  0
  4 39  1  6
  5 40  1  0
  6 25  1  0
  6  7  1  6
  6  8  1  0
  7 41  1  0
  8 32  1  0
  8  9  1  0
  8 42  1  6
  9 10  1  0
  9 43  1  0
  9 44  1  0
 10 23  1  0
 10 11  1  1
 10 12  1  0
 11 45  1  0
 12 20  1  0
 12 13  2  0
 13 15  1  0
 13 14  1  0
 14 46  1  0
 15 17  1  0
 15 16  2  0
 17 20  1  0
 17 18  1  0
 17 19  1  0
 18 47  1  0
 18 48  1  0
 18 49  1  0
 19 50  1  0
 19 51  1  0
 19 52  1  0
 20 21  1  0
 20 53  1  6
 21 22  1  0
 21 23  1  0
 21 54  1  1
 22 55  1  0
 23 24  1  1
 23 25  1  0
 24 56  1  0
 25 28  1  0
 25 26  1  6
 26 27  1  0
 26 57  1  0
 26 58  1  0
 27 28  1  0
 28 29  1  6
 28 30  1  0
 29 59  1  0
 30 31  1  0
 30 32  1  0
 30 60  1  1
 31 61  1  0
 32 62  1  1
M  END
>  <i_m_ct_stereo_status>  (188) 
1

>  <s_m_source_file>  (188) 
/var/tmp/pbs.5076255.sched01/tmpyrjfudeo/454urwji6r.sdf

>  <i_m_source_file_index>  (188) 
37

>  <i_lp_mmshare_version>  (188) 
48012

>  <i_f3d_flags>  (188) 
0

>  <s_epik_input>  (188) 
W09IXVtDQEBIXTFbQ0gyXVtDQEBIXShbQ0gzXSlbQ0BIXShbQ0BIXShbT0hdKVtDQEBdMihbT0hdKU9bQ0gyXTMpW0NAQEhdKFtDQEBdMShbQ0BdMjM0KVtPSF0pW0NIMl1bQ0BdNShbT0hdKVtDQEBIXTZbQ0BIXShDKFtDSDNdKShbQ0gzXSlDKD1PKUM2PU8pW0NAQEhdKFtPSF0pW0NAQF00NVtPSF0=

>  <s_epik_cmdline>  (188) 
J2VwaWtfcHl0aG9uJywgJy1waHQnLCAnMi4wJywgJy1waCcsICc3LjAnLCAnLXRuJywgJzgnLCAnLW1hJywgJzIwMCcsICctaW1hZScsICc8aW5maWxlLm1hZT4nLCAnLW9tYWUnLCAnPG91dGZpbGUubWFlPic=

>  <r_lp_tautomer_probability>  (188) 
1

>  <r_epik_Ionization_Penalty>  (188) 
0.000198044

>  <r_epik_Ionization_Penalty_Charging>  (188) 
0

>  <r_epik_Ionization_Penalty_Neutral>  (188) 
0.000198044

>  <r_epik_State_Penalty>  (188) 
-0

>  <r_epik_Charging_Adjusted_Penalty>  (188) 
0

>  <i_epik_Tot_Q>  (188) 
0

>  <i_epik_Tot_abs_Q>  (188) 
0

>  <s_lp_Force_Field>  (188) 
OPLS3e

>  <r_lp_Energy>  (188) 
92.322

>  <b_lp_Chiralities_Consistent>  (188) 
1

>  <s_lp_Variant>  (188) 
49:0-1

>  <s_i_glide_gridfile>  (188) 
pfpi4k_grid

>  <i_i_glide_lignum>  (188) 
37

>  <i_i_glide_rotatable_bonds>  (188) 
8

>  <r_i_docking_score>  (188) 
-4.3569

>  <r_i_glide_ligand_efficiency>  (188) 
-0.136153

>  <r_i_glide_ligand_efficiency_sa>  (188) 
-0.432259

>  <r_i_glide_ligand_efficiency_ln>  (188) 
-0.975628

>  <r_i_glide_gscore>  (188) 
-4.3569

>  <r_i_glide_lipo>  (188) 
-0.555428

>  <r_i_glide_hbond>  (188) 
0

>  <r_i_glide_metal>  (188) 
-0

>  <r_i_glide_rewards>  (188) 
-1.90658

>  <r_i_glide_evdw>  (188) 
-18.274

>  <r_i_glide_ecoul>  (188) 
-6.48628

>  <r_i_glide_erotb>  (188) 
0

>  <r_i_glide_esite>  (188) 
-0.00825332

>  <r_i_glide_emodel>  (188) 
-48.5038

>  <r_i_glide_energy>  (188) 
-24.7603

>  <r_i_glide_einternal>  (188) 
2.13182

>  <r_i_glide_intrahb_reward>  (188) 
-1.5

>  <i_i_glide_confnum>  (188) 
2

>  <i_i_glide_posenum>  (188) 
20

>  <r_i_glide_eff_state_penalty>  (188) 
0

>  <ligand_id>  (188) 
49

>  <original_smiles>  (188) 
CC1CC(O)C2(O)C3CC4(O)C5C(=O)C(=O)C(C)(C)C5C(O)C4(O)C24COC4(O)C(O)C13

>  <smiles>  (188) 
[H]OC1=C2C([H])(C([H])(O[H])C3(O[H])C2(O[H])C([H])([H])C2([H])C4([H])C([H])(O[H])C5(O[H])OC([H])([H])C53C2(O[H])C([H])(O[H])C([H])([H])C4([H])C([H])([H])[H])C(C([H])([H])[H])(C([H])([H])[H])C1=O

$$$$
49:0:1
     RDKit          3D

 62 67  0  0  1  0  0  0  0  0999 V2000
    0.3744   -7.2670    5.0840 C   0  0  0  0  0  0  0  0  0  0  0  0
    1.6544   -7.8390    4.4397 C   0  0  2  0  0  0  0  0  0  0  0  0
    2.8840   -7.7758    5.4064 C   0  0  0  0  0  0  0  0  0  0  0  0
    4.0833   -6.8363    5.0299 C   0  0  1  0  0  0  0  0  0  0  0  0
    5.3142   -7.4233    5.3744 O   0  0  0  0  0  0  0  0  0  0  0  0
    4.1286   -6.1938    3.6000 C   0  0  2  0  0  0  0  0  0  0  0  0
    4.8200   -4.9890    3.8252 O   0  0  0  0  0  0  0  0  0  0  0  0
    2.6511   -5.8958    3.2674 C   0  0  1  0  0  0  0  0  0  0  0  0
    2.4808   -4.8185    2.1986 C   0  0  0  0  0  0  0  0  0  0  0  0
    3.1681   -5.1381    0.8742 C   0  0  1  0  0  0  0  0  0  0  0  0
    2.1380   -5.7243    0.0832 O   0  0  0  0  0  0  0  0  0  0  0  0
    3.6829   -3.8621    0.2385 C   0  0  0  0  0  0  0  0  0  0  0  0
    3.2827   -3.0791   -0.7697 C   0  0  0  0  0  0  0  0  0  0  0  0
    2.1462   -3.1458   -1.4632 O   0  0  0  0  0  0  0  0  0  0  0  0
    4.3289   -2.0967   -1.0627 C   0  0  0  0  0  0  0  0  0  0  0  0
    4.2971   -1.1908   -1.8948 O   0  0  0  0  0  0  0  0  0  0  0  0
    5.5506   -2.3668   -0.1771 C   0  0  0  0  0  0  0  0  0  0  0  0
    6.7637   -2.7166   -1.0584 C   0  0  0  0  0  0  0  0  0  0  0  0
    5.8517   -1.1083    0.6611 C   0  0  0  0  0  0  0  0  0  0  0  0
    5.0383   -3.5356    0.7325 C   0  0  2  0  0  0  0  0  0  0  0  0
    5.6735   -4.9326    0.7499 C   0  0  1  0  0  0  0  0  0  0  0  0
    6.7448   -4.9099    1.6652 O   0  0  0  0  0  0  0  0  0  0  0  0
    4.5108   -5.9792    1.0383 C   0  0  2  0  0  0  0  0  0  0  0  0
    4.5687   -6.7652   -0.1344 O   0  0  0  0  0  0  0  0  0  0  0  0
    4.6996   -6.9427    2.3311 C   0  0  1  0  0  0  0  0  0  0  0  0
    5.9656   -7.8060    2.1835 C   0  0  0  0  0  0  0  0  0  0  0  0
    5.1505   -8.7748    1.4325 O   0  0  0  0  0  0  0  0  0  0  0  0
    4.0851   -8.3913    2.3108 C   0  0  1  0  0  0  0  0  0  0  0  0
    4.1791   -9.2563    3.4201 O   0  0  0  0  0  0  0  0  0  0  0  0
    2.5899   -8.2580    2.0015 C   0  0  1  0  0  0  0  0  0  0  0  0
    1.9266   -9.5030    2.0005 O   0  0  0  0  0  0  0  0  0  0  0  0
    1.9011   -7.2520    3.0226 C   0  0  1  0  0  0  0  0  0  0  0  0
    0.4567   -6.2006    5.2898 H   0  0  0  0  0  0  0  0  0  0  0  0
    0.1430   -7.7687    6.0227 H   0  0  0  0  0  0  0  0  0  0  0  0
   -0.4868   -7.4125    4.4314 H   0  0  0  0  0  0  0  0  0  0  0  0
    1.4212   -8.8952    4.3268 H   0  0  0  0  0  0  0  0  0  0  0  0
    2.5332   -7.4602    6.3851 H   0  0  0  0  0  0  0  0  0  0  0  0
    3.2256   -8.7959    5.6137 H   0  0  0  0  0  0  0  0  0  0  0  0
    3.9636   -6.0020    5.7218 H   0  0  0  0  0  0  0  0  0  0  0  0
    5.3605   -8.2485    4.9044 H   0  0  0  0  0  0  0  0  0  0  0  0
    5.7335   -5.2110    3.9548 H   0  0  0  0  0  0  0  0  0  0  0  0
    2.2179   -5.4168    4.1483 H   0  0  0  0  0  0  0  0  0  0  0  0
    1.4220   -4.5997    2.0576 H   0  0  0  0  0  0  0  0  0  0  0  0
    2.8998   -3.8957    2.5930 H   0  0  0  0  0  0  0  0  0  0  0  0
    2.4493   -5.8138   -0.8142 H   0  0  0  0  0  0  0  0  0  0  0  0
    1.9107   -2.2490   -1.6887 H   0  0  0  0  0  0  0  0  0  0  0  0
    7.6016   -3.0603   -0.4494 H   0  0  0  0  0  0  0  0  0  0  0  0
    7.0978   -1.8584   -1.6429 H   0  0  0  0  0  0  0  0  0  0  0  0
    6.5195   -3.4963   -1.7801 H   0  0  0  0  0  0  0  0  0  0  0  0
    6.6369   -1.3044    1.3919 H   0  0  0  0  0  0  0  0  0  0  0  0
    4.9682   -0.7790    1.2115 H   0  0  0  0  0  0  0  0  0  0  0  0
    6.1699   -0.2596    0.0525 H   0  0  0  0  0  0  0  0  0  0  0  0
    4.9094   -3.1755    1.7493 H   0  0  0  0  0  0  0  0  0  0  0  0
    6.1034   -5.1396   -0.2333 H   0  0  0  0  0  0  0  0  0  0  0  0
    7.2066   -5.7358    1.5804 H   0  0  0  0  0  0  0  0  0  0  0  0
    4.3504   -6.2261   -0.8855 H   0  0  0  0  0  0  0  0  0  0  0  0
    6.7582   -7.3837    1.5647 H   0  0  0  0  0  0  0  0  0  0  0  0
    6.3868   -8.2089    3.1043 H   0  0  0  0  0  0  0  0  0  0  0  0
    3.9179  -10.1144    3.1015 H   0  0  0  0  0  0  0  0  0  0  0  0
    2.4905   -7.8960    0.9902 H   0  0  0  0  0  0  0  0  0  0  0  0
    1.1911   -9.4424    1.4016 H   0  0  0  0  0  0  0  0  0  0  0  0
    0.9292   -7.0352    2.5857 H   0  0  0  0  0  0  0  0  0  0  0  0
  1  2  1  0
  1 33  1  0
  1 34  1  0
  1 35  1  0
  2 32  1  0
  2  3  1  0
  2 36  1  6
  3  4  1  0
  3 37  1  0
  3 38  1  0
  4  5  1  0
  4  6  1  0
  4 39  1  1
  5 40  1  0
  6 25  1  0
  6  7  1  1
  6  8  1  0
  7 41  1  0
  8 32  1  0
  8  9  1  0
  8 42  1  1
  9 10  1  0
  9 43  1  0
  9 44  1  0
 10 23  1  0
 10 11  1  6
 10 12  1  0
 11 45  1  0
 12 20  1  0
 12 13  2  0
 13 15  1  0
 13 14  1  0
 14 46  1  0
 15 17  1  0
 15 16  2  0
 17 20  1  0
 17 18  1  0
 17 19  1  0
 18 47  1  0
 18 48  1  0
 18 49  1  0
 19 50  1  0
 19 51  1  0
 19 52  1  0
 20 21  1  0
 20 53  1  1
 21 22  1  0
 21 23  1  0
 21 54  1  6
 22 55  1  0
 23 24  1  6
 23 25  1  0
 24 56  1  0
 25 28  1  0
 25 26  1  1
 26 27  1  0
 26 57  1  0
 26 58  1  0
 27 28  1  0
 28 29  1  1
 28 30  1  0
 29 59  1  0
 30 31  1  0
 30 32  1  0
 30 60  1  6
 31 61  1  0
 32 62  1  6
M  END
>  <i_m_ct_stereo_status>  (189) 
1

>  <s_m_source_file>  (189) 
/var/tmp/pbs.5076255.sched01/tmpyrjfudeo/454urwji6r.sdf

>  <i_m_source_file_index>  (189) 
37

>  <i_lp_mmshare_version>  (189) 
48012

>  <i_f3d_flags>  (189) 
0

>  <s_epik_input>  (189) 
W09IXVtDQEBIXTFbQ0gyXVtDQEBIXShbQ0gzXSlbQ0BIXShbQ0BIXShbT0hdKVtDQEBdMihbT0hdKU9bQ0gyXTMpW0NAQEhdKFtDQEBdMShbQ0BdMjM0KVtPSF0pW0NIMl1bQ0BdNShbT0hdKVtDQEBIXTZbQ0BIXShDKFtDSDNdKShbQ0gzXSlDKD1PKUM2PU8pW0NAQEhdKFtPSF0pW0NAQF00NVtPSF0=

>  <s_epik_cmdline>  (189) 
J2VwaWtfcHl0aG9uJywgJy1waHQnLCAnMi4wJywgJy1waCcsICc3LjAnLCAnLXRuJywgJzgnLCAnLW1hJywgJzIwMCcsICctaW1hZScsICc8aW5maWxlLm1hZT4nLCAnLW9tYWUnLCAnPG91dGZpbGUubWFlPic=

>  <r_lp_tautomer_probability>  (189) 
1

>  <r_epik_Ionization_Penalty>  (189) 
0.000198044

>  <r_epik_Ionization_Penalty_Charging>  (189) 
0

>  <r_epik_Ionization_Penalty_Neutral>  (189) 
0.000198044

>  <r_epik_State_Penalty>  (189) 
-0

>  <r_epik_Charging_Adjusted_Penalty>  (189) 
0

>  <i_epik_Tot_Q>  (189) 
0

>  <i_epik_Tot_abs_Q>  (189) 
0

>  <s_lp_Force_Field>  (189) 
OPLS3e

>  <r_lp_Energy>  (189) 
92.322

>  <b_lp_Chiralities_Consistent>  (189) 
1

>  <s_lp_Variant>  (189) 
49:0-1

>  <s_i_glide_gridfile>  (189) 
pfpi4k_grid

>  <i_i_glide_lignum>  (189) 
37

>  <i_i_glide_rotatable_bonds>  (189) 
8

>  <r_i_docking_score>  (189) 
-4.22587

>  <r_i_glide_ligand_efficiency>  (189) 
-0.132058

>  <r_i_glide_ligand_efficiency_sa>  (189) 
-0.419259

>  <r_i_glide_ligand_efficiency_ln>  (189) 
-0.946288

>  <r_i_glide_gscore>  (189) 
-4.22587

>  <r_i_glide_lipo>  (189) 
-0.369272

>  <r_i_glide_hbond>  (189) 
0

>  <r_i_glide_metal>  (189) 
-0

>  <r_i_glide_rewards>  (189) 
-0.810448

>  <r_i_glide_evdw>  (189) 
-29.2829

>  <r_i_glide_ecoul>  (189) 
-10.3165

>  <r_i_glide_erotb>  (189) 
0

>  <r_i_glide_esite>  (189) 
-0.0345245

>  <r_i_glide_emodel>  (189) 
-51.0753

>  <r_i_glide_energy>  (189) 
-39.5994

>  <r_i_glide_einternal>  (189) 
6.49449

>  <r_i_glide_intrahb_reward>  (189) 
-0.5

>  <i_i_glide_confnum>  (189) 
1

>  <i_i_glide_posenum>  (189) 
40

>  <r_i_glide_eff_state_penalty>  (189) 
0

>  <ligand_id>  (189) 
49

>  <original_smiles>  (189) 
CC1CC(O)C2(O)C3CC4(O)C5C(=O)C(=O)C(C)(C)C5C(O)C4(O)C24COC4(O)C(O)C13

>  <smiles>  (189) 
[H]OC1=C2C([H])(C([H])(O[H])C3(O[H])C2(O[H])C([H])([H])C2([H])C4([H])C([H])(O[H])C5(O[H])OC([H])([H])C53C2(O[H])C([H])(O[H])C([H])([H])C4([H])C([H])([H])[H])C(C([H])([H])[H])(C([H])([H])[H])C1=O

$$$$
49:0:2
     RDKit          3D

 62 67  0  0  1  0  0  0  0  0999 V2000
    1.4177   -5.3471    6.0128 C   0  0  0  0  0  0  0  0  0  0  0  0
    2.5198   -6.1536    5.3005 C   0  0  2  0  0  0  0  0  0  0  0  0
    3.9448   -5.8274    5.8574 C   0  0  0  0  0  0  0  0  0  0  0  0
    4.9859   -5.1262    4.9155 C   0  0  1  0  0  0  0  0  0  0  0  0
    6.2746   -5.6741    5.1341 O   0  0  0  0  0  0  0  0  0  0  0  0
    4.6529   -4.9804    3.3853 C   0  0  2  0  0  0  0  0  0  0  0  0
    5.3681   -3.8244    3.0124 O   0  0  0  0  0  0  0  0  0  0  0  0
    3.1246   -4.7307    3.3464 C   0  0  1  0  0  0  0  0  0  0  0  0
    2.6433   -4.0550    2.0592 C   0  0  0  0  0  0  0  0  0  0  0  0
    3.0058   -4.7996    0.7749 C   0  0  1  0  0  0  0  0  0  0  0  0
    1.8675   -5.5702    0.3842 O   0  0  0  0  0  0  0  0  0  0  0  0
    3.3030   -3.7773   -0.3111 C   0  0  0  0  0  0  0  0  0  0  0  0
    2.6505   -3.3641   -1.3946 C   0  0  0  0  0  0  0  0  0  0  0  0
    1.4275   -3.6987   -1.8264 O   0  0  0  0  0  0  0  0  0  0  0  0
    3.5679   -2.5790   -2.2220 C   0  0  0  0  0  0  0  0  0  0  0  0
    3.3516   -2.0155   -3.2877 O   0  0  0  0  0  0  0  0  0  0  0  0
    4.9653   -2.6063   -1.5985 C   0  0  0  0  0  0  0  0  0  0  0  0
    5.9487   -3.2771   -2.5813 C   0  0  0  0  0  0  0  0  0  0  0  0
    5.4151   -1.1701   -1.3009 C   0  0  0  0  0  0  0  0  0  0  0  0
    4.7413   -3.3818   -0.2659 C   0  0  2  0  0  0  0  0  0  0  0  0
    5.3969   -4.7558    0.0232 C   0  0  1  0  0  0  0  0  0  0  0  0
    6.6765   -4.5006    0.5638 O   0  0  0  0  0  0  0  0  0  0  0  0
    4.3800   -5.6055    0.8972 C   0  0  2  0  0  0  0  0  0  0  0  0
    4.1894   -6.7147    0.0729 O   0  0  0  0  0  0  0  0  0  0  0  0
    4.9190   -6.1132    2.3437 C   0  0  1  0  0  0  0  0  0  0  0  0
    6.1505   -7.0158    2.1723 C   0  0  0  0  0  0  0  0  0  0  0  0
    5.2309   -8.1466    2.0095 O   0  0  0  0  0  0  0  0  0  0  0  0
    4.3665   -7.4652    2.9394 C   0  0  1  0  0  0  0  0  0  0  0  0
    4.7050   -7.9810    4.2170 O   0  0  0  0  0  0  0  0  0  0  0  0
    2.8402   -7.3726    2.9555 C   0  0  1  0  0  0  0  0  0  0  0  0
    2.2151   -8.5184    3.5035 O   0  0  0  0  0  0  0  0  0  0  0  0
    2.3944   -6.0619    3.7511 C   0  0  1  0  0  0  0  0  0  0  0  0
    1.4999   -4.2744    5.8492 H   0  0  0  0  0  0  0  0  0  0  0  0
    1.4425   -5.5263    7.0853 H   0  0  0  0  0  0  0  0  0  0  0  0
    0.4362   -5.6645    5.6667 H   0  0  0  0  0  0  0  0  0  0  0  0
    2.3058   -7.1805    5.5814 H   0  0  0  0  0  0  0  0  0  0  0  0
    3.8346   -5.1901    6.7310 H   0  0  0  0  0  0  0  0  0  0  0  0
    4.3672   -6.7365    6.2954 H   0  0  0  0  0  0  0  0  0  0  0  0
    4.9923   -4.1000    5.3077 H   0  0  0  0  0  0  0  0  0  0  0  0
    6.9130   -5.0629    4.7946 H   0  0  0  0  0  0  0  0  0  0  0  0
    6.2844   -3.9991    3.1895 H   0  0  0  0  0  0  0  0  0  0  0  0
    2.9130   -3.9738    4.1127 H   0  0  0  0  0  0  0  0  0  0  0  0
    1.5744   -3.8473    2.1267 H   0  0  0  0  0  0  0  0  0  0  0  0
    3.1222   -3.0751    2.0444 H   0  0  0  0  0  0  0  0  0  0  0  0
    2.1827   -6.2293   -0.2227 H   0  0  0  0  0  0  0  0  0  0  0  0
    1.0869   -4.3573   -1.2157 H   0  0  0  0  0  0  0  0  0  0  0  0
    6.9303   -3.4425   -2.1326 H   0  0  0  0  0  0  0  0  0  0  0  0
    6.1014   -2.6744   -3.4752 H   0  0  0  0  0  0  0  0  0  0  0  0
    5.5615   -4.2309   -2.9406 H   0  0  0  0  0  0  0  0  0  0  0  0
    6.3476   -1.1656   -0.7434 H   0  0  0  0  0  0  0  0  0  0  0  0
    4.6658   -0.6498   -0.7021 H   0  0  0  0  0  0  0  0  0  0  0  0
    5.5311   -0.5942   -2.2145 H   0  0  0  0  0  0  0  0  0  0  0  0
    4.8655   -2.7145    0.5943 H   0  0  0  0  0  0  0  0  0  0  0  0
    5.5743   -5.2762   -0.9239 H   0  0  0  0  0  0  0  0  0  0  0  0
    6.5466   -3.9622    1.3402 H   0  0  0  0  0  0  0  0  0  0  0  0
    4.0319   -6.3723   -0.8148 H   0  0  0  0  0  0  0  0  0  0  0  0
    6.7606   -6.8447    1.2866 H   0  0  0  0  0  0  0  0  0  0  0  0
    6.7851   -7.1566    3.0396 H   0  0  0  0  0  0  0  0  0  0  0  0
    5.6363   -8.0880    4.2619 H   0  0  0  0  0  0  0  0  0  0  0  0
    2.4822   -7.3149    1.9329 H   0  0  0  0  0  0  0  0  0  0  0  0
    2.6772   -8.7159    4.3175 H   0  0  0  0  0  0  0  0  0  0  0  0
    1.3441   -5.9535    3.5100 H   0  0  0  0  0  0  0  0  0  0  0  0
  1  2  1  0
  1 33  1  0
  1 34  1  0
  1 35  1  0
  2 32  1  0
  2  3  1  0
  2 36  1  1
  3  4  1  0
  3 37  1  0
  3 38  1  0
  4  5  1  0
  4  6  1  0
  4 39  1  1
  5 40  1  0
  6 25  1  0
  6  7  1  6
  6  8  1  0
  7 41  1  0
  8 32  1  0
  8  9  1  0
  8 42  1  1
  9 10  1  0
  9 43  1  0
  9 44  1  0
 10 23  1  0
 10 11  1  6
 10 12  1  0
 11 45  1  0
 12 20  1  0
 12 13  2  0
 13 15  1  0
 13 14  1  0
 14 46  1  0
 15 17  1  0
 15 16  2  0
 17 20  1  0
 17 18  1  0
 17 19  1  0
 18 47  1  0
 18 48  1  0
 18 49  1  0
 19 50  1  0
 19 51  1  0
 19 52  1  0
 20 21  1  0
 20 53  1  1
 21 22  1  0
 21 23  1  0
 21 54  1  6
 22 55  1  0
 23 24  1  6
 23 25  1  0
 24 56  1  0
 25 28  1  0
 25 26  1  6
 26 27  1  0
 26 57  1  0
 26 58  1  0
 27 28  1  0
 28 29  1  1
 28 30  1  0
 29 59  1  0
 30 31  1  0
 30 32  1  0
 30 60  1  6
 31 61  1  0
 32 62  1  1
M  END
>  <i_m_ct_stereo_status>  (190) 
1

>  <s_m_source_file>  (190) 
/var/tmp/pbs.5076255.sched01/tmpyrjfudeo/454urwji6r.sdf

>  <i_m_source_file_index>  (190) 
37

>  <i_lp_mmshare_version>  (190) 
48012

>  <i_f3d_flags>  (190) 
0

>  <s_epik_input>  (190) 
W09IXVtDQEBIXTFbQ0gyXVtDQEBIXShbQ0gzXSlbQ0BIXShbQ0BIXShbT0hdKVtDQEBdMihbT0hdKU9bQ0gyXTMpW0NAQEhdKFtDQEBdMShbQ0BdMjM0KVtPSF0pW0NIMl1bQ0BdNShbT0hdKVtDQEBIXTZbQ0BIXShDKFtDSDNdKShbQ0gzXSlDKD1PKUM2PU8pW0NAQEhdKFtPSF0pW0NAQF00NVtPSF0=

>  <s_epik_cmdline>  (190) 
J2VwaWtfcHl0aG9uJywgJy1waHQnLCAnMi4wJywgJy1waCcsICc3LjAnLCAnLXRuJywgJzgnLCAnLW1hJywgJzIwMCcsICctaW1hZScsICc8aW5maWxlLm1hZT4nLCAnLW9tYWUnLCAnPG91dGZpbGUubWFlPic=

>  <r_lp_tautomer_probability>  (190) 
1

>  <r_epik_Ionization_Penalty>  (190) 
0.000198044

>  <r_epik_Ionization_Penalty_Charging>  (190) 
0

>  <r_epik_Ionization_Penalty_Neutral>  (190) 
0.000198044

>  <r_epik_State_Penalty>  (190) 
-0

>  <r_epik_Charging_Adjusted_Penalty>  (190) 
0

>  <i_epik_Tot_Q>  (190) 
0

>  <i_epik_Tot_abs_Q>  (190) 
0

>  <s_lp_Force_Field>  (190) 
OPLS3e

>  <r_lp_Energy>  (190) 
92.322

>  <b_lp_Chiralities_Consistent>  (190) 
1

>  <s_lp_Variant>  (190) 
49:0-1

>  <s_i_glide_gridfile>  (190) 
pfpi4k_grid

>  <i_i_glide_lignum>  (190) 
37

>  <i_i_glide_rotatable_bonds>  (190) 
8

>  <r_i_docking_score>  (190) 
-3.4165

>  <r_i_glide_ligand_efficiency>  (190) 
-0.106766

>  <r_i_glide_ligand_efficiency_sa>  (190) 
-0.33896

>  <r_i_glide_ligand_efficiency_ln>  (190) 
-0.765047

>  <r_i_glide_gscore>  (190) 
-3.4165

>  <r_i_glide_lipo>  (190) 
-0.600244

>  <r_i_glide_hbond>  (190) 
0

>  <r_i_glide_metal>  (190) 
-0

>  <r_i_glide_rewards>  (190) 
-0.810448

>  <r_i_glide_evdw>  (190) 
-28.0438

>  <r_i_glide_ecoul>  (190) 
-3.87463

>  <r_i_glide_erotb>  (190) 
0

>  <r_i_glide_esite>  (190) 
-0.0224208

>  <r_i_glide_emodel>  (190) 
-44.5853

>  <r_i_glide_energy>  (190) 
-31.9184

>  <r_i_glide_einternal>  (190) 
0.809498

>  <r_i_glide_intrahb_reward>  (190) 
-0.5

>  <i_i_glide_confnum>  (190) 
1

>  <i_i_glide_posenum>  (190) 
12

>  <r_i_glide_eff_state_penalty>  (190) 
0

>  <ligand_id>  (190) 
49

>  <original_smiles>  (190) 
CC1CC(O)C2(O)C3CC4(O)C5C(=O)C(=O)C(C)(C)C5C(O)C4(O)C24COC4(O)C(O)C13

>  <smiles>  (190) 
[H]OC1=C2C([H])(C([H])(O[H])C3(O[H])C2(O[H])C([H])([H])C2([H])C4([H])C([H])(O[H])C5(O[H])OC([H])([H])C53C2(O[H])C([H])(O[H])C([H])([H])C4([H])C([H])([H])[H])C(C([H])([H])[H])(C([H])([H])[H])C1=O

$$$$
49:1:0
     RDKit          3D

 62 67  0  0  1  0  0  0  0  0999 V2000
    4.0728   -2.4660   -2.7283 C   0  0  0  0  0  0  0  0  0  0  0  0
    4.3178   -2.1342   -1.2394 C   0  0  2  0  0  0  0  0  0  0  0  0
    5.8069   -2.3161   -0.8394 C   0  0  0  0  0  0  0  0  0  0  0  0
    6.1562   -3.5366    0.0596 C   0  0  1  0  0  0  0  0  0  0  0  0
    7.2611   -3.2023    0.8580 O   0  0  0  0  0  0  0  0  0  0  0  0
    5.0249   -4.3255    0.8435 C   0  0  2  0  0  0  0  0  0  0  0  0
    5.7342   -5.5345    0.9958 O   0  0  0  0  0  0  0  0  0  0  0  0
    3.7742   -4.3299   -0.1097 C   0  0  1  0  0  0  0  0  0  0  0  0
    2.5344   -5.2016    0.3037 C   0  0  0  0  0  0  0  0  0  0  0  0
    2.7966   -5.9441    1.6063 C   0  0  2  0  0  0  0  0  0  0  0  0
    3.6827   -6.9928    1.2787 O   0  0  0  0  0  0  0  0  0  0  0  0
    1.7505   -6.6454    2.4320 C   0  0  0  0  0  0  0  0  0  0  0  0
    0.4445   -6.8792    2.3066 C   0  0  0  0  0  0  0  0  0  0  0  0
   -0.3469   -6.6890    1.2650 O   0  0  0  0  0  0  0  0  0  0  0  0
   -0.0673   -7.2524    3.6343 C   0  0  0  0  0  0  0  0  0  0  0  0
   -1.2202   -7.5816    3.8933 O   0  0  0  0  0  0  0  0  0  0  0  0
    1.0262   -7.0625    4.6931 C   0  0  0  0  0  0  0  0  0  0  0  0
    0.7154   -5.8147    5.5433 C   0  0  0  0  0  0  0  0  0  0  0  0
    1.1332   -8.2993    5.6163 C   0  0  0  0  0  0  0  0  0  0  0  0
    2.3006   -6.9113    3.8029 C   0  0  2  0  0  0  0  0  0  0  0  0
    3.4175   -5.8095    3.9633 C   0  0  1  0  0  0  0  0  0  0  0  0
    4.6680   -6.4701    4.0071 O   0  0  0  0  0  0  0  0  0  0  0  0
    3.3079   -4.9376    2.6650 C   0  0  2  0  0  0  0  0  0  0  0  0
    2.2000   -4.1552    3.0531 O   0  0  0  0  0  0  0  0  0  0  0  0
    4.4517   -3.8905    2.2265 C   0  0  1  0  0  0  0  0  0  0  0  0
    5.1271   -3.3061    3.4706 C   0  0  0  0  0  0  0  0  0  0  0  0
    4.0169   -2.3467    3.5423 O   0  0  0  0  0  0  0  0  0  0  0  0
    4.1071   -2.3551    2.1121 C   0  0  1  0  0  0  0  0  0  0  0  0
    5.0766   -1.3800    1.7475 O   0  0  0  0  0  0  0  0  0  0  0  0
    2.9885   -2.1300    1.0851 C   0  0  1  0  0  0  0  0  0  0  0  0
    2.7269   -0.7560    0.8965 O   0  0  0  0  0  0  0  0  0  0  0  0
    3.3182   -2.8486   -0.2978 C   0  0  1  0  0  0  0  0  0  0  0  0
    4.2869   -3.5061   -2.9716 H   0  0  0  0  0  0  0  0  0  0  0  0
    4.6780   -1.8385   -3.3780 H   0  0  0  0  0  0  0  0  0  0  0  0
    3.0336   -2.2711   -2.9887 H   0  0  0  0  0  0  0  0  0  0  0  0
    4.1095   -1.0673   -1.1828 H   0  0  0  0  0  0  0  0  0  0  0  0
    6.3921   -2.4413   -1.7488 H   0  0  0  0  0  0  0  0  0  0  0  0
    6.1843   -1.3837   -0.4251 H   0  0  0  0  0  0  0  0  0  0  0  0
    6.5409   -4.2537   -0.6803 H   0  0  0  0  0  0  0  0  0  0  0  0
    7.4621   -3.9944    1.3517 H   0  0  0  0  0  0  0  0  0  0  0  0
    5.0933   -6.1956    1.2929 H   0  0  0  0  0  0  0  0  0  0  0  0
    4.1239   -4.7240   -1.0595 H   0  0  0  0  0  0  0  0  0  0  0  0
    1.6352   -4.5893    0.3464 H   0  0  0  0  0  0  0  0  0  0  0  0
    2.2932   -5.9295   -0.4644 H   0  0  0  0  0  0  0  0  0  0  0  0
    3.1449   -7.6753    0.8987 H   0  0  0  0  0  0  0  0  0  0  0  0
   -1.1749   -7.1260    1.4624 H   0  0  0  0  0  0  0  0  0  0  0  0
    1.5271   -5.5931    6.2375 H   0  0  0  0  0  0  0  0  0  0  0  0
   -0.1946   -5.9456    6.1284 H   0  0  0  0  0  0  0  0  0  0  0  0
    0.5613   -4.9421    4.9061 H   0  0  0  0  0  0  0  0  0  0  0  0
    2.0033   -8.2410    6.2592 H   0  0  0  0  0  0  0  0  0  0  0  0
    1.2065   -9.2196    5.0379 H   0  0  0  0  0  0  0  0  0  0  0  0
    0.2622   -8.4021    6.2534 H   0  0  0  0  0  0  0  0  0  0  0  0
    2.7605   -7.8920    3.6754 H   0  0  0  0  0  0  0  0  0  0  0  0
    3.3178   -5.2341    4.8932 H   0  0  0  0  0  0  0  0  0  0  0  0
    4.6749   -7.0496    4.7567 H   0  0  0  0  0  0  0  0  0  0  0  0
    2.5640   -3.5371    3.6779 H   0  0  0  0  0  0  0  0  0  0  0  0
    5.2042   -3.9722    4.3256 H   0  0  0  0  0  0  0  0  0  0  0  0
    6.0835   -2.8144    3.2961 H   0  0  0  0  0  0  0  0  0  0  0  0
    4.5855   -0.5663    1.6945 H   0  0  0  0  0  0  0  0  0  0  0  0
    2.0472   -2.5335    1.4351 H   0  0  0  0  0  0  0  0  0  0  0  0
    1.9695   -0.6942    0.2863 H   0  0  0  0  0  0  0  0  0  0  0  0
    2.3688   -2.8458   -0.8404 H   0  0  0  0  0  0  0  0  0  0  0  0
  1  2  1  0
  1 33  1  0
  1 34  1  0
  1 35  1  0
  2 32  1  0
  2  3  1  0
  2 36  1  6
  3  4  1  0
  3 37  1  0
  3 38  1  0
  4  5  1  0
  4  6  1  0
  4 39  1  6
  5 40  1  0
  6 25  1  0
  6  7  1  1
  6  8  1  0
  7 41  1  0
  8 32  1  0
  8  9  1  0
  8 42  1  6
  9 10  1  0
  9 43  1  0
  9 44  1  0
 10 23  1  0
 10 11  1  6
 10 12  1  0
 11 45  1  0
 12 20  1  0
 12 13  2  0
 13 15  1  0
 13 14  1  0
 14 46  1  0
 15 17  1  0
 15 16  2  0
 17 20  1  0
 17 18  1  0
 17 19  1  0
 18 47  1  0
 18 48  1  0
 18 49  1  0
 19 50  1  0
 19 51  1  0
 19 52  1  0
 20 21  1  0
 20 53  1  6
 21 22  1  0
 21 23  1  0
 21 54  1  1
 22 55  1  0
 23 24  1  1
 23 25  1  0
 24 56  1  0
 25 28  1  0
 25 26  1  1
 26 27  1  0
 26 57  1  0
 26 58  1  0
 27 28  1  0
 28 29  1  1
 28 30  1  0
 29 59  1  0
 30 31  1  0
 30 32  1  0
 30 60  1  1
 31 61  1  0
 32 62  1  6
M  END
>  <i_m_ct_stereo_status>  (191) 
1

>  <s_m_source_file>  (191) 
/var/tmp/pbs.5076255.sched01/tmpyrjfudeo/454urwji6r.sdf

>  <i_m_source_file_index>  (191) 
38

>  <i_lp_mmshare_version>  (191) 
48012

>  <i_f3d_flags>  (191) 
0

>  <s_epik_input>  (191) 
W09IXVtDQEBIXTFbQ0gyXVtDQEBIXShbQ0gzXSlbQ0BIXShbQ0BIXShbT0hdKVtDQEBdMihbT0hdKU9bQ0gyXTMpW0NAQEhdKFtDQEBdMShbQ0BdMjM0KVtPSF0pW0NIMl1bQ0BdNShbT0hdKVtDQEBIXTZbQ0BIXShDKFtDSDNdKShbQ0gzXSlDKD1PKUM2PU8pW0NAQEhdKFtPSF0pW0NAQF00NVtPSF0=

>  <s_epik_cmdline>  (191) 
J2VwaWtfcHl0aG9uJywgJy1waHQnLCAnMi4wJywgJy1waCcsICc3LjAnLCAnLXRuJywgJzgnLCAnLW1hJywgJzIwMCcsICctaW1hZScsICc8aW5maWxlLm1hZT4nLCAnLW9tYWUnLCAnPG91dGZpbGUubWFlPic=

>  <r_lp_tautomer_probability>  (191) 
1

>  <r_epik_Ionization_Penalty>  (191) 
0.000198044

>  <r_epik_Ionization_Penalty_Charging>  (191) 
0

>  <r_epik_Ionization_Penalty_Neutral>  (191) 
0.000198044

>  <r_epik_State_Penalty>  (191) 
-0

>  <r_epik_Charging_Adjusted_Penalty>  (191) 
0

>  <i_epik_Tot_Q>  (191) 
0

>  <i_epik_Tot_abs_Q>  (191) 
0

>  <s_lp_Force_Field>  (191) 
OPLS3e

>  <r_lp_Energy>  (191) 
113.474

>  <b_lp_Chiralities_Consistent>  (191) 
1

>  <s_lp_Variant>  (191) 
49:0-2

>  <s_i_glide_gridfile>  (191) 
pfpi4k_grid

>  <i_i_glide_lignum>  (191) 
38

>  <i_i_glide_rotatable_bonds>  (191) 
8

>  <r_i_docking_score>  (191) 
-3.9147

>  <r_i_glide_ligand_efficiency>  (191) 
-0.122334

>  <r_i_glide_ligand_efficiency_sa>  (191) 
-0.388388

>  <r_i_glide_ligand_efficiency_ln>  (191) 
-0.876609

>  <r_i_glide_gscore>  (191) 
-3.9147

>  <r_i_glide_lipo>  (191) 
-0.275564

>  <r_i_glide_hbond>  (191) 
0

>  <r_i_glide_metal>  (191) 
-0

>  <r_i_glide_rewards>  (191) 
-1.31045

>  <r_i_glide_evdw>  (191) 
-28.6651

>  <r_i_glide_ecoul>  (191) 
-5.67206

>  <r_i_glide_erotb>  (191) 
0

>  <r_i_glide_esite>  (191) 
-0.0446303

>  <r_i_glide_emodel>  (191) 
-49.8492

>  <r_i_glide_energy>  (191) 
-34.3371

>  <r_i_glide_einternal>  (191) 
5.32699

>  <r_i_glide_intrahb_reward>  (191) 
-1

>  <i_i_glide_confnum>  (191) 
2

>  <i_i_glide_posenum>  (191) 
27

>  <r_i_glide_eff_state_penalty>  (191) 
0

>  <ligand_id>  (191) 
49

>  <original_smiles>  (191) 
CC1CC(O)C2(O)C3CC4(O)C5C(=O)C(=O)C(C)(C)C5C(O)C4(O)C24COC4(O)C(O)C13

>  <smiles>  (191) 
[H]OC1=C2C([H])(C([H])(O[H])C3(O[H])C2(O[H])C([H])([H])C2([H])C4([H])C([H])(O[H])C5(O[H])OC([H])([H])C53C2(O[H])C([H])(O[H])C([H])([H])C4([H])C([H])([H])[H])C(C([H])([H])[H])(C([H])([H])[H])C1=O

$$$$
49:1:1
     RDKit          3D

 62 67  0  0  1  0  0  0  0  0999 V2000
    3.9757   -1.9725   -2.8160 C   0  0  0  0  0  0  0  0  0  0  0  0
    4.2345   -1.6816   -1.3251 C   0  0  2  0  0  0  0  0  0  0  0  0
    5.7345   -1.7375   -0.9569 C   0  0  0  0  0  0  0  0  0  0  0  0
    6.2204   -2.9502   -0.1071 C   0  0  1  0  0  0  0  0  0  0  0  0
    7.2813   -2.4927    0.6920 O   0  0  0  0  0  0  0  0  0  0  0  0
    5.1800   -3.8631    0.6723 C   0  0  2  0  0  0  0  0  0  0  0  0
    5.9544   -5.0314    0.7262 O   0  0  0  0  0  0  0  0  0  0  0  0
    3.9082   -3.9497   -0.2627 C   0  0  1  0  0  0  0  0  0  0  0  0
    2.7456   -4.9315    0.1367 C   0  0  0  0  0  0  0  0  0  0  0  0
    3.0750   -5.7030    1.4023 C   0  0  2  0  0  0  0  0  0  0  0  0
    4.0409   -6.6637    1.0167 O   0  0  0  0  0  0  0  0  0  0  0  0
    2.0978   -6.5419    2.2104 C   0  0  0  0  0  0  0  0  0  0  0  0
    0.7987   -6.8283    2.1271 C   0  0  0  0  0  0  0  0  0  0  0  0
   -0.0734   -6.6097    1.1436 O   0  0  0  0  0  0  0  0  0  0  0  0
    0.3740   -7.2830    3.4705 C   0  0  0  0  0  0  0  0  0  0  0  0
   -0.7172   -7.7287    3.7918 O   0  0  0  0  0  0  0  0  0  0  0  0
    1.5020   -7.0543    4.4977 C   0  0  0  0  0  0  0  0  0  0  0  0
    1.1139   -5.8625    5.3966 C   0  0  0  0  0  0  0  0  0  0  0  0
    1.7306   -8.3024    5.3720 C   0  0  0  0  0  0  0  0  0  0  0  0
    2.7217   -6.7873    3.5580 C   0  0  2  0  0  0  0  0  0  0  0  0
    3.7420   -5.6066    3.7435 C   0  0  1  0  0  0  0  0  0  0  0  0
    5.0528   -6.1472    3.7481 O   0  0  0  0  0  0  0  0  0  0  0  0
    3.5366   -4.6792    2.4940 C   0  0  2  0  0  0  0  0  0  0  0  0
    2.3251   -4.0558    2.9514 O   0  0  0  0  0  0  0  0  0  0  0  0
    4.5988   -3.5293    2.0893 C   0  0  1  0  0  0  0  0  0  0  0  0
    5.2255   -2.9221    3.3461 C   0  0  0  0  0  0  0  0  0  0  0  0
    4.0409   -2.0726    3.4436 O   0  0  0  0  0  0  0  0  0  0  0  0
    4.1487   -2.0296    2.0242 C   0  0  1  0  0  0  0  0  0  0  0  0
    5.0527   -0.9663    1.6914 O   0  0  0  0  0  0  0  0  0  0  0  0
    3.0058   -1.8419    1.0218 C   0  0  1  0  0  0  0  0  0  0  0  0
    2.6251   -0.4829    0.9365 O   0  0  0  0  0  0  0  0  0  0  0  0
    3.3325   -2.5046   -0.3891 C   0  0  1  0  0  0  0  0  0  0  0  0
    4.2752   -2.9811   -3.0950 H   0  0  0  0  0  0  0  0  0  0  0  0
    4.5122   -1.2712   -3.4515 H   0  0  0  0  0  0  0  0  0  0  0  0
    2.9165   -1.8603   -3.0458 H   0  0  0  0  0  0  0  0  0  0  0  0
    3.9385   -0.6371   -1.2223 H   0  0  0  0  0  0  0  0  0  0  0  0
    6.2985   -1.7736   -1.8892 H   0  0  0  0  0  0  0  0  0  0  0  0
    6.0234   -0.7797   -0.5233 H   0  0  0  0  0  0  0  0  0  0  0  0
    6.6838   -3.5905   -0.8599 H   0  0  0  0  0  0  0  0  0  0  0  0
    6.8932   -1.9308    1.3533 H   0  0  0  0  0  0  0  0  0  0  0  0
    5.3828   -5.7370    1.0388 H   0  0  0  0  0  0  0  0  0  0  0  0
    4.2592   -4.2802   -1.2438 H   0  0  0  0  0  0  0  0  0  0  0  0
    1.8142   -4.3853    0.2345 H   0  0  0  0  0  0  0  0  0  0  0  0
    2.5680   -5.6240   -0.6790 H   0  0  0  0  0  0  0  0  0  0  0  0
    3.6404   -7.2471    0.3901 H   0  0  0  0  0  0  0  0  0  0  0  0
    0.4176   -6.6334    0.3284 H   0  0  0  0  0  0  0  0  0  0  0  0
    1.9139   -5.5934    6.0851 H   0  0  0  0  0  0  0  0  0  0  0  0
    0.2323   -6.0921    5.9947 H   0  0  0  0  0  0  0  0  0  0  0  0
    0.8649   -4.9810    4.8005 H   0  0  0  0  0  0  0  0  0  0  0  0
    2.6137   -8.1957    5.9997 H   0  0  0  0  0  0  0  0  0  0  0  0
    1.8684   -9.1974    4.7620 H   0  0  0  0  0  0  0  0  0  0  0  0
    0.8848   -8.5019    6.0277 H   0  0  0  0  0  0  0  0  0  0  0  0
    3.2729   -7.7175    3.4148 H   0  0  0  0  0  0  0  0  0  0  0  0
    3.6172   -5.0647    4.6849 H   0  0  0  0  0  0  0  0  0  0  0  0
    5.0944   -6.8138    4.4159 H   0  0  0  0  0  0  0  0  0  0  0  0
    2.1439   -3.3472    2.3652 H   0  0  0  0  0  0  0  0  0  0  0  0
    5.3342   -3.6030    4.1784 H   0  0  0  0  0  0  0  0  0  0  0  0
    6.1577   -2.3930    3.1890 H   0  0  0  0  0  0  0  0  0  0  0  0
    4.5463   -0.1718    1.8036 H   0  0  0  0  0  0  0  0  0  0  0  0
    2.0922   -2.2888    1.3672 H   0  0  0  0  0  0  0  0  0  0  0  0
    1.8852   -0.4775    0.3380 H   0  0  0  0  0  0  0  0  0  0  0  0
    2.3797   -2.5899   -0.9001 H   0  0  0  0  0  0  0  0  0  0  0  0
  1  2  1  0
  1 33  1  0
  1 34  1  0
  1 35  1  0
  2 32  1  0
  2  3  1  0
  2 36  1  6
  3  4  1  0
  3 37  1  0
  3 38  1  0
  4  5  1  0
  4  6  1  0
  4 39  1  6
  5 40  1  0
  6 25  1  0
  6  7  1  1
  6  8  1  0
  7 41  1  0
  8 32  1  0
  8  9  1  0
  8 42  1  6
  9 10  1  0
  9 43  1  0
  9 44  1  0
 10 23  1  0
 10 11  1  6
 10 12  1  0
 11 45  1  0
 12 20  1  0
 12 13  2  0
 13 15  1  0
 13 14  1  0
 14 46  1  0
 15 17  1  0
 15 16  2  0
 17 20  1  0
 17 18  1  0
 17 19  1  0
 18 47  1  0
 18 48  1  0
 18 49  1  0
 19 50  1  0
 19 51  1  0
 19 52  1  0
 20 21  1  0
 20 53  1  6
 21 22  1  0
 21 23  1  0
 21 54  1  1
 22 55  1  0
 23 24  1  1
 23 25  1  0
 24 56  1  0
 25 28  1  0
 25 26  1  1
 26 27  1  0
 26 57  1  0
 26 58  1  0
 27 28  1  0
 28 29  1  1
 28 30  1  0
 29 59  1  0
 30 31  1  0
 30 32  1  0
 30 60  1  1
 31 61  1  0
 32 62  1  6
M  END
>  <i_m_ct_stereo_status>  (192) 
1

>  <s_m_source_file>  (192) 
/var/tmp/pbs.5076255.sched01/tmpyrjfudeo/454urwji6r.sdf

>  <i_m_source_file_index>  (192) 
38

>  <i_lp_mmshare_version>  (192) 
48012

>  <i_f3d_flags>  (192) 
0

>  <s_epik_input>  (192) 
W09IXVtDQEBIXTFbQ0gyXVtDQEBIXShbQ0gzXSlbQ0BIXShbQ0BIXShbT0hdKVtDQEBdMihbT0hdKU9bQ0gyXTMpW0NAQEhdKFtDQEBdMShbQ0BdMjM0KVtPSF0pW0NIMl1bQ0BdNShbT0hdKVtDQEBIXTZbQ0BIXShDKFtDSDNdKShbQ0gzXSlDKD1PKUM2PU8pW0NAQEhdKFtPSF0pW0NAQF00NVtPSF0=

>  <s_epik_cmdline>  (192) 
J2VwaWtfcHl0aG9uJywgJy1waHQnLCAnMi4wJywgJy1waCcsICc3LjAnLCAnLXRuJywgJzgnLCAnLW1hJywgJzIwMCcsICctaW1hZScsICc8aW5maWxlLm1hZT4nLCAnLW9tYWUnLCAnPG91dGZpbGUubWFlPic=

>  <r_lp_tautomer_probability>  (192) 
1

>  <r_epik_Ionization_Penalty>  (192) 
0.000198044

>  <r_epik_Ionization_Penalty_Charging>  (192) 
0

>  <r_epik_Ionization_Penalty_Neutral>  (192) 
0.000198044

>  <r_epik_State_Penalty>  (192) 
-0

>  <r_epik_Charging_Adjusted_Penalty>  (192) 
0

>  <i_epik_Tot_Q>  (192) 
0

>  <i_epik_Tot_abs_Q>  (192) 
0

>  <s_lp_Force_Field>  (192) 
OPLS3e

>  <r_lp_Energy>  (192) 
113.474

>  <b_lp_Chiralities_Consistent>  (192) 
1

>  <s_lp_Variant>  (192) 
49:0-2

>  <s_i_glide_gridfile>  (192) 
pfpi4k_grid

>  <i_i_glide_lignum>  (192) 
38

>  <i_i_glide_rotatable_bonds>  (192) 
8

>  <r_i_docking_score>  (192) 
-3.8686

>  <r_i_glide_ligand_efficiency>  (192) 
-0.120894

>  <r_i_glide_ligand_efficiency_sa>  (192) 
-0.383814

>  <r_i_glide_ligand_efficiency_ln>  (192) 
-0.866285

>  <r_i_glide_gscore>  (192) 
-3.8686

>  <r_i_glide_lipo>  (192) 
-0.21632

>  <r_i_glide_hbond>  (192) 
0

>  <r_i_glide_metal>  (192) 
-0

>  <r_i_glide_rewards>  (192) 
-1.31105

>  <r_i_glide_evdw>  (192) 
-28.3457

>  <r_i_glide_ecoul>  (192) 
-5.9268

>  <r_i_glide_erotb>  (192) 
0

>  <r_i_glide_esite>  (192) 
-0.0349271

>  <r_i_glide_emodel>  (192) 
-50.6533

>  <r_i_glide_energy>  (192) 
-34.2725

>  <r_i_glide_einternal>  (192) 
2.58799

>  <r_i_glide_intrahb_reward>  (192) 
-1

>  <i_i_glide_confnum>  (192) 
1

>  <i_i_glide_posenum>  (192) 
16

>  <r_i_glide_eff_state_penalty>  (192) 
0

>  <ligand_id>  (192) 
49

>  <original_smiles>  (192) 
CC1CC(O)C2(O)C3CC4(O)C5C(=O)C(=O)C(C)(C)C5C(O)C4(O)C24COC4(O)C(O)C13

>  <smiles>  (192) 
[H]OC1=C2C([H])(C([H])(O[H])C3(O[H])C2(O[H])C([H])([H])C2([H])C4([H])C([H])(O[H])C5(O[H])OC([H])([H])C53C2(O[H])C([H])(O[H])C([H])([H])C4([H])C([H])([H])[H])C(C([H])([H])[H])(C([H])([H])[H])C1=O

$$$$
49:1:2
     RDKit          3D

 62 67  0  0  1  0  0  0  0  0999 V2000
    4.1018   -2.4150   -2.7232 C   0  0  0  0  0  0  0  0  0  0  0  0
    4.3434   -2.0780   -1.2380 C   0  0  2  0  0  0  0  0  0  0  0  0
    5.8313   -2.2537   -0.8417 C   0  0  0  0  0  0  0  0  0  0  0  0
    6.1991   -3.4772    0.0650 C   0  0  1  0  0  0  0  0  0  0  0  0
    7.2921   -3.0902    0.8782 O   0  0  0  0  0  0  0  0  0  0  0  0
    5.0662   -4.2717    0.8428 C   0  0  2  0  0  0  0  0  0  0  0  0
    5.7624   -5.4897    0.9716 O   0  0  0  0  0  0  0  0  0  0  0  0
    3.8111   -4.2935   -0.1184 C   0  0  1  0  0  0  0  0  0  0  0  0
    2.5824   -5.1829    0.2777 C   0  0  0  0  0  0  0  0  0  0  0  0
    2.8234   -5.9344    1.5801 C   0  0  2  0  0  0  0  0  0  0  0  0
    3.7167   -6.9864    1.2740 O   0  0  0  0  0  0  0  0  0  0  0  0
    1.7740   -6.6584    2.3944 C   0  0  0  0  0  0  0  0  0  0  0  0
    0.4638   -6.8868    2.2830 C   0  0  0  0  0  0  0  0  0  0  0  0
   -0.3410   -6.6922    1.2472 O   0  0  0  0  0  0  0  0  0  0  0  0
   -0.0425   -7.2651    3.6005 C   0  0  0  0  0  0  0  0  0  0  0  0
   -1.1792   -7.6065    3.8697 O   0  0  0  0  0  0  0  0  0  0  0  0
    1.0486   -7.0682    4.6712 C   0  0  0  0  0  0  0  0  0  0  0  0
    0.7297   -5.8181    5.5131 C   0  0  0  0  0  0  0  0  0  0  0  0
    1.1610   -8.3041    5.5845 C   0  0  0  0  0  0  0  0  0  0  0  0
    2.3175   -6.9113    3.7742 C   0  0  2  0  0  0  0  0  0  0  0  0
    3.4333   -5.8021    3.9371 C   0  0  1  0  0  0  0  0  0  0  0  0
    4.6668   -6.4992    3.9564 O   0  0  0  0  0  0  0  0  0  0  0  0
    3.3242   -4.9023    2.6516 C   0  0  2  0  0  0  0  0  0  0  0  0
    2.1740   -4.1723    3.0658 O   0  0  0  0  0  0  0  0  0  0  0  0
    4.4831   -3.8416    2.2309 C   0  0  1  0  0  0  0  0  0  0  0  0
    5.1406   -3.2769    3.4941 C   0  0  0  0  0  0  0  0  0  0  0  0
    4.0572   -2.2976    3.5325 O   0  0  0  0  0  0  0  0  0  0  0  0
    4.1494   -2.3216    2.0968 C   0  0  1  0  0  0  0  0  0  0  0  0
    5.1353   -1.3787    1.7234 O   0  0  0  0  0  0  0  0  0  0  0  0
    3.0209   -2.0810    1.0717 C   0  0  1  0  0  0  0  0  0  0  0  0
    2.7034   -0.7113    0.8847 O   0  0  0  0  0  0  0  0  0  0  0  0
    3.3434   -2.8113   -0.3000 C   0  0  1  0  0  0  0  0  0  0  0  0
    4.3293   -3.4530   -2.9582 H   0  0  0  0  0  0  0  0  0  0  0  0
    4.7092   -1.7847   -3.3713 H   0  0  0  0  0  0  0  0  0  0  0  0
    3.0619   -2.2336   -2.9924 H   0  0  0  0  0  0  0  0  0  0  0  0
    4.1226   -1.0141   -1.1779 H   0  0  0  0  0  0  0  0  0  0  0  0
    6.4168   -2.3616   -1.7546 H   0  0  0  0  0  0  0  0  0  0  0  0
    6.2147   -1.3060   -0.4464 H   0  0  0  0  0  0  0  0  0  0  0  0
    6.6234   -4.1787   -0.6652 H   0  0  0  0  0  0  0  0  0  0  0  0
    6.9452   -2.5168    1.5476 H   0  0  0  0  0  0  0  0  0  0  0  0
    5.1336   -6.1446    1.2622 H   0  0  0  0  0  0  0  0  0  0  0  0
    4.1609   -4.6776   -1.0747 H   0  0  0  0  0  0  0  0  0  0  0  0
    1.6745   -4.6034    0.3275 H   0  0  0  0  0  0  0  0  0  0  0  0
    2.3741   -5.9213   -0.4757 H   0  0  0  0  0  0  0  0  0  0  0  0
    3.7914   -7.5129    2.0622 H   0  0  0  0  0  0  0  0  0  0  0  0
   -1.1458   -7.1456    1.4589 H   0  0  0  0  0  0  0  0  0  0  0  0
    1.5377   -5.5907    6.2132 H   0  0  0  0  0  0  0  0  0  0  0  0
   -0.1780   -5.9570    6.0971 H   0  0  0  0  0  0  0  0  0  0  0  0
    0.5742   -4.9430    4.8826 H   0  0  0  0  0  0  0  0  0  0  0  0
    2.0371   -8.2401    6.2296 H   0  0  0  0  0  0  0  0  0  0  0  0
    1.2464   -9.2208    5.0073 H   0  0  0  0  0  0  0  0  0  0  0  0
    0.2901   -8.4134    6.2215 H   0  0  0  0  0  0  0  0  0  0  0  0
    2.7798   -7.8905    3.6601 H   0  0  0  0  0  0  0  0  0  0  0  0
    3.3324   -5.2374    4.8693 H   0  0  0  0  0  0  0  0  0  0  0  0
    4.6934   -7.0396    4.7338 H   0  0  0  0  0  0  0  0  0  0  0  0
    2.0851   -3.4384    2.4897 H   0  0  0  0  0  0  0  0  0  0  0  0
    5.1763   -3.9482    4.3395 H   0  0  0  0  0  0  0  0  0  0  0  0
    6.1114   -2.8368    3.3293 H   0  0  0  0  0  0  0  0  0  0  0  0
    5.1097   -1.3298    0.7773 H   0  0  0  0  0  0  0  0  0  0  0  0
    2.0800   -2.4949    1.4135 H   0  0  0  0  0  0  0  0  0  0  0  0
    1.9495   -0.6773    0.2749 H   0  0  0  0  0  0  0  0  0  0  0  0
    2.3982   -2.8174   -0.8446 H   0  0  0  0  0  0  0  0  0  0  0  0
  1  2  1  0
  1 33  1  0
  1 34  1  0
  1 35  1  0
  2 32  1  0
  2  3  1  0
  2 36  1  6
  3  4  1  0
  3 37  1  0
  3 38  1  0
  4  5  1  0
  4  6  1  0
  4 39  1  6
  5 40  1  0
  6 25  1  0
  6  7  1  1
  6  8  1  0
  7 41  1  0
  8 32  1  0
  8  9  1  0
  8 42  1  6
  9 10  1  0
  9 43  1  0
  9 44  1  0
 10 23  1  0
 10 11  1  6
 10 12  1  0
 11 45  1  0
 12 20  1  0
 12 13  2  0
 13 15  1  0
 13 14  1  0
 14 46  1  0
 15 17  1  0
 15 16  2  0
 17 20  1  0
 17 18  1  0
 17 19  1  0
 18 47  1  0
 18 48  1  0
 18 49  1  0
 19 50  1  0
 19 51  1  0
 19 52  1  0
 20 21  1  0
 20 53  1  6
 21 22  1  0
 21 23  1  0
 21 54  1  1
 22 55  1  0
 23 24  1  1
 23 25  1  0
 24 56  1  0
 25 28  1  0
 25 26  1  1
 26 27  1  0
 26 57  1  0
 26 58  1  0
 27 28  1  0
 28 29  1  6
 28 30  1  0
 29 59  1  0
 30 31  1  0
 30 32  1  0
 30 60  1  1
 31 61  1  0
 32 62  1  6
M  END
>  <i_m_ct_stereo_status>  (193) 
1

>  <s_m_source_file>  (193) 
/var/tmp/pbs.5076255.sched01/tmpyrjfudeo/454urwji6r.sdf

>  <i_m_source_file_index>  (193) 
38

>  <i_lp_mmshare_version>  (193) 
48012

>  <i_f3d_flags>  (193) 
0

>  <s_epik_input>  (193) 
W09IXVtDQEBIXTFbQ0gyXVtDQEBIXShbQ0gzXSlbQ0BIXShbQ0BIXShbT0hdKVtDQEBdMihbT0hdKU9bQ0gyXTMpW0NAQEhdKFtDQEBdMShbQ0BdMjM0KVtPSF0pW0NIMl1bQ0BdNShbT0hdKVtDQEBIXTZbQ0BIXShDKFtDSDNdKShbQ0gzXSlDKD1PKUM2PU8pW0NAQEhdKFtPSF0pW0NAQF00NVtPSF0=

>  <s_epik_cmdline>  (193) 
J2VwaWtfcHl0aG9uJywgJy1waHQnLCAnMi4wJywgJy1waCcsICc3LjAnLCAnLXRuJywgJzgnLCAnLW1hJywgJzIwMCcsICctaW1hZScsICc8aW5maWxlLm1hZT4nLCAnLW9tYWUnLCAnPG91dGZpbGUubWFlPic=

>  <r_lp_tautomer_probability>  (193) 
1

>  <r_epik_Ionization_Penalty>  (193) 
0.000198044

>  <r_epik_Ionization_Penalty_Charging>  (193) 
0

>  <r_epik_Ionization_Penalty_Neutral>  (193) 
0.000198044

>  <r_epik_State_Penalty>  (193) 
-0

>  <r_epik_Charging_Adjusted_Penalty>  (193) 
0

>  <i_epik_Tot_Q>  (193) 
0

>  <i_epik_Tot_abs_Q>  (193) 
0

>  <s_lp_Force_Field>  (193) 
OPLS3e

>  <r_lp_Energy>  (193) 
113.474

>  <b_lp_Chiralities_Consistent>  (193) 
1

>  <s_lp_Variant>  (193) 
49:0-2

>  <s_i_glide_gridfile>  (193) 
pfpi4k_grid

>  <i_i_glide_lignum>  (193) 
38

>  <i_i_glide_rotatable_bonds>  (193) 
8

>  <r_i_docking_score>  (193) 
-3.68338

>  <r_i_glide_ligand_efficiency>  (193) 
-0.115106

>  <r_i_glide_ligand_efficiency_sa>  (193) 
-0.365438

>  <r_i_glide_ligand_efficiency_ln>  (193) 
-0.82481

>  <r_i_glide_gscore>  (193) 
-3.68338

>  <r_i_glide_lipo>  (193) 
-0.296584

>  <r_i_glide_hbond>  (193) 
0

>  <r_i_glide_metal>  (193) 
-0

>  <r_i_glide_rewards>  (193) 
-0.813079

>  <r_i_glide_evdw>  (193) 
-28.4581

>  <r_i_glide_ecoul>  (193) 
-7.37771

>  <r_i_glide_erotb>  (193) 
0

>  <r_i_glide_esite>  (193) 
-0.0441597

>  <r_i_glide_emodel>  (193) 
-46.2467

>  <r_i_glide_energy>  (193) 
-35.8358

>  <r_i_glide_einternal>  (193) 
4.57299

>  <r_i_glide_intrahb_reward>  (193) 
-0.5

>  <i_i_glide_confnum>  (193) 
1

>  <i_i_glide_posenum>  (193) 
40

>  <r_i_glide_eff_state_penalty>  (193) 
0

>  <ligand_id>  (193) 
49

>  <original_smiles>  (193) 
CC1CC(O)C2(O)C3CC4(O)C5C(=O)C(=O)C(C)(C)C5C(O)C4(O)C24COC4(O)C(O)C13

>  <smiles>  (193) 
[H]OC1=C2C([H])(C([H])(O[H])C3(O[H])C2(O[H])C([H])([H])C2([H])C4([H])C([H])(O[H])C5(O[H])OC([H])([H])C53C2(O[H])C([H])(O[H])C([H])([H])C4([H])C([H])([H])[H])C(C([H])([H])[H])(C([H])([H])[H])C1=O

$$$$
50:0:0
     RDKit          3D

 31 34  0  0  1  0  0  0  0  0999 V2000
    5.7079   -0.9620    1.7956 C   0  0  0  0  0  0  0  0  0  0  0  0
    4.6115   -1.5767    1.3265 C   0  0  0  0  0  0  0  0  0  0  0  0
    3.8427   -2.5848    2.1600 C   0  0  1  0  0  0  0  0  0  0  0  0
    2.3289   -2.5463    1.8964 C   0  0  0  0  0  0  0  0  0  0  0  0
    2.6485   -3.3463    0.6175 C   0  0  2  0  0  0  0  0  0  0  0  0
    3.8185   -3.9313    1.4414 C   0  0  0  0  0  0  0  0  0  0  0  0
    3.0219   -2.3906   -0.4714 N   0  0  2  0  0  0  0  0  0  0  0  0
    3.5046   -2.9212   -1.7859 C   0  0  2  0  0  0  0  0  0  0  0  0
    4.8079   -3.6644   -1.5803 C   0  0  0  0  0  0  0  0  0  0  0  0
    5.7293   -2.7748   -1.2437 C   0  0  0  0  0  0  0  0  0  0  0  0
    7.2165   -3.0016   -0.9043 C   0  0  0  0  0  0  0  0  0  0  0  0
    8.0096   -2.2648   -1.5022 O   0  0  0  0  0  0  0  0  0  0  0  0
    7.4649   -3.8841   -0.0557 O   0  0  0  0  0  0  0  0  0  0  0  0
    5.0618   -1.4082   -1.2417 C   0  0  1  0  0  0  0  0  0  0  0  0
    4.0627   -1.6281   -2.3972 C   0  0  0  0  0  0  0  0  0  0  0  0
    4.0391   -1.3519   -0.0764 C   0  0  2  0  0  0  0  0  0  0  0  0
    6.2561   -0.2537    1.1923 H   0  0  0  0  0  0  0  0  0  0  0  0
    6.0717   -1.1628    2.7926 H   0  0  0  0  0  0  0  0  0  0  0  0
    4.1223   -2.6400    3.2111 H   0  0  0  0  0  0  0  0  0  0  0  0
    1.7569   -3.1143    2.6305 H   0  0  0  0  0  0  0  0  0  0  0  0
    1.9114   -1.5467    1.7421 H   0  0  0  0  0  0  0  0  0  0  0  0
    1.8976   -4.0767    0.3312 H   0  0  0  0  0  0  0  0  0  0  0  0
    4.7424   -4.1786    0.9187 H   0  0  0  0  0  0  0  0  0  0  0  0
    3.5090   -4.7497    2.0946 H   0  0  0  0  0  0  0  0  0  0  0  0
    2.7742   -3.4562   -2.3933 H   0  0  0  0  0  0  0  0  0  0  0  0
    4.9403   -4.7342   -1.6824 H   0  0  0  0  0  0  0  0  0  0  0  0
    5.7188   -0.5485   -1.3525 H   0  0  0  0  0  0  0  0  0  0  0  0
    4.5662   -1.7947   -3.3513 H   0  0  0  0  0  0  0  0  0  0  0  0
    3.3207   -0.8317   -2.5195 H   0  0  0  0  0  0  0  0  0  0  0  0
    3.5216   -0.3938   -0.0550 H   0  0  0  0  0  0  0  0  0  0  0  0
    2.1636   -1.8706   -0.6897 H   0  0  0  0  0  0  0  0  0  0  0  0
  1  2  2  0
  1 17  1  0
  1 18  1  0
  2 16  1  0
  2  3  1  0
  3  6  1  0
  3  4  1  0
  3 19  1  1
  4  5  1  0
  4 20  1  0
  4 21  1  0
  5  6  1  0
  5  7  1  0
  5 22  1  6
  6 23  1  0
  6 24  1  0
  7 16  1  0
  7  8  1  0
  7 31  1  6
  8 15  1  0
  8  9  1  0
  8 25  1  6
  9 10  2  0
  9 26  1  0
 10 11  1  0
 10 14  1  0
 11 12  2  0
 11 13  1  0
 14 15  1  0
 14 16  1  0
 14 27  1  6
 15 28  1  0
 15 29  1  0
 16 30  1  1
M  CHG  2   7   1  13  -1
M  END
>  <i_m_ct_stereo_status>  (194) 
1

>  <s_m_source_file>  (194) 
/var/tmp/pbs.5076255.sched01/tmpyrjfudeo/454urwji6r.sdf

>  <i_m_source_file_index>  (194) 
39

>  <i_lp_mmshare_version>  (194) 
48012

>  <i_f3d_flags>  (194) 
0

>  <s_epik_input>  (194) 
W0NIMl09QyhbQ0BASF0xMilbQ0BASF0zTihbQ0BIXShbQ0gyXTEpW0NIMl0yKVtDQEBIXTRbQ0hdPUMoQyg9TylbT0hdKVtDQEhdM1tDSDJdNA==

>  <s_epik_cmdline>  (194) 
J2VwaWtfcHl0aG9uJywgJy1waHQnLCAnMi4wJywgJy1waCcsICc3LjAnLCAnLXRuJywgJzgnLCAnLW1hJywgJzIwMCcsICctaW1hZScsICc8aW5maWxlLm1hZT4nLCAnLW9tYWUnLCAnPG91dGZpbGUubWFlPic=

>  <r_lp_tautomer_probability>  (194) 
1

>  <r_epik_Ionization_Penalty>  (194) 
0.00173246

>  <r_epik_Ionization_Penalty_Charging>  (194) 
0.00173246

>  <r_epik_Ionization_Penalty_Neutral>  (194) 
0

>  <r_epik_State_Penalty>  (194) 
-0

>  <r_epik_Charging_Adjusted_Penalty>  (194) 
0.00173246

>  <i_epik_Tot_Q>  (194) 
0

>  <i_epik_Tot_abs_Q>  (194) 
2

>  <s_lp_Force_Field>  (194) 
OPLS3e

>  <r_lp_Energy>  (194) 
53.4653

>  <b_lp_Chiralities_Consistent>  (194) 
1

>  <s_lp_Variant>  (194) 
50:0-1

>  <s_i_glide_gridfile>  (194) 
pfpi4k_grid

>  <i_i_glide_lignum>  (194) 
39

>  <i_i_glide_rotatable_bonds>  (194) 
1

>  <r_i_docking_score>  (194) 
-4.5859

>  <r_i_glide_ligand_efficiency>  (194) 
-0.286619

>  <r_i_glide_ligand_efficiency_sa>  (194) 
-0.722234

>  <r_i_glide_ligand_efficiency_ln>  (194) 
-1.21558

>  <r_i_glide_gscore>  (194) 
-4.5859

>  <r_i_glide_lipo>  (194) 
-0.147588

>  <r_i_glide_hbond>  (194) 
-0.4

>  <r_i_glide_metal>  (194) 
-0

>  <r_i_glide_rewards>  (194) 
-1.96327

>  <r_i_glide_evdw>  (194) 
-17.8892

>  <r_i_glide_ecoul>  (194) 
-7.36541

>  <r_i_glide_erotb>  (194) 
0

>  <r_i_glide_esite>  (194) 
-0.0757748

>  <r_i_glide_emodel>  (194) 
-35.2953

>  <r_i_glide_energy>  (194) 
-25.2546

>  <r_i_glide_einternal>  (194) 
0.0986204

>  <r_i_glide_intrahb_reward>  (194) 
-0

>  <i_i_glide_confnum>  (194) 
1

>  <i_i_glide_posenum>  (194) 
22

>  <r_i_glide_eff_state_penalty>  (194) 
0

>  <ligand_id>  (194) 
50

>  <original_smiles>  (194) 
C=C1C2CC(C2)N2C3C=C(C(=O)O)C(C3)C12

>  <smiles>  (194) 
[H]C([H])=C1C2([H])C([H])([H])C([H])(C2([H])[H])[N+]2([H])C3([H])C([H])=C(C(=O)[O-])C([H])(C3([H])[H])C12[H]

$$$$
50:0:1
     RDKit          3D

 31 34  0  0  1  0  0  0  0  0999 V2000
    6.9445   -2.9321   -1.9178 C   0  0  0  0  0  0  0  0  0  0  0  0
    5.6085   -3.0473   -1.9967 C   0  0  0  0  0  0  0  0  0  0  0  0
    4.7919   -2.3484   -3.0734 C   0  0  1  0  0  0  0  0  0  0  0  0
    3.5768   -3.1656   -3.5342 C   0  0  0  0  0  0  0  0  0  0  0  0
    2.9050   -2.6673   -2.2380 C   0  0  2  0  0  0  0  0  0  0  0  0
    3.7757   -1.4054   -2.4308 C   0  0  0  0  0  0  0  0  0  0  0  0
    3.3088   -3.5550   -1.1073 N   0  0  2  0  0  0  0  0  0  0  0  0
    2.8915   -3.2260    0.2872 C   0  0  2  0  0  0  0  0  0  0  0  0
    3.5426   -1.9357    0.7192 C   0  0  0  0  0  0  0  0  0  0  0  0
    4.8472   -2.1718    0.8358 C   0  0  0  0  0  0  0  0  0  0  0  0
    5.9715   -1.1872    1.2209 C   0  0  0  0  0  0  0  0  0  0  0  0
    6.9017   -1.0698    0.3939 O   0  0  0  0  0  0  0  0  0  0  0  0
    5.8142   -0.5956    2.3075 O   0  0  0  0  0  0  0  0  0  0  0  0
    5.0809   -3.6357    0.4952 C   0  0  1  0  0  0  0  0  0  0  0  0
    3.7747   -4.2163    1.0681 C   0  0  0  0  0  0  0  0  0  0  0  0
    4.7756   -3.8611   -1.0103 C   0  0  2  0  0  0  0  0  0  0  0  0
    7.5158   -3.4082   -1.1318 H   0  0  0  0  0  0  0  0  0  0  0  0
    7.4793   -2.3277   -2.6316 H   0  0  0  0  0  0  0  0  0  0  0  0
    5.3522   -1.9018   -3.8849 H   0  0  0  0  0  0  0  0  0  0  0  0
    3.1070   -2.7730   -4.4390 H   0  0  0  0  0  0  0  0  0  0  0  0
    3.7561   -4.2417   -3.6074 H   0  0  0  0  0  0  0  0  0  0  0  0
    1.8283   -2.5076   -2.3312 H   0  0  0  0  0  0  0  0  0  0  0  0
    4.1373   -0.8962   -1.5367 H   0  0  0  0  0  0  0  0  0  0  0  0
    3.3409   -0.6936   -3.1376 H   0  0  0  0  0  0  0  0  0  0  0  0
    1.8253   -3.2810    0.5030 H   0  0  0  0  0  0  0  0  0  0  0  0
    3.0212   -0.9998    0.8744 H   0  0  0  0  0  0  0  0  0  0  0  0
    6.0037   -4.0722    0.8840 H   0  0  0  0  0  0  0  0  0  0  0  0
    3.7025   -4.0844    2.1497 H   0  0  0  0  0  0  0  0  0  0  0  0
    3.6000   -5.2682    0.8259 H   0  0  0  0  0  0  0  0  0  0  0  0
    4.9039   -4.9125   -1.2722 H   0  0  0  0  0  0  0  0  0  0  0  0
    2.8873   -4.4460   -1.3252 H   0  0  0  0  0  0  0  0  0  0  0  0
  1  2  2  0
  1 17  1  0
  1 18  1  0
  2 16  1  0
  2  3  1  0
  3  6  1  0
  3  4  1  0
  3 19  1  6
  4  5  1  0
  4 20  1  0
  4 21  1  0
  5  6  1  0
  5  7  1  0
  5 22  1  6
  6 23  1  0
  6 24  1  0
  7 16  1  0
  7  8  1  0
  7 31  1  6
  8 15  1  0
  8  9  1  0
  8 25  1  6
  9 10  2  0
  9 26  1  0
 10 11  1  0
 10 14  1  0
 11 12  2  0
 11 13  1  0
 14 15  1  0
 14 16  1  0
 14 27  1  1
 15 28  1  0
 15 29  1  0
 16 30  1  6
M  CHG  2   7   1  13  -1
M  END
>  <i_m_ct_stereo_status>  (195) 
1

>  <s_m_source_file>  (195) 
/var/tmp/pbs.5076255.sched01/tmpyrjfudeo/454urwji6r.sdf

>  <i_m_source_file_index>  (195) 
39

>  <i_lp_mmshare_version>  (195) 
48012

>  <i_f3d_flags>  (195) 
0

>  <s_epik_input>  (195) 
W0NIMl09QyhbQ0BASF0xMilbQ0BASF0zTihbQ0BIXShbQ0gyXTEpW0NIMl0yKVtDQEBIXTRbQ0hdPUMoQyg9TylbT0hdKVtDQEhdM1tDSDJdNA==

>  <s_epik_cmdline>  (195) 
J2VwaWtfcHl0aG9uJywgJy1waHQnLCAnMi4wJywgJy1waCcsICc3LjAnLCAnLXRuJywgJzgnLCAnLW1hJywgJzIwMCcsICctaW1hZScsICc8aW5maWxlLm1hZT4nLCAnLW9tYWUnLCAnPG91dGZpbGUubWFlPic=

>  <r_lp_tautomer_probability>  (195) 
1

>  <r_epik_Ionization_Penalty>  (195) 
0.00173246

>  <r_epik_Ionization_Penalty_Charging>  (195) 
0.00173246

>  <r_epik_Ionization_Penalty_Neutral>  (195) 
0

>  <r_epik_State_Penalty>  (195) 
-0

>  <r_epik_Charging_Adjusted_Penalty>  (195) 
0.00173246

>  <i_epik_Tot_Q>  (195) 
0

>  <i_epik_Tot_abs_Q>  (195) 
2

>  <s_lp_Force_Field>  (195) 
OPLS3e

>  <r_lp_Energy>  (195) 
53.4653

>  <b_lp_Chiralities_Consistent>  (195) 
1

>  <s_lp_Variant>  (195) 
50:0-1

>  <s_i_glide_gridfile>  (195) 
pfpi4k_grid

>  <i_i_glide_lignum>  (195) 
39

>  <i_i_glide_rotatable_bonds>  (195) 
1

>  <r_i_docking_score>  (195) 
-4.29735

>  <r_i_glide_ligand_efficiency>  (195) 
-0.268584

>  <r_i_glide_ligand_efficiency_sa>  (195) 
-0.67679

>  <r_i_glide_ligand_efficiency_ln>  (195) 
-1.1391

>  <r_i_glide_gscore>  (195) 
-4.29735

>  <r_i_glide_lipo>  (195) 
-0.470415

>  <r_i_glide_hbond>  (195) 
-0.040643

>  <r_i_glide_metal>  (195) 
-0

>  <r_i_glide_rewards>  (195) 
-2.14369

>  <r_i_glide_evdw>  (195) 
-18.9563

>  <r_i_glide_ecoul>  (195) 
-4.63192

>  <r_i_glide_erotb>  (195) 
0

>  <r_i_glide_esite>  (195) 
0

>  <r_i_glide_emodel>  (195) 
-32.8937

>  <r_i_glide_energy>  (195) 
-23.5882

>  <r_i_glide_einternal>  (195) 
0.0635912

>  <r_i_glide_intrahb_reward>  (195) 
-0

>  <i_i_glide_confnum>  (195) 
1

>  <i_i_glide_posenum>  (195) 
14

>  <r_i_glide_eff_state_penalty>  (195) 
0

>  <ligand_id>  (195) 
50

>  <original_smiles>  (195) 
C=C1C2CC(C2)N2C3C=C(C(=O)O)C(C3)C12

>  <smiles>  (195) 
[H]C([H])=C1C2([H])C([H])([H])C([H])(C2([H])[H])[N+]2([H])C3([H])C([H])=C(C(=O)[O-])C([H])(C3([H])[H])C12[H]

$$$$
50:0:2
     RDKit          3D

 31 34  0  0  1  0  0  0  0  0999 V2000
    5.5131   -0.6526    2.1461 C   0  0  0  0  0  0  0  0  0  0  0  0
    4.5033   -1.3321    1.5883 C   0  0  0  0  0  0  0  0  0  0  0  0
    3.7001   -2.3478    2.3776 C   0  0  1  0  0  0  0  0  0  0  0  0
    2.2244   -2.3982    1.9509 C   0  0  0  0  0  0  0  0  0  0  0  0
    2.7232   -3.2257    0.7453 C   0  0  2  0  0  0  0  0  0  0  0  0
    3.8240   -3.7177    1.7127 C   0  0  0  0  0  0  0  0  0  0  0  0
    3.1721   -2.2905   -0.3340 N   0  0  2  0  0  0  0  0  0  0  0  0
    3.8108   -2.8396   -1.5675 C   0  0  2  0  0  0  0  0  0  0  0  0
    5.1241   -3.4993   -1.2072 C   0  0  0  0  0  0  0  0  0  0  0  0
    5.9687   -2.5427   -0.8210 C   0  0  0  0  0  0  0  0  0  0  0  0
    7.4324   -2.6651   -0.3007 C   0  0  0  0  0  0  0  0  0  0  0  0
    7.9573   -1.5990    0.0851 O   0  0  0  0  0  0  0  0  0  0  0  0
    7.9198   -3.8156   -0.2992 O   0  0  0  0  0  0  0  0  0  0  0  0
    5.2174   -1.2223   -0.9305 C   0  0  1  0  0  0  0  0  0  0  0  0
    4.3599   -1.5383   -2.1730 C   0  0  0  0  0  0  0  0  0  0  0  0
    4.0797   -1.1856    0.1246 C   0  0  2  0  0  0  0  0  0  0  0  0
    6.0904    0.0507    1.5629 H   0  0  0  0  0  0  0  0  0  0  0  0
    5.7799   -0.7912    3.1844 H   0  0  0  0  0  0  0  0  0  0  0  0
    3.8715   -2.3472    3.4527 H   0  0  0  0  0  0  0  0  0  0  0  0
    1.6021   -2.9678    2.6453 H   0  0  0  0  0  0  0  0  0  0  0  0
    1.7799   -1.4275    1.7110 H   0  0  0  0  0  0  0  0  0  0  0  0
    2.0409   -4.0018    0.4071 H   0  0  0  0  0  0  0  0  0  0  0  0
    4.8095   -3.9308    1.2963 H   0  0  0  0  0  0  0  0  0  0  0  0
    3.4912   -4.5327    2.3618 H   0  0  0  0  0  0  0  0  0  0  0  0
    3.1704   -3.4300   -2.2244 H   0  0  0  0  0  0  0  0  0  0  0  0
    5.3121   -4.5642   -1.2443 H   0  0  0  0  0  0  0  0  0  0  0  0
    5.8253   -0.3247   -1.0051 H   0  0  0  0  0  0  0  0  0  0  0  0
    4.9676   -1.7122   -3.0653 H   0  0  0  0  0  0  0  0  0  0  0  0
    3.5946   -0.7898   -2.4057 H   0  0  0  0  0  0  0  0  0  0  0  0
    3.5123   -0.2568    0.0545 H   0  0  0  0  0  0  0  0  0  0  0  0
    2.3273   -1.8195   -0.6522 H   0  0  0  0  0  0  0  0  0  0  0  0
  1  2  2  0
  1 17  1  0
  1 18  1  0
  2 16  1  0
  2  3  1  0
  3  6  1  0
  3  4  1  0
  3 19  1  1
  4  5  1  0
  4 20  1  0
  4 21  1  0
  5  6  1  0
  5  7  1  0
  5 22  1  6
  6 23  1  0
  6 24  1  0
  7 16  1  0
  7  8  1  0
  7 31  1  6
  8 15  1  0
  8  9  1  0
  8 25  1  6
  9 10  2  0
  9 26  1  0
 10 11  1  0
 10 14  1  0
 11 12  2  0
 11 13  1  0
 14 15  1  0
 14 16  1  0
 14 27  1  6
 15 28  1  0
 15 29  1  0
 16 30  1  1
M  CHG  2   7   1  13  -1
M  END
>  <i_m_ct_stereo_status>  (196) 
1

>  <s_m_source_file>  (196) 
/var/tmp/pbs.5076255.sched01/tmpyrjfudeo/454urwji6r.sdf

>  <i_m_source_file_index>  (196) 
39

>  <i_lp_mmshare_version>  (196) 
48012

>  <i_f3d_flags>  (196) 
0

>  <s_epik_input>  (196) 
W0NIMl09QyhbQ0BASF0xMilbQ0BASF0zTihbQ0BIXShbQ0gyXTEpW0NIMl0yKVtDQEBIXTRbQ0hdPUMoQyg9TylbT0hdKVtDQEhdM1tDSDJdNA==

>  <s_epik_cmdline>  (196) 
J2VwaWtfcHl0aG9uJywgJy1waHQnLCAnMi4wJywgJy1waCcsICc3LjAnLCAnLXRuJywgJzgnLCAnLW1hJywgJzIwMCcsICctaW1hZScsICc8aW5maWxlLm1hZT4nLCAnLW9tYWUnLCAnPG91dGZpbGUubWFlPic=

>  <r_lp_tautomer_probability>  (196) 
1

>  <r_epik_Ionization_Penalty>  (196) 
0.00173246

>  <r_epik_Ionization_Penalty_Charging>  (196) 
0.00173246

>  <r_epik_Ionization_Penalty_Neutral>  (196) 
0

>  <r_epik_State_Penalty>  (196) 
-0

>  <r_epik_Charging_Adjusted_Penalty>  (196) 
0.00173246

>  <i_epik_Tot_Q>  (196) 
0

>  <i_epik_Tot_abs_Q>  (196) 
2

>  <s_lp_Force_Field>  (196) 
OPLS3e

>  <r_lp_Energy>  (196) 
53.4653

>  <b_lp_Chiralities_Consistent>  (196) 
1

>  <s_lp_Variant>  (196) 
50:0-1

>  <s_i_glide_gridfile>  (196) 
pfpi4k_grid

>  <i_i_glide_lignum>  (196) 
39

>  <i_i_glide_rotatable_bonds>  (196) 
1

>  <r_i_docking_score>  (196) 
-4.19093

>  <r_i_glide_ligand_efficiency>  (196) 
-0.261933

>  <r_i_glide_ligand_efficiency_sa>  (196) 
-0.66003

>  <r_i_glide_ligand_efficiency_ln>  (196) 
-1.11089

>  <r_i_glide_gscore>  (196) 
-4.19093

>  <r_i_glide_lipo>  (196) 
-0.185333

>  <r_i_glide_hbond>  (196) 
-0.317391

>  <r_i_glide_metal>  (196) 
-0

>  <r_i_glide_rewards>  (196) 
-1.94175

>  <r_i_glide_evdw>  (196) 
-17.6648

>  <r_i_glide_ecoul>  (196) 
-5.2572

>  <r_i_glide_erotb>  (196) 
0

>  <r_i_glide_esite>  (196) 
-0.0746378

>  <r_i_glide_emodel>  (196) 
-32.0782

>  <r_i_glide_energy>  (196) 
-22.922

>  <r_i_glide_einternal>  (196) 
0.126502

>  <r_i_glide_intrahb_reward>  (196) 
-0

>  <i_i_glide_confnum>  (196) 
2

>  <i_i_glide_posenum>  (196) 
5

>  <r_i_glide_eff_state_penalty>  (196) 
0

>  <ligand_id>  (196) 
50

>  <original_smiles>  (196) 
C=C1C2CC(C2)N2C3C=C(C(=O)O)C(C3)C12

>  <smiles>  (196) 
[H]C([H])=C1C2([H])C([H])([H])C([H])(C2([H])[H])[N+]2([H])C3([H])C([H])=C(C(=O)[O-])C([H])(C3([H])[H])C12[H]

$$$$
51:0:0
     RDKit          3D

 62 68  0  0  1  0  0  0  0  0999 V2000
    2.0053   -1.7337    4.6749 C   0  0  0  0  0  0  0  0  0  0  0  0
    2.0845   -2.5227    3.5056 O   0  0  0  0  0  0  0  0  0  0  0  0
    2.0536   -1.7804    2.3308 C   0  0  0  0  0  0  0  0  0  0  0  0
    2.2748   -2.5860    1.2090 O   0  0  0  0  0  0  0  0  0  0  0  0
    3.6003   -2.8903    0.7362 C   0  0  1  0  0  0  0  0  0  0  0  0
    4.2927   -1.5628    0.2523 C   0  0  1  0  0  0  0  0  0  0  0  0
    5.5089   -1.3453    1.1629 C   0  0  0  0  0  0  0  0  0  0  0  0
    5.8568   -2.7044    1.7609 C   0  0  0  0  0  0  0  0  0  0  0  0
    4.5398   -3.4798    1.8519 C   0  0  2  0  0  0  0  0  0  0  0  0
    4.5656   -5.0488    1.9054 C   0  0  1  0  0  0  0  0  0  0  0  0
    5.1340   -5.6932    3.2083 C   0  0  1  0  0  0  0  0  0  0  0  0
    6.3362   -5.1054    3.5989 O   0  0  0  0  0  0  0  0  0  0  0  0
    4.1823   -5.6625    4.4056 C   0  0  0  0  0  0  0  0  0  0  0  0
    2.9140   -6.4456    4.0728 C   0  0  0  0  0  0  0  0  0  0  0  0
    2.1706   -6.8446    4.9583 O   0  0  0  0  0  0  0  0  0  0  0  0
    2.6402   -6.6979    2.5714 C   0  0  1  0  0  0  0  0  0  0  0  0
    1.1773   -7.1216    2.3515 C   0  0  0  0  0  0  0  0  0  0  0  0
    3.0622   -5.4212    1.7644 C   0  0  2  0  0  0  0  0  0  0  0  0
    2.9792   -5.4188    0.2211 C   0  0  2  0  0  0  0  0  0  0  0  0
    4.0918   -6.4492   -0.0324 C   0  0  0  0  0  0  0  0  0  0  0  0
    5.2316   -5.7115    0.6475 C   0  0  1  0  0  0  0  0  0  0  0  0
    5.7308   -4.7687   -0.3078 O   0  0  0  0  0  0  0  0  0  0  0  0
    4.7458   -4.1597   -1.1645 C   0  0  2  0  0  0  0  0  0  0  0  0
    5.3181   -2.8481   -1.7543 C   0  0  1  0  0  0  0  0  0  0  0  0
    6.7148   -2.7332   -1.5599 O   0  0  0  0  0  0  0  0  0  0  0  0
    5.0031   -2.7854   -3.1160 O   0  0  0  0  0  0  0  0  0  0  0  0
    4.5015   -1.5608   -3.4066 C   0  0  0  0  0  0  0  0  0  0  0  0
    4.1875   -1.1651   -4.5348 O   0  0  0  0  0  0  0  0  0  0  0  0
    4.3360   -0.8075   -2.1948 C   0  0  0  0  0  0  0  0  0  0  0  0
    4.6838   -1.6236   -1.2012 C   0  0  0  0  0  0  0  0  0  0  0  0
    3.3761   -3.9851   -0.4033 C   0  0  2  0  0  0  0  0  0  0  0  0
    2.2353   -3.5641   -1.3818 C   0  0  0  0  0  0  0  0  0  0  0  0
    2.1040   -2.3832    5.5433 H   0  0  0  0  0  0  0  0  0  0  0  0
    1.0461   -1.2188    4.7335 H   0  0  0  0  0  0  0  0  0  0  0  0
    2.8109   -0.9982    4.7217 H   0  0  0  0  0  0  0  0  0  0  0  0
    1.0485   -1.3659    2.2232 H   0  0  0  0  0  0  0  0  0  0  0  0
    2.7471   -0.9396    2.3696 H   0  0  0  0  0  0  0  0  0  0  0  0
    3.6268   -0.6981    0.3130 H   0  0  0  0  0  0  0  0  0  0  0  0
    6.3625   -0.9006    0.6475 H   0  0  0  0  0  0  0  0  0  0  0  0
    5.2251   -0.6744    1.9727 H   0  0  0  0  0  0  0  0  0  0  0  0
    6.6360   -3.1970    1.1757 H   0  0  0  0  0  0  0  0  0  0  0  0
    6.2235   -2.5472    2.7667 H   0  0  0  0  0  0  0  0  0  0  0  0
    4.1931   -3.1754    2.8328 H   0  0  0  0  0  0  0  0  0  0  0  0
    5.3598   -6.7433    3.0068 H   0  0  0  0  0  0  0  0  0  0  0  0
    6.1886   -4.1863    3.6895 H   0  0  0  0  0  0  0  0  0  0  0  0
    4.6642   -6.1104    5.2759 H   0  0  0  0  0  0  0  0  0  0  0  0
    3.9225   -4.6404    4.6823 H   0  0  0  0  0  0  0  0  0  0  0  0
    3.2707   -7.5521    2.3212 H   0  0  0  0  0  0  0  0  0  0  0  0
    0.9662   -8.0359    2.9059 H   0  0  0  0  0  0  0  0  0  0  0  0
    0.9760   -7.3414    1.3040 H   0  0  0  0  0  0  0  0  0  0  0  0
    0.4742   -6.3630    2.6978 H   0  0  0  0  0  0  0  0  0  0  0  0
    2.4096   -4.6659    2.1934 H   0  0  0  0  0  0  0  0  0  0  0  0
    2.0114   -5.7756   -0.1298 H   0  0  0  0  0  0  0  0  0  0  0  0
    3.8987   -7.4097    0.4367 H   0  0  0  0  0  0  0  0  0  0  0  0
    4.3220   -6.6923   -1.0642 H   0  0  0  0  0  0  0  0  0  0  0  0
    6.0364   -6.3986    0.9077 H   0  0  0  0  0  0  0  0  0  0  0  0
    4.6246   -4.8272   -2.0157 H   0  0  0  0  0  0  0  0  0  0  0  0
    7.1350   -3.5363   -1.8483 H   0  0  0  0  0  0  0  0  0  0  0  0
    3.8429    0.1362   -2.1937 H   0  0  0  0  0  0  0  0  0  0  0  0
    2.2112   -4.1609   -2.2871 H   0  0  0  0  0  0  0  0  0  0  0  0
    2.3119   -2.5146   -1.6739 H   0  0  0  0  0  0  0  0  0  0  0  0
    1.2643   -3.6693   -0.9084 H   0  0  0  0  0  0  0  0  0  0  0  0
  1  2  1  0
  1 33  1  0
  1 34  1  0
  1 35  1  0
  2  3  1  0
  3  4  1  0
  3 36  1  0
  3 37  1  0
  5  4  1  1
  5  9  1  0
  5 31  1  0
  5  6  1  0
  6 30  1  0
  6  7  1  0
  6 38  1  6
  7  8  1  0
  7 39  1  0
  7 40  1  0
  8  9  1  0
  8 41  1  0
  8 42  1  0
  9 10  1  0
  9 43  1  1
 10 18  1  0
 10 21  1  0
 10 11  1  1
 11 12  1  0
 11 13  1  0
 11 44  1  6
 12 45  1  0
 13 14  1  0
 13 46  1  0
 13 47  1  0
 14 15  2  0
 14 16  1  0
 16 17  1  0
 16 18  1  0
 16 48  1  6
 17 49  1  0
 17 50  1  0
 17 51  1  0
 18 19  1  0
 18 52  1  1
 19 31  1  0
 19 20  1  0
 19 53  1  1
 20 21  1  0
 20 54  1  0
 20 55  1  0
 21 22  1  0
 21 56  1  1
 22 23  1  0
 23 24  1  0
 23 31  1  0
 23 57  1  6
 24 30  1  0
 24 25  1  6
 24 26  1  0
 25 58  1  0
 26 27  1  0
 27 28  2  0
 27 29  1  0
 29 30  2  0
 29 59  1  0
 31 32  1  6
 32 60  1  0
 32 61  1  0
 32 62  1  0
M  END
>  <i_m_ct_stereo_status>  (197) 
1

>  <s_m_source_file>  (197) 
/var/tmp/pbs.5076255.sched01/tmpyrjfudeo/454urwji6r.sdf

>  <i_m_source_file_index>  (197) 
40

>  <i_lp_mmshare_version>  (197) 
48012

>  <i_f3d_flags>  (197) 
0

>  <s_epik_input>  (197) 
W0NIM11PW0NIMl1PW0NAXTEoW0NASF0yW0NAQF0zNDUpW0NAQEhdKFtDSDJdW0NIMl0yKUM2W0NAXShbT0hdKShPQyg9TylbQ0hdPTYpW0NIXTdbQ0BAXTEoW0NIM10pW0NAQEhdKFtDSDJdW0NASF01TzcpW0NASF00W0NASF0oW0NIM10pQyg9TylbQ0gyXVtDQEBIXTNbT0hd

>  <s_epik_cmdline>  (197) 
J2VwaWtfcHl0aG9uJywgJy1waHQnLCAnMi4wJywgJy1waCcsICc3LjAnLCAnLXRuJywgJzgnLCAnLW1hJywgJzIwMCcsICctaW1hZScsICc8aW5maWxlLm1hZT4nLCAnLW9tYWUnLCAnPG91dGZpbGUubWFlPic=

>  <r_lp_tautomer_probability>  (197) 
1

>  <r_epik_Ionization_Penalty>  (197) 
0.0710165

>  <r_epik_Ionization_Penalty_Charging>  (197) 
0

>  <r_epik_Ionization_Penalty_Neutral>  (197) 
0.0710165

>  <r_epik_State_Penalty>  (197) 
0.0623117

>  <r_epik_Charging_Adjusted_Penalty>  (197) 
0.0623117

>  <i_epik_Tot_Q>  (197) 
0

>  <i_epik_Tot_abs_Q>  (197) 
0

>  <s_epik_Chemistry_Notes>  (197) 
This compound has an ester and may undergo hydrolysis at high or low pH. This compound contains an acetal/aminal-like group ( X-CH(R)-Y where X, Y are N, S, or O) that may be acid/base labile, releasing an aldehyde.

>  <s_lp_Force_Field>  (197) 
OPLS3e

>  <r_lp_Energy>  (197) 
83.6389

>  <b_lp_Chiralities_Consistent>  (197) 
1

>  <s_lp_Variant>  (197) 
51:0-1

>  <s_i_glide_gridfile>  (197) 
pfpi4k_grid

>  <i_i_glide_lignum>  (197) 
40

>  <i_i_glide_rotatable_bonds>  (197) 
5

>  <r_i_docking_score>  (197) 
-2.65819

>  <r_i_glide_ligand_efficiency>  (197) 
-0.0830686

>  <r_i_glide_ligand_efficiency_sa>  (197) 
-0.263726

>  <r_i_glide_ligand_efficiency_ln>  (197) 
-0.595242

>  <r_i_glide_gscore>  (197) 
-2.65819

>  <r_i_glide_lipo>  (197) 
-0.386394

>  <r_i_glide_hbond>  (197) 
-0.32

>  <r_i_glide_metal>  (197) 
-0

>  <r_i_glide_rewards>  (197) 
-0.52889

>  <r_i_glide_evdw>  (197) 
-21.6303

>  <r_i_glide_ecoul>  (197) 
-3.46705

>  <r_i_glide_erotb>  (197) 
0.200818

>  <r_i_glide_esite>  (197) 
-0.0221528

>  <r_i_glide_emodel>  (197) 
-27.5955

>  <r_i_glide_energy>  (197) 
-25.0974

>  <r_i_glide_einternal>  (197) 
2.39571

>  <r_i_glide_intrahb_reward>  (197) 
-0

>  <i_i_glide_confnum>  (197) 
4

>  <i_i_glide_posenum>  (197) 
35

>  <r_i_glide_eff_state_penalty>  (197) 
0

>  <ligand_id>  (197) 
51

>  <original_smiles>  (197) 
COCOC12C3CCC1C14C(O)CC(=O)C(C)C1C1CC4OC(C4(O)OC(=O)C=C34)C12C

>  <smiles>  (197) 
[H]OC12OC(=O)C([H])=C1C1([H])C([H])([H])C([H])([H])C3([H])C1(OC([H])([H])OC([H])([H])[H])C1(C([H])([H])[H])C2([H])OC2([H])C([H])([H])C1([H])C1([H])C([H])(C([H])([H])[H])C(=O)C([H])([H])C([H])(O[H])C213

$$$$
51:0:1
     RDKit          3D

 62 68  0  0  1  0  0  0  0  0999 V2000
    1.6231   -0.9617    4.6834 C   0  0  0  0  0  0  0  0  0  0  0  0
    1.8223   -1.8810    3.6339 O   0  0  0  0  0  0  0  0  0  0  0  0
    1.7343   -1.3322    2.3629 C   0  0  0  0  0  0  0  0  0  0  0  0
    2.0055   -2.2595    1.3487 O   0  0  0  0  0  0  0  0  0  0  0  0
    3.3384   -2.6572    0.9831 C   0  0  1  0  0  0  0  0  0  0  0  0
    4.1095   -1.4084    0.4184 C   0  0  1  0  0  0  0  0  0  0  0  0
    5.2829   -1.1608    1.3739 C   0  0  0  0  0  0  0  0  0  0  0  0
    5.5718   -2.4905    2.0791 C   0  0  0  0  0  0  0  0  0  0  0  0
    4.2037   -3.1933    2.1795 C   0  0  2  0  0  0  0  0  0  0  0  0
    4.1504   -4.7508    2.3535 C   0  0  1  0  0  0  0  0  0  0  0  0
    4.6334   -5.2778    3.7421 C   0  0  1  0  0  0  0  0  0  0  0  0
    5.8144   -4.6642    4.1732 O   0  0  0  0  0  0  0  0  0  0  0  0
    3.5996   -5.1328    4.8635 C   0  0  0  0  0  0  0  0  0  0  0  0
    2.3107   -5.8881    4.5293 C   0  0  0  0  0  0  0  0  0  0  0  0
    1.4953   -6.1790    5.3951 O   0  0  0  0  0  0  0  0  0  0  0  0
    2.1080   -6.2517    3.0404 C   0  0  1  0  0  0  0  0  0  0  0  0
    0.6389   -6.6401    2.7757 C   0  0  0  0  0  0  0  0  0  0  0  0
    2.6351   -5.0735    2.1665 C   0  0  2  0  0  0  0  0  0  0  0  0
    2.6210   -5.1938    0.6315 C   0  0  2  0  0  0  0  0  0  0  0  0
    3.6808   -6.2913    0.4865 C   0  0  0  0  0  0  0  0  0  0  0  0
    4.8322   -5.5679    1.1879 C   0  0  1  0  0  0  0  0  0  0  0  0
    5.4360   -4.7399    0.1862 O   0  0  0  0  0  0  0  0  0  0  0  0
    4.5247   -4.1227   -0.7474 C   0  0  2  0  0  0  0  0  0  0  0  0
    5.1930   -2.8894   -1.4125 C   0  0  1  0  0  0  0  0  0  0  0  0
    6.5697   -2.8348   -1.1701 O   0  0  0  0  0  0  0  0  0  0  0  0
    4.9403   -2.9186   -2.7848 O   0  0  0  0  0  0  0  0  0  0  0  0
    4.5093   -1.6935   -3.2103 C   0  0  0  0  0  0  0  0  0  0  0  0
    4.2474   -1.3847   -4.3656 O   0  0  0  0  0  0  0  0  0  0  0  0
    4.3110   -0.8558   -2.0493 C   0  0  0  0  0  0  0  0  0  0  0  0
    4.5906   -1.5913   -0.9892 C   0  0  0  0  0  0  0  0  0  0  0  0
    3.1222   -3.8394   -0.0669 C   0  0  2  0  0  0  0  0  0  0  0  0
    2.0728   -3.5060   -1.1572 C   0  0  0  0  0  0  0  0  0  0  0  0
    1.8707   -1.4501    5.6177 H   0  0  0  0  0  0  0  0  0  0  0  0
    0.6009   -0.6095    4.7483 H   0  0  0  0  0  0  0  0  0  0  0  0
    2.2772   -0.1078    4.5890 H   0  0  0  0  0  0  0  0  0  0  0  0
    0.7134   -0.9964    2.1896 H   0  0  0  0  0  0  0  0  0  0  0  0
    2.3589   -0.4525    2.2902 H   0  0  0  0  0  0  0  0  0  0  0  0
    3.4779   -0.5151    0.3467 H   0  0  0  0  0  0  0  0  0  0  0  0
    6.1723   -0.7811    0.8634 H   0  0  0  0  0  0  0  0  0  0  0  0
    4.9764   -0.4218    2.1123 H   0  0  0  0  0  0  0  0  0  0  0  0
    6.3512   -3.0561    1.5538 H   0  0  0  0  0  0  0  0  0  0  0  0
    5.9419   -2.2933    3.0823 H   0  0  0  0  0  0  0  0  0  0  0  0
    3.8287   -2.7992    3.1227 H   0  0  0  0  0  0  0  0  0  0  0  0
    4.8305   -6.3492    3.6490 H   0  0  0  0  0  0  0  0  0  0  0  0
    6.1472   -5.1831    4.8949 H   0  0  0  0  0  0  0  0  0  0  0  0
    3.9871   -5.5297    5.7990 H   0  0  0  0  0  0  0  0  0  0  0  0
    3.3675   -4.0887    5.0466 H   0  0  0  0  0  0  0  0  0  0  0  0
    2.7082   -7.1481    2.8895 H   0  0  0  0  0  0  0  0  0  0  0  0
    0.3550   -7.4936    3.3939 H   0  0  0  0  0  0  0  0  0  0  0  0
    0.4739   -6.9267    1.7371 H   0  0  0  0  0  0  0  0  0  0  0  0
   -0.0356   -5.8270    3.0382 H   0  0  0  0  0  0  0  0  0  0  0  0
    2.0076   -4.2541    2.5044 H   0  0  0  0  0  0  0  0  0  0  0  0
    1.6522   -5.5276    0.2426 H   0  0  0  0  0  0  0  0  0  0  0  0
    3.4147   -7.2031    1.0107 H   0  0  0  0  0  0  0  0  0  0  0  0
    3.9083   -6.6088   -0.5360 H   0  0  0  0  0  0  0  0  0  0  0  0
    5.5796   -6.2744    1.5492 H   0  0  0  0  0  0  0  0  0  0  0  0
    4.4244   -4.8517   -1.5410 H   0  0  0  0  0  0  0  0  0  0  0  0
    6.9461   -3.6996   -1.3359 H   0  0  0  0  0  0  0  0  0  0  0  0
    3.8179    0.1022   -2.1442 H   0  0  0  0  0  0  0  0  0  0  0  0
    2.0673   -4.2378   -1.9597 H   0  0  0  0  0  0  0  0  0  0  0  0
    2.2802   -2.5666   -1.6490 H   0  0  0  0  0  0  0  0  0  0  0  0
    1.0333   -3.4670   -0.8090 H   0  0  0  0  0  0  0  0  0  0  0  0
  1  2  1  0
  1 33  1  0
  1 34  1  0
  1 35  1  0
  2  3  1  0
  3  4  1  0
  3 36  1  0
  3 37  1  0
  5  4  1  1
  5  9  1  0
  5 31  1  0
  5  6  1  0
  6 30  1  0
  6  7  1  0
  6 38  1  6
  7  8  1  0
  7 39  1  0
  7 40  1  0
  8  9  1  0
  8 41  1  0
  8 42  1  0
  9 10  1  0
  9 43  1  1
 10 18  1  0
 10 21  1  0
 10 11  1  1
 11 12  1  0
 11 13  1  0
 11 44  1  6
 12 45  1  0
 13 14  1  0
 13 46  1  0
 13 47  1  0
 14 15  2  0
 14 16  1  0
 16 17  1  0
 16 18  1  0
 16 48  1  6
 17 49  1  0
 17 50  1  0
 17 51  1  0
 18 19  1  0
 18 52  1  6
 19 31  1  0
 19 20  1  0
 19 53  1  6
 20 21  1  0
 20 54  1  0
 20 55  1  0
 21 22  1  0
 21 56  1  1
 22 23  1  0
 23 24  1  0
 23 31  1  0
 23 57  1  6
 24 30  1  0
 24 25  1  6
 24 26  1  0
 25 58  1  0
 26 27  1  0
 27 28  2  0
 27 29  1  0
 29 30  2  0
 29 59  1  0
 31 32  1  6
 32 60  1  0
 32 61  1  0
 32 62  1  0
M  END
>  <i_m_ct_stereo_status>  (198) 
1

>  <s_m_source_file>  (198) 
/var/tmp/pbs.5076255.sched01/tmpyrjfudeo/454urwji6r.sdf

>  <i_m_source_file_index>  (198) 
40

>  <i_lp_mmshare_version>  (198) 
48012

>  <i_f3d_flags>  (198) 
0

>  <s_epik_input>  (198) 
W0NIM11PW0NIMl1PW0NAXTEoW0NASF0yW0NAQF0zNDUpW0NAQEhdKFtDSDJdW0NIMl0yKUM2W0NAXShbT0hdKShPQyg9TylbQ0hdPTYpW0NIXTdbQ0BAXTEoW0NIM10pW0NAQEhdKFtDSDJdW0NASF01TzcpW0NASF00W0NASF0oW0NIM10pQyg9TylbQ0gyXVtDQEBIXTNbT0hd

>  <s_epik_cmdline>  (198) 
J2VwaWtfcHl0aG9uJywgJy1waHQnLCAnMi4wJywgJy1waCcsICc3LjAnLCAnLXRuJywgJzgnLCAnLW1hJywgJzIwMCcsICctaW1hZScsICc8aW5maWxlLm1hZT4nLCAnLW9tYWUnLCAnPG91dGZpbGUubWFlPic=

>  <r_lp_tautomer_probability>  (198) 
1

>  <r_epik_Ionization_Penalty>  (198) 
0.0710165

>  <r_epik_Ionization_Penalty_Charging>  (198) 
0

>  <r_epik_Ionization_Penalty_Neutral>  (198) 
0.0710165

>  <r_epik_State_Penalty>  (198) 
0.0623117

>  <r_epik_Charging_Adjusted_Penalty>  (198) 
0.0623117

>  <i_epik_Tot_Q>  (198) 
0

>  <i_epik_Tot_abs_Q>  (198) 
0

>  <s_epik_Chemistry_Notes>  (198) 
This compound has an ester and may undergo hydrolysis at high or low pH. This compound contains an acetal/aminal-like group ( X-CH(R)-Y where X, Y are N, S, or O) that may be acid/base labile, releasing an aldehyde.

>  <s_lp_Force_Field>  (198) 
OPLS3e

>  <r_lp_Energy>  (198) 
83.6389

>  <b_lp_Chiralities_Consistent>  (198) 
1

>  <s_lp_Variant>  (198) 
51:0-1

>  <s_i_glide_gridfile>  (198) 
pfpi4k_grid

>  <i_i_glide_lignum>  (198) 
40

>  <i_i_glide_rotatable_bonds>  (198) 
5

>  <r_i_docking_score>  (198) 
-2.44571

>  <r_i_glide_ligand_efficiency>  (198) 
-0.0764283

>  <r_i_glide_ligand_efficiency_sa>  (198) 
-0.242645

>  <r_i_glide_ligand_efficiency_ln>  (198) 
-0.54766

>  <r_i_glide_gscore>  (198) 
-2.44571

>  <r_i_glide_lipo>  (198) 
-0.286553

>  <r_i_glide_hbond>  (198) 
-0.305061

>  <r_i_glide_metal>  (198) 
-0

>  <r_i_glide_rewards>  (198) 
-0.461371

>  <r_i_glide_evdw>  (198) 
-23.44

>  <r_i_glide_ecoul>  (198) 
-2.59664

>  <r_i_glide_erotb>  (198) 
0.200818

>  <r_i_glide_esite>  (198) 
-0.0320406

>  <r_i_glide_emodel>  (198) 
-28.0649

>  <r_i_glide_energy>  (198) 
-26.0367

>  <r_i_glide_einternal>  (198) 
2.44596

>  <r_i_glide_intrahb_reward>  (198) 
-0

>  <i_i_glide_confnum>  (198) 
3

>  <i_i_glide_posenum>  (198) 
8

>  <r_i_glide_eff_state_penalty>  (198) 
0

>  <ligand_id>  (198) 
51

>  <original_smiles>  (198) 
COCOC12C3CCC1C14C(O)CC(=O)C(C)C1C1CC4OC(C4(O)OC(=O)C=C34)C12C

>  <smiles>  (198) 
[H]OC12OC(=O)C([H])=C1C1([H])C([H])([H])C([H])([H])C3([H])C1(OC([H])([H])OC([H])([H])[H])C1(C([H])([H])[H])C2([H])OC2([H])C([H])([H])C1([H])C1([H])C([H])(C([H])([H])[H])C(=O)C([H])([H])C([H])(O[H])C213

$$$$
51:0:2
     RDKit          3D

 62 68  0  0  1  0  0  0  0  0999 V2000
    5.3755   -1.3529    5.4195 C   0  0  0  0  0  0  0  0  0  0  0  0
    5.0402   -2.0326    4.2289 O   0  0  0  0  0  0  0  0  0  0  0  0
    4.7198   -1.2096    3.1567 C   0  0  0  0  0  0  0  0  0  0  0  0
    4.0969   -1.9219    2.1283 O   0  0  0  0  0  0  0  0  0  0  0  0
    4.8507   -2.6733    1.1582 C   0  0  1  0  0  0  0  0  0  0  0  0
    5.6157   -1.6489    0.2491 C   0  0  1  0  0  0  0  0  0  0  0  0
    7.1162   -1.9347    0.4505 C   0  0  0  0  0  0  0  0  0  0  0  0
    7.2409   -3.3736    0.9545 C   0  0  0  0  0  0  0  0  0  0  0  0
    5.9518   -3.6276    1.7524 C   0  0  2  0  0  0  0  0  0  0  0  0
    5.4729   -5.1054    1.9724 C   0  0  1  0  0  0  0  0  0  0  0  0
    6.3820   -5.9689    2.9122 C   0  0  1  0  0  0  0  0  0  0  0  0
    7.7525   -5.8584    2.5939 O   0  0  0  0  0  0  0  0  0  0  0  0
    6.1654   -5.6934    4.4109 C   0  0  0  0  0  0  0  0  0  0  0  0
    4.7115   -5.9601    4.8114 C   0  0  0  0  0  0  0  0  0  0  0  0
    4.4026   -6.1322    5.9826 O   0  0  0  0  0  0  0  0  0  0  0  0
    3.6763   -6.0018    3.6677 C   0  0  1  0  0  0  0  0  0  0  0  0
    2.2362   -5.8696    4.2137 C   0  0  0  0  0  0  0  0  0  0  0  0
    4.0650   -4.9188    2.6123 C   0  0  2  0  0  0  0  0  0  0  0  0
    3.2480   -4.7846    1.3160 C   0  0  2  0  0  0  0  0  0  0  0  0
    3.6392   -6.1064    0.6614 C   0  0  0  0  0  0  0  0  0  0  0  0
    5.1512   -5.8785    0.6348 C   0  0  1  0  0  0  0  0  0  0  0  0
    5.4127   -5.1019   -0.5378 O   0  0  0  0  0  0  0  0  0  0  0  0
    4.4262   -4.1218   -0.8879 C   0  0  2  0  0  0  0  0  0  0  0  0
    5.0457   -3.0668   -1.8419 C   0  0  1  0  0  0  0  0  0  0  0  0
    6.3079   -3.4571   -2.3133 O   0  0  0  0  0  0  0  0  0  0  0  0
    4.1967   -2.8226   -2.9292 O   0  0  0  0  0  0  0  0  0  0  0  0
    4.1136   -1.4824   -3.1488 C   0  0  0  0  0  0  0  0  0  0  0  0
    3.6380   -0.9430   -4.1474 O   0  0  0  0  0  0  0  0  0  0  0  0
    4.6766   -0.8123   -1.9895 C   0  0  0  0  0  0  0  0  0  0  0  0
    5.1922   -1.7427   -1.1991 C   0  0  0  0  0  0  0  0  0  0  0  0
    3.7588   -3.5548    0.4160 C   0  0  2  0  0  0  0  0  0  0  0  0
    2.4878   -2.7700    0.0471 C   0  0  0  0  0  0  0  0  0  0  0  0
    5.6978   -2.0836    6.1589 H   0  0  0  0  0  0  0  0  0  0  0  0
    4.5057   -0.8342    5.8164 H   0  0  0  0  0  0  0  0  0  0  0  0
    6.1855   -0.6386    5.2799 H   0  0  0  0  0  0  0  0  0  0  0  0
    3.9768   -0.4837    3.4871 H   0  0  0  0  0  0  0  0  0  0  0  0
    5.5931   -0.6546    2.8162 H   0  0  0  0  0  0  0  0  0  0  0  0
    5.4135   -0.6135    0.5369 H   0  0  0  0  0  0  0  0  0  0  0  0
    7.7171   -1.8023   -0.4494 H   0  0  0  0  0  0  0  0  0  0  0  0
    7.5043   -1.2531    1.2076 H   0  0  0  0  0  0  0  0  0  0  0  0
    7.3881   -4.0609    0.1229 H   0  0  0  0  0  0  0  0  0  0  0  0
    8.1197   -3.4909    1.5855 H   0  0  0  0  0  0  0  0  0  0  0  0
    6.2131   -3.2807    2.7393 H   0  0  0  0  0  0  0  0  0  0  0  0
    6.1293   -7.0210    2.7568 H   0  0  0  0  0  0  0  0  0  0  0  0
    8.2311   -6.5527    3.0259 H   0  0  0  0  0  0  0  0  0  0  0  0
    6.8054   -6.3313    5.0198 H   0  0  0  0  0  0  0  0  0  0  0  0
    6.4141   -4.6648    4.6645 H   0  0  0  0  0  0  0  0  0  0  0  0
    3.7685   -7.0026    3.2498 H   0  0  0  0  0  0  0  0  0  0  0  0
    2.0131   -6.6789    4.9108 H   0  0  0  0  0  0  0  0  0  0  0  0
    1.4955   -5.9325    3.4171 H   0  0  0  0  0  0  0  0  0  0  0  0
    2.0829   -4.9309    4.7489 H   0  0  0  0  0  0  0  0  0  0  0  0
    3.9836   -4.0023    3.1881 H   0  0  0  0  0  0  0  0  0  0  0  0
    2.1765   -4.7475    1.5178 H   0  0  0  0  0  0  0  0  0  0  0  0
    3.3760   -6.9792    1.2519 H   0  0  0  0  0  0  0  0  0  0  0  0
    3.1881   -6.2594   -0.3171 H   0  0  0  0  0  0  0  0  0  0  0  0
    5.7003   -6.8173    0.5557 H   0  0  0  0  0  0  0  0  0  0  0  0
    3.6816   -4.6188   -1.4849 H   0  0  0  0  0  0  0  0  0  0  0  0
    6.2286   -4.3282   -2.6734 H   0  0  0  0  0  0  0  0  0  0  0  0
    4.5508    0.2321   -1.7977 H   0  0  0  0  0  0  0  0  0  0  0  0
    1.8473   -3.3524   -0.6241 H   0  0  0  0  0  0  0  0  0  0  0  0
    2.7222   -1.8405   -0.4625 H   0  0  0  0  0  0  0  0  0  0  0  0
    1.9021   -2.5012    0.9313 H   0  0  0  0  0  0  0  0  0  0  0  0
  1  2  1  0
  1 33  1  0
  1 34  1  0
  1 35  1  0
  2  3  1  0
  3  4  1  0
  3 36  1  0
  3 37  1  0
  5  4  1  1
  5  9  1  0
  5 31  1  0
  5  6  1  0
  6 30  1  0
  6  7  1  0
  6 38  1  1
  7  8  1  0
  7 39  1  0
  7 40  1  0
  8  9  1  0
  8 41  1  0
  8 42  1  0
  9 10  1  0
  9 43  1  1
 10 18  1  0
 10 21  1  0
 10 11  1  1
 11 12  1  0
 11 13  1  0
 11 44  1  1
 12 45  1  0
 13 14  1  0
 13 46  1  0
 13 47  1  0
 14 15  2  0
 14 16  1  0
 16 17  1  0
 16 18  1  0
 16 48  1  6
 17 49  1  0
 17 50  1  0
 17 51  1  0
 18 19  1  0
 18 52  1  1
 19 31  1  0
 19 20  1  0
 19 53  1  1
 20 21  1  0
 20 54  1  0
 20 55  1  0
 21 22  1  0
 21 56  1  6
 22 23  1  0
 23 24  1  0
 23 31  1  0
 23 57  1  6
 24 30  1  0
 24 25  1  6
 24 26  1  0
 25 58  1  0
 26 27  1  0
 27 28  2  0
 27 29  1  0
 29 30  2  0
 29 59  1  0
 31 32  1  6
 32 60  1  0
 32 61  1  0
 32 62  1  0
M  END
>  <i_m_ct_stereo_status>  (199) 
1

>  <s_m_source_file>  (199) 
/var/tmp/pbs.5076255.sched01/tmpyrjfudeo/454urwji6r.sdf

>  <i_m_source_file_index>  (199) 
40

>  <i_lp_mmshare_version>  (199) 
48012

>  <i_f3d_flags>  (199) 
0

>  <s_epik_input>  (199) 
W0NIM11PW0NIMl1PW0NAXTEoW0NASF0yW0NAQF0zNDUpW0NAQEhdKFtDSDJdW0NIMl0yKUM2W0NAXShbT0hdKShPQyg9TylbQ0hdPTYpW0NIXTdbQ0BAXTEoW0NIM10pW0NAQEhdKFtDSDJdW0NASF01TzcpW0NASF00W0NASF0oW0NIM10pQyg9TylbQ0gyXVtDQEBIXTNbT0hd

>  <s_epik_cmdline>  (199) 
J2VwaWtfcHl0aG9uJywgJy1waHQnLCAnMi4wJywgJy1waCcsICc3LjAnLCAnLXRuJywgJzgnLCAnLW1hJywgJzIwMCcsICctaW1hZScsICc8aW5maWxlLm1hZT4nLCAnLW9tYWUnLCAnPG91dGZpbGUubWFlPic=

>  <r_lp_tautomer_probability>  (199) 
1

>  <r_epik_Ionization_Penalty>  (199) 
0.0710165

>  <r_epik_Ionization_Penalty_Charging>  (199) 
0

>  <r_epik_Ionization_Penalty_Neutral>  (199) 
0.0710165

>  <r_epik_State_Penalty>  (199) 
0.0623117

>  <r_epik_Charging_Adjusted_Penalty>  (199) 
0.0623117

>  <i_epik_Tot_Q>  (199) 
0

>  <i_epik_Tot_abs_Q>  (199) 
0

>  <s_epik_Chemistry_Notes>  (199) 
This compound has an ester and may undergo hydrolysis at high or low pH. This compound contains an acetal/aminal-like group ( X-CH(R)-Y where X, Y are N, S, or O) that may be acid/base labile, releasing an aldehyde.

>  <s_lp_Force_Field>  (199) 
OPLS3e

>  <r_lp_Energy>  (199) 
83.6389

>  <b_lp_Chiralities_Consistent>  (199) 
1

>  <s_lp_Variant>  (199) 
51:0-1

>  <s_i_glide_gridfile>  (199) 
pfpi4k_grid

>  <i_i_glide_lignum>  (199) 
40

>  <i_i_glide_rotatable_bonds>  (199) 
5

>  <r_i_docking_score>  (199) 
-2.32503

>  <r_i_glide_ligand_efficiency>  (199) 
-0.0726573

>  <r_i_glide_ligand_efficiency_sa>  (199) 
-0.230673

>  <r_i_glide_ligand_efficiency_ln>  (199) 
-0.520638

>  <r_i_glide_gscore>  (199) 
-2.32503

>  <r_i_glide_lipo>  (199) 
-0.432515

>  <r_i_glide_hbond>  (199) 
0

>  <r_i_glide_metal>  (199) 
-0

>  <r_i_glide_rewards>  (199) 
-0.648172

>  <r_i_glide_evdw>  (199) 
-23.8604

>  <r_i_glide_ecoul>  (199) 
-1.68095

>  <r_i_glide_erotb>  (199) 
0.200818

>  <r_i_glide_esite>  (199) 
0

>  <r_i_glide_emodel>  (199) 
-27.4611

>  <r_i_glide_energy>  (199) 
-25.5414

>  <r_i_glide_einternal>  (199) 
2.91536

>  <r_i_glide_intrahb_reward>  (199) 
-0

>  <i_i_glide_confnum>  (199) 
1

>  <i_i_glide_posenum>  (199) 
16

>  <r_i_glide_eff_state_penalty>  (199) 
0

>  <ligand_id>  (199) 
51

>  <original_smiles>  (199) 
COCOC12C3CCC1C14C(O)CC(=O)C(C)C1C1CC4OC(C4(O)OC(=O)C=C34)C12C

>  <smiles>  (199) 
[H]OC12OC(=O)C([H])=C1C1([H])C([H])([H])C([H])([H])C3([H])C1(OC([H])([H])OC([H])([H])[H])C1(C([H])([H])[H])C2([H])OC2([H])C([H])([H])C1([H])C1([H])C([H])(C([H])([H])[H])C(=O)C([H])([H])C([H])(O[H])C213

$$$$
51:1:0
     RDKit          3D

 61 67  0  0  1  0  0  0  0  0999 V2000
    0.8311   -2.7833    3.8566 C   0  0  0  0  0  0  0  0  0  0  0  0
    1.7084   -1.7367    3.4578 O   0  0  0  0  0  0  0  0  0  0  0  0
    1.5868   -1.3059    2.1328 C   0  0  0  0  0  0  0  0  0  0  0  0
    1.9280   -2.2993    1.1980 O   0  0  0  0  0  0  0  0  0  0  0  0
    3.2794   -2.6377    0.8039 C   0  0  1  0  0  0  0  0  0  0  0  0
    3.9920   -1.3343    0.2792 C   0  0  1  0  0  0  0  0  0  0  0  0
    5.1003   -1.0234    1.3025 C   0  0  0  0  0  0  0  0  0  0  0  0
    5.4253   -2.3304    2.0268 C   0  0  0  0  0  0  0  0  0  0  0  0
    4.1276   -3.1435    2.0313 C   0  0  2  0  0  0  0  0  0  0  0  0
    4.1723   -4.7128    2.1787 C   0  0  1  0  0  0  0  0  0  0  0  0
    4.6390   -5.2211    3.5928 C   0  0  1  0  0  0  0  0  0  0  0  0
    5.8095   -4.5757    4.0538 O   0  0  0  0  0  0  0  0  0  0  0  0
    3.5663   -5.1209    4.6988 C   0  0  0  0  0  0  0  0  0  0  0  0
    2.3264   -5.9417    4.3243 C   0  0  0  0  0  0  0  0  0  0  0  0
    1.5227   -6.2747    5.1839 O   0  0  0  0  0  0  0  0  0  0  0  0
    2.1687   -6.3178    2.8255 C   0  0  1  0  0  0  0  0  0  0  0  0
    0.7093   -6.7563    2.5448 C   0  0  0  0  0  0  0  0  0  0  0  0
    2.7010   -5.1380    1.9236 C   0  0  2  0  0  0  0  0  0  0  0  0
    2.7083   -5.2402    0.3976 C   0  0  2  0  0  0  0  0  0  0  0  0
    3.8165   -6.2714    0.2867 C   0  0  0  0  0  0  0  0  0  0  0  0
    4.9111   -5.4707    1.0064 C   0  0  1  0  0  0  0  0  0  0  0  0
    5.4662   -4.5829    0.0343 O   0  0  0  0  0  0  0  0  0  0  0  0
    4.5637   -3.9868   -0.9224 C   0  0  2  0  0  0  0  0  0  0  0  0
    5.2243   -2.7130   -1.5417 C   0  0  1  0  0  0  0  0  0  0  0  0
    6.5058   -2.5575   -1.2106 O   0  0  0  0  0  0  0  0  0  0  0  0
    5.0777   -2.6977   -2.9647 O   0  0  0  0  0  0  0  0  0  0  0  0
    4.5473   -1.5398   -3.3848 C   0  0  0  0  0  0  0  0  0  0  0  0
    4.3593   -1.1776   -4.5441 O   0  0  0  0  0  0  0  0  0  0  0  0
    4.1834   -0.7553   -2.2256 C   0  0  0  0  0  0  0  0  0  0  0  0
    4.5093   -1.4944   -1.1418 C   0  0  0  0  0  0  0  0  0  0  0  0
    3.1314   -3.8274   -0.2645 C   0  0  2  0  0  0  0  0  0  0  0  0
    2.0539   -3.5170   -1.3540 C   0  0  0  0  0  0  0  0  0  0  0  0
    1.1524   -3.1352    4.8414 H   0  0  0  0  0  0  0  0  0  0  0  0
    0.8023   -3.6488    3.2335 H   0  0  0  0  0  0  0  0  0  0  0  0
   -0.2028   -2.4555    3.8467 H   0  0  0  0  0  0  0  0  0  0  0  0
    0.5407   -1.0408    1.9677 H   0  0  0  0  0  0  0  0  0  0  0  0
    2.1416   -0.3766    1.9747 H   0  0  0  0  0  0  0  0  0  0  0  0
    3.3253   -0.4818    0.2054 H   0  0  0  0  0  0  0  0  0  0  0  0
    5.9885   -0.5765    0.8558 H   0  0  0  0  0  0  0  0  0  0  0  0
    4.7071   -0.3094    2.0271 H   0  0  0  0  0  0  0  0  0  0  0  0
    6.2144   -2.8677    1.5168 H   0  0  0  0  0  0  0  0  0  0  0  0
    5.7750   -2.1325    3.0383 H   0  0  0  0  0  0  0  0  0  0  0  0
    3.6697   -2.8027    2.9501 H   0  0  0  0  0  0  0  0  0  0  0  0
    4.9001   -6.2784    3.5128 H   0  0  0  0  0  0  0  0  0  0  0  0
    6.1315   -5.0237    4.8136 H   0  0  0  0  0  0  0  0  0  0  0  0
    3.9484   -5.4985    5.6526 H   0  0  0  0  0  0  0  0  0  0  0  0
    3.2674   -4.0896    4.8811 H   0  0  0  0  0  0  0  0  0  0  0  0
    2.7822   -7.2171    2.7280 H   0  0  0  0  0  0  0  0  0  0  0  0
    0.4427   -7.6350    3.1360 H   0  0  0  0  0  0  0  0  0  0  0  0
    0.5726   -7.0466    1.5043 H   0  0  0  0  0  0  0  0  0  0  0  0
   -0.0305   -5.9915    2.7890 H   0  0  0  0  0  0  0  0  0  0  0  0
    2.0231   -4.3431    2.0399 H   0  0  0  0  0  0  0  0  0  0  0  0
    1.7384   -5.6022    0.0499 H   0  0  0  0  0  0  0  0  0  0  0  0
    3.5621   -7.1961    0.7982 H   0  0  0  0  0  0  0  0  0  0  0  0
    4.0629   -6.5539   -0.7322 H   0  0  0  0  0  0  0  0  0  0  0  0
    5.6986   -6.1240    1.3795 H   0  0  0  0  0  0  0  0  0  0  0  0
    4.4565   -4.6726   -1.7574 H   0  0  0  0  0  0  0  0  0  0  0  0
    3.5986    0.1128   -2.3321 H   0  0  0  0  0  0  0  0  0  0  0  0
    2.0740   -4.2522   -2.1543 H   0  0  0  0  0  0  0  0  0  0  0  0
    2.1704   -2.5414   -1.8204 H   0  0  0  0  0  0  0  0  0  0  0  0
    1.0397   -3.5616   -0.9700 H   0  0  0  0  0  0  0  0  0  0  0  0
  1  2  1  0
  1 33  1  0
  1 34  1  0
  1 35  1  0
  2  3  1  0
  3  4  1  0
  3 36  1  0
  3 37  1  0
  5  4  1  1
  5  9  1  0
  5 31  1  0
  5  6  1  0
  6 30  1  0
  6  7  1  0
  6 38  1  6
  7  8  1  0
  7 39  1  0
  7 40  1  0
  8  9  1  0
  8 41  1  0
  8 42  1  0
  9 10  1  0
  9 43  1  1
 10 18  1  0
 10 21  1  0
 10 11  1  1
 11 12  1  0
 11 13  1  0
 11 44  1  6
 12 45  1  0
 13 14  1  0
 13 46  1  0
 13 47  1  0
 14 15  2  0
 14 16  1  0
 16 17  1  0
 16 18  1  0
 16 48  1  1
 17 49  1  0
 17 50  1  0
 17 51  1  0
 18 19  1  0
 18 52  1  6
 19 31  1  0
 19 20  1  0
 19 53  1  6
 20 21  1  0
 20 54  1  0
 20 55  1  0
 21 22  1  0
 21 56  1  1
 22 23  1  0
 23 24  1  0
 23 31  1  0
 23 57  1  6
 24 30  1  0
 24 25  1  6
 24 26  1  0
 26 27  1  0
 27 28  2  0
 27 29  1  0
 29 30  2  0
 29 58  1  0
 31 32  1  6
 32 59  1  0
 32 60  1  0
 32 61  1  0
M  CHG  1  25  -1
M  END
>  <i_m_ct_stereo_status>  (200) 
1

>  <s_m_source_file>  (200) 
/var/tmp/pbs.5076255.sched01/tmpyrjfudeo/454urwji6r.sdf

>  <i_m_source_file_index>  (200) 
41

>  <i_lp_mmshare_version>  (200) 
48012

>  <i_f3d_flags>  (200) 
0

>  <s_epik_input>  (200) 
W0NIM11PW0NIMl1PW0NAXTEoW0NASF0yW0NAQF0zNDUpW0NAQEhdKFtDSDJdW0NIMl0yKUM2W0NAXShbT0hdKShPQyg9TylbQ0hdPTYpW0NIXTdbQ0BAXTEoW0NIM10pW0NAQEhdKFtDSDJdW0NASF01TzcpW0NASF00W0NASF0oW0NIM10pQyg9TylbQ0gyXVtDQEBIXTNbT0hd

>  <s_epik_cmdline>  (200) 
J2VwaWtfcHl0aG9uJywgJy1waHQnLCAnMi4wJywgJy1waCcsICc3LjAnLCAnLXRuJywgJzgnLCAnLW1hJywgJzIwMCcsICctaW1hZScsICc8aW5maWxlLm1hZT4nLCAnLW9tYWUnLCAnPG91dGZpbGUubWFlPic=

>  <r_lp_tautomer_probability>  (200) 
1

>  <r_epik_Ionization_Penalty>  (200) 
1.29206

>  <r_epik_Ionization_Penalty_Charging>  (200) 
1.29206

>  <r_epik_Ionization_Penalty_Neutral>  (200) 
6.16201e-08

>  <r_epik_State_Penalty>  (200) 
1.36527

>  <r_epik_Charging_Adjusted_Penalty>  (200) 
2.65733

>  <i_epik_Tot_Q>  (200) 
-1

>  <i_epik_Tot_abs_Q>  (200) 
1

>  <s_epik_Chemistry_Notes>  (200) 
This compound has an ester and may undergo hydrolysis at high or low pH. This compound contains an acetal/aminal-like group ( X-CH(R)-Y where X, Y are N, S, or O) that may be acid/base labile, releasing an aldehyde.

>  <s_lp_Force_Field>  (200) 
OPLS3e

>  <r_lp_Energy>  (200) 
90.6564

>  <b_lp_Chiralities_Consistent>  (200) 
1

>  <s_lp_Variant>  (200) 
51:0-2

>  <s_i_glide_gridfile>  (200) 
pfpi4k_grid

>  <i_i_glide_lignum>  (200) 
41

>  <i_i_glide_rotatable_bonds>  (200) 
4

>  <r_i_docking_score>  (200) 
-2.66415

>  <r_i_glide_ligand_efficiency>  (200) 
-0.0832548

>  <r_i_glide_ligand_efficiency_sa>  (200) 
-0.264318

>  <r_i_glide_ligand_efficiency_ln>  (200) 
-0.596577

>  <r_i_glide_gscore>  (200) 
-2.66415

>  <r_i_glide_lipo>  (200) 
-0.35163

>  <r_i_glide_hbond>  (200) 
-0.359769

>  <r_i_glide_metal>  (200) 
-0

>  <r_i_glide_rewards>  (200) 
-0.472514

>  <r_i_glide_evdw>  (200) 
-19.9475

>  <r_i_glide_ecoul>  (200) 
-4.15001

>  <r_i_glide_erotb>  (200) 
0.201644

>  <r_i_glide_esite>  (200) 
-0.0620058

>  <r_i_glide_emodel>  (200) 
-26.5412

>  <r_i_glide_energy>  (200) 
-24.0976

>  <r_i_glide_einternal>  (200) 
0.949392

>  <r_i_glide_intrahb_reward>  (200) 
-0

>  <i_i_glide_confnum>  (200) 
6

>  <i_i_glide_posenum>  (200) 
30

>  <r_i_glide_eff_state_penalty>  (200) 
0

>  <ligand_id>  (200) 
51

>  <original_smiles>  (200) 
COCOC12C3CCC1C14C(O)CC(=O)C(C)C1C1CC4OC(C4(O)OC(=O)C=C34)C12C

>  <smiles>  (200) 
[H]OC1([H])C([H])([H])C(=O)C([H])(C([H])([H])[H])C2([H])C3([H])C([H])([H])C4([H])OC5([H])C6([O-])OC(=O)C([H])=C6C6([H])C([H])([H])C([H])([H])C([H])(C6(OC([H])([H])OC([H])([H])[H])C53C([H])([H])[H])C142

$$$$
51:1:1
     RDKit          3D

 61 67  0  0  1  0  0  0  0  0999 V2000
    1.4780    0.2069    1.9349 C   0  0  0  0  0  0  0  0  0  0  0  0
    1.3229   -1.0495    2.5698 O   0  0  0  0  0  0  0  0  0  0  0  0
    2.4577   -1.8373    2.4792 C   0  0  0  0  0  0  0  0  0  0  0  0
    2.4870   -2.5586    1.2808 O   0  0  0  0  0  0  0  0  0  0  0  0
    3.7531   -2.9418    0.7159 C   0  0  1  0  0  0  0  0  0  0  0  0
    4.4247   -1.6245    0.1594 C   0  0  1  0  0  0  0  0  0  0  0  0
    5.7079   -1.4191    0.9668 C   0  0  0  0  0  0  0  0  0  0  0  0
    6.0860   -2.7822    1.5470 C   0  0  0  0  0  0  0  0  0  0  0  0
    4.7601   -3.5404    1.7707 C   0  0  2  0  0  0  0  0  0  0  0  0
    4.7575   -5.1159    1.8460 C   0  0  1  0  0  0  0  0  0  0  0  0
    5.4242   -5.7856    3.0719 C   0  0  1  0  0  0  0  0  0  0  0  0
    6.6741   -5.2493    3.2638 O   0  0  0  0  0  0  0  0  0  0  0  0
    4.6231   -5.6864    4.3717 C   0  0  0  0  0  0  0  0  0  0  0  0
    3.3089   -6.4371    4.1734 C   0  0  0  0  0  0  0  0  0  0  0  0
    2.6545   -6.8167    5.1377 O   0  0  0  0  0  0  0  0  0  0  0  0
    2.8840   -6.6995    2.7105 C   0  0  1  0  0  0  0  0  0  0  0  0
    1.4011   -7.0978    2.6342 C   0  0  0  0  0  0  0  0  0  0  0  0
    3.2505   -5.4505    1.8378 C   0  0  2  0  0  0  0  0  0  0  0  0
    3.0498   -5.4710    0.3001 C   0  0  2  0  0  0  0  0  0  0  0  0
    4.1226   -6.5211   -0.0387 C   0  0  0  0  0  0  0  0  0  0  0  0
    5.3090   -5.7974    0.5564 C   0  0  1  0  0  0  0  0  0  0  0  0
    5.7474   -4.8417   -0.4044 O   0  0  0  0  0  0  0  0  0  0  0  0
    4.7456   -4.2061   -1.2197 C   0  0  2  0  0  0  0  0  0  0  0  0
    5.3006   -2.9229   -1.8846 C   0  0  1  0  0  0  0  0  0  0  0  0
    6.6172   -2.8012   -1.7730 O   0  0  0  0  0  0  0  0  0  0  0  0
    4.9124   -2.8435   -3.2458 O   0  0  0  0  0  0  0  0  0  0  0  0
    4.3813   -1.6342   -3.5412 C   0  0  0  0  0  0  0  0  0  0  0  0
    4.0908   -1.2142   -4.6546 O   0  0  0  0  0  0  0  0  0  0  0  0
    4.2384   -0.9164   -2.2996 C   0  0  0  0  0  0  0  0  0  0  0  0
    4.6890   -1.6909   -1.3207 C   0  0  0  0  0  0  0  0  0  0  0  0
    3.4164   -4.0533   -0.3764 C   0  0  2  0  0  0  0  0  0  0  0  0
    2.2156   -3.6105   -1.2617 C   0  0  0  0  0  0  0  0  0  0  0  0
    0.5523    0.7805    1.9999 H   0  0  0  0  0  0  0  0  0  0  0  0
    1.7483    0.1069    0.8844 H   0  0  0  0  0  0  0  0  0  0  0  0
    2.2586    0.7795    2.4330 H   0  0  0  0  0  0  0  0  0  0  0  0
    3.3557   -1.2407    2.6680 H   0  0  0  0  0  0  0  0  0  0  0  0
    2.3734   -2.5674    3.2781 H   0  0  0  0  0  0  0  0  0  0  0  0
    3.7816   -0.7492    0.2834 H   0  0  0  0  0  0  0  0  0  0  0  0
    6.5295   -0.9854    0.3977 H   0  0  0  0  0  0  0  0  0  0  0  0
    5.4986   -0.7459    1.7923 H   0  0  0  0  0  0  0  0  0  0  0  0
    6.7870   -3.2978    0.8896 H   0  0  0  0  0  0  0  0  0  0  0  0
    6.6113   -2.6364    2.4788 H   0  0  0  0  0  0  0  0  0  0  0  0
    4.4805   -3.2180    2.7669 H   0  0  0  0  0  0  0  0  0  0  0  0
    5.6214   -6.8462    2.8726 H   0  0  0  0  0  0  0  0  0  0  0  0
    7.0993   -5.7160    3.9693 H   0  0  0  0  0  0  0  0  0  0  0  0
    5.1741   -6.1257    5.2052 H   0  0  0  0  0  0  0  0  0  0  0  0
    4.4232   -4.6488    4.6393 H   0  0  0  0  0  0  0  0  0  0  0  0
    3.4718   -7.5661    2.4063 H   0  0  0  0  0  0  0  0  0  0  0  0
    1.2275   -8.0041    3.2148 H   0  0  0  0  0  0  0  0  0  0  0  0
    1.1027   -7.3151    1.6107 H   0  0  0  0  0  0  0  0  0  0  0  0
    0.7520   -6.3174    3.0338 H   0  0  0  0  0  0  0  0  0  0  0  0
    2.6618   -4.6611    2.3045 H   0  0  0  0  0  0  0  0  0  0  0  0
    2.0422   -5.7966    0.0500 H   0  0  0  0  0  0  0  0  0  0  0  0
    3.9294   -7.4738    0.4449 H   0  0  0  0  0  0  0  0  0  0  0  0
    4.3381   -6.7613   -1.0768 H   0  0  0  0  0  0  0  0  0  0  0  0
    6.1273   -6.4956    0.7304 H   0  0  0  0  0  0  0  0  0  0  0  0
    4.6404   -4.8652   -2.0839 H   0  0  0  0  0  0  0  0  0  0  0  0
    3.6893    0.0071   -2.2847 H   0  0  0  0  0  0  0  0  0  0  0  0
    2.0629   -4.2285   -2.1446 H   0  0  0  0  0  0  0  0  0  0  0  0
    2.2861   -2.5839   -1.6067 H   0  0  0  0  0  0  0  0  0  0  0  0
    1.2885   -3.6833   -0.7129 H   0  0  0  0  0  0  0  0  0  0  0  0
  1  2  1  0
  1 33  1  0
  1 34  1  0
  1 35  1  0
  2  3  1  0
  3  4  1  0
  3 36  1  0
  3 37  1  0
  5  4  1  1
  5  9  1  0
  5 31  1  0
  5  6  1  0
  6 30  1  0
  6  7  1  0
  6 38  1  6
  7  8  1  0
  7 39  1  0
  7 40  1  0
  8  9  1  0
  8 41  1  0
  8 42  1  0
  9 10  1  0
  9 43  1  1
 10 18  1  0
 10 21  1  0
 10 11  1  1
 11 12  1  0
 11 13  1  0
 11 44  1  6
 12 45  1  0
 13 14  1  0
 13 46  1  0
 13 47  1  0
 14 15  2  0
 14 16  1  0
 16 17  1  0
 16 18  1  0
 16 48  1  6
 17 49  1  0
 17 50  1  0
 17 51  1  0
 18 19  1  0
 18 52  1  1
 19 31  1  0
 19 20  1  0
 19 53  1  1
 20 21  1  0
 20 54  1  0
 20 55  1  0
 21 22  1  0
 21 56  1  1
 22 23  1  0
 23 24  1  0
 23 31  1  0
 23 57  1  6
 24 30  1  0
 24 25  1  6
 24 26  1  0
 26 27  1  0
 27 28  2  0
 27 29  1  0
 29 30  2  0
 29 58  1  0
 31 32  1  6
 32 59  1  0
 32 60  1  0
 32 61  1  0
M  CHG  1  25  -1
M  END
>  <i_m_ct_stereo_status>  (201) 
1

>  <s_m_source_file>  (201) 
/var/tmp/pbs.5076255.sched01/tmpyrjfudeo/454urwji6r.sdf

>  <i_m_source_file_index>  (201) 
41

>  <i_lp_mmshare_version>  (201) 
48012

>  <i_f3d_flags>  (201) 
0

>  <s_epik_input>  (201) 
W0NIM11PW0NIMl1PW0NAXTEoW0NASF0yW0NAQF0zNDUpW0NAQEhdKFtDSDJdW0NIMl0yKUM2W0NAXShbT0hdKShPQyg9TylbQ0hdPTYpW0NIXTdbQ0BAXTEoW0NIM10pW0NAQEhdKFtDSDJdW0NASF01TzcpW0NASF00W0NASF0oW0NIM10pQyg9TylbQ0gyXVtDQEBIXTNbT0hd

>  <s_epik_cmdline>  (201) 
J2VwaWtfcHl0aG9uJywgJy1waHQnLCAnMi4wJywgJy1waCcsICc3LjAnLCAnLXRuJywgJzgnLCAnLW1hJywgJzIwMCcsICctaW1hZScsICc8aW5maWxlLm1hZT4nLCAnLW9tYWUnLCAnPG91dGZpbGUubWFlPic=

>  <r_lp_tautomer_probability>  (201) 
1

>  <r_epik_Ionization_Penalty>  (201) 
1.29206

>  <r_epik_Ionization_Penalty_Charging>  (201) 
1.29206

>  <r_epik_Ionization_Penalty_Neutral>  (201) 
6.16201e-08

>  <r_epik_State_Penalty>  (201) 
1.36527

>  <r_epik_Charging_Adjusted_Penalty>  (201) 
2.65733

>  <i_epik_Tot_Q>  (201) 
-1

>  <i_epik_Tot_abs_Q>  (201) 
1

>  <s_epik_Chemistry_Notes>  (201) 
This compound has an ester and may undergo hydrolysis at high or low pH. This compound contains an acetal/aminal-like group ( X-CH(R)-Y where X, Y are N, S, or O) that may be acid/base labile, releasing an aldehyde.

>  <s_lp_Force_Field>  (201) 
OPLS3e

>  <r_lp_Energy>  (201) 
90.6564

>  <b_lp_Chiralities_Consistent>  (201) 
1

>  <s_lp_Variant>  (201) 
51:0-2

>  <s_i_glide_gridfile>  (201) 
pfpi4k_grid

>  <i_i_glide_lignum>  (201) 
41

>  <i_i_glide_rotatable_bonds>  (201) 
4

>  <r_i_docking_score>  (201) 
-2.49631

>  <r_i_glide_ligand_efficiency>  (201) 
-0.0780097

>  <r_i_glide_ligand_efficiency_sa>  (201) 
-0.247665

>  <r_i_glide_ligand_efficiency_ln>  (201) 
-0.558992

>  <r_i_glide_gscore>  (201) 
-2.49631

>  <r_i_glide_lipo>  (201) 
-0.423588

>  <r_i_glide_hbond>  (201) 
-0.32

>  <r_i_glide_metal>  (201) 
-0

>  <r_i_glide_rewards>  (201) 
-0.659916

>  <r_i_glide_evdw>  (201) 
-19.5175

>  <r_i_glide_ecoul>  (201) 
-2.04957

>  <r_i_glide_erotb>  (201) 
0.201644

>  <r_i_glide_esite>  (201) 
-0.0111428

>  <r_i_glide_emodel>  (201) 
-22.7668

>  <r_i_glide_energy>  (201) 
-21.567

>  <r_i_glide_einternal>  (201) 
4.34492

>  <r_i_glide_intrahb_reward>  (201) 
-0

>  <i_i_glide_confnum>  (201) 
2

>  <i_i_glide_posenum>  (201) 
27

>  <r_i_glide_eff_state_penalty>  (201) 
0

>  <ligand_id>  (201) 
51

>  <original_smiles>  (201) 
COCOC12C3CCC1C14C(O)CC(=O)C(C)C1C1CC4OC(C4(O)OC(=O)C=C34)C12C

>  <smiles>  (201) 
[H]OC1([H])C([H])([H])C(=O)C([H])(C([H])([H])[H])C2([H])C3([H])C([H])([H])C4([H])OC5([H])C6([O-])OC(=O)C([H])=C6C6([H])C([H])([H])C([H])([H])C([H])(C6(OC([H])([H])OC([H])([H])[H])C53C([H])([H])[H])C142

$$$$
51:1:2
     RDKit          3D

 61 67  0  0  1  0  0  0  0  0999 V2000
    6.7991   -4.7079    0.8625 C   0  0  0  0  0  0  0  0  0  0  0  0
    6.4818   -5.9904    1.4206 O   0  0  0  0  0  0  0  0  0  0  0  0
    5.6949   -5.9970    2.5770 C   0  0  0  0  0  0  0  0  0  0  0  0
    4.3967   -5.5052    2.3333 O   0  0  0  0  0  0  0  0  0  0  0  0
    3.5757   -4.9055    3.3743 C   0  0  1  0  0  0  0  0  0  0  0  0
    3.4311   -5.8961    4.5905 C   0  0  1  0  0  0  0  0  0  0  0  0
    4.1371   -5.2230    5.7589 C   0  0  0  0  0  0  0  0  0  0  0  0
    4.1835   -3.7247    5.4662 C   0  0  0  0  0  0  0  0  0  0  0  0
    4.2203   -3.5929    3.9440 C   0  0  2  0  0  0  0  0  0  0  0  0
    3.7492   -2.2559    3.2695 C   0  0  1  0  0  0  0  0  0  0  0  0
    4.6588   -1.0160    3.5033 C   0  0  1  0  0  0  0  0  0  0  0  0
    5.0176   -0.8497    4.8501 O   0  0  0  0  0  0  0  0  0  0  0  0
    5.9402   -1.0163    2.6684 C   0  0  0  0  0  0  0  0  0  0  0  0
    5.6032   -1.0562    1.1778 C   0  0  0  0  0  0  0  0  0  0  0  0
    6.4506   -0.7785    0.3344 O   0  0  0  0  0  0  0  0  0  0  0  0
    4.1925   -1.4923    0.7749 C   0  0  1  0  0  0  0  0  0  0  0  0
    4.1559   -1.8830   -0.7128 C   0  0  0  0  0  0  0  0  0  0  0  0
    3.7988   -2.6565    1.7540 C   0  0  2  0  0  0  0  0  0  0  0  0
    2.3887   -3.2756    1.6384 C   0  0  2  0  0  0  0  0  0  0  0  0
    1.6092   -2.0569    2.1170 C   0  0  0  0  0  0  0  0  0  0  0  0
    2.2476   -1.8874    3.4910 C   0  0  1  0  0  0  0  0  0  0  0  0
    1.5698   -2.8157    4.3422 O   0  0  0  0  0  0  0  0  0  0  0  0
    1.2092   -4.1048    3.7587 C   0  0  2  0  0  0  0  0  0  0  0  0
    0.9753   -5.1303    4.8946 C   0  0  1  0  0  0  0  0  0  0  0  0
    0.9538   -4.5361    6.0889 O   0  0  0  0  0  0  0  0  0  0  0  0
   -0.2152   -5.8543    4.6898 O   0  0  0  0  0  0  0  0  0  0  0  0
   -0.0165   -7.1841    4.8400 C   0  0  0  0  0  0  0  0  0  0  0  0
   -0.9184   -8.0294    4.8412 O   0  0  0  0  0  0  0  0  0  0  0  0
    1.4162   -7.4134    4.9443 C   0  0  0  0  0  0  0  0  0  0  0  0
    2.0003   -6.2234    4.9107 C   0  0  0  0  0  0  0  0  0  0  0  0
    2.2174   -4.5142    2.6368 C   0  0  2  0  0  0  0  0  0  0  0  0
    1.6823   -5.7022    1.8138 C   0  0  0  0  0  0  0  0  0  0  0  0
    7.5835   -4.8188    0.0873 H   0  0  0  0  0  0  0  0  0  0  0  0
    7.2268   -4.0452    1.6241 H   0  0  0  0  0  0  0  0  0  0  0  0
    5.9218   -4.2345    0.4125 H   0  0  0  0  0  0  0  0  0  0  0  0
    5.6146   -7.0297    2.9264 H   0  0  0  0  0  0  0  0  0  0  0  0
    6.2439   -5.4785    3.3569 H   0  0  0  0  0  0  0  0  0  0  0  0
    3.8776   -6.8769    4.3975 H   0  0  0  0  0  0  0  0  0  0  0  0
    3.6594   -5.4105    6.7196 H   0  0  0  0  0  0  0  0  0  0  0  0
    5.1568   -5.5952    5.7997 H   0  0  0  0  0  0  0  0  0  0  0  0
    3.3072   -3.2358    5.8977 H   0  0  0  0  0  0  0  0  0  0  0  0
    5.0658   -3.2603    5.9276 H   0  0  0  0  0  0  0  0  0  0  0  0
    5.2742   -3.6015    3.7061 H   0  0  0  0  0  0  0  0  0  0  0  0
    4.1046   -0.1185    3.2102 H   0  0  0  0  0  0  0  0  0  0  0  0
    4.2221   -0.8137    5.3624 H   0  0  0  0  0  0  0  0  0  0  0  0
    6.5431   -0.1359    2.8910 H   0  0  0  0  0  0  0  0  0  0  0  0
    6.5598   -1.8718    2.8788 H   0  0  0  0  0  0  0  0  0  0  0  0
    3.5947   -0.5922    0.8868 H   0  0  0  0  0  0  0  0  0  0  0  0
    4.4237   -1.0324   -1.3292 H   0  0  0  0  0  0  0  0  0  0  0  0
    3.1635   -2.1892   -1.0308 H   0  0  0  0  0  0  0  0  0  0  0  0
    4.8607   -2.6775   -0.9749 H   0  0  0  0  0  0  0  0  0  0  0  0
    4.5624   -3.4268    1.5554 H   0  0  0  0  0  0  0  0  0  0  0  0
    2.1921   -3.5405    0.6044 H   0  0  0  0  0  0  0  0  0  0  0  0
    1.7524   -1.1917    1.4831 H   0  0  0  0  0  0  0  0  0  0  0  0
    0.5435   -2.1850    2.2089 H   0  0  0  0  0  0  0  0  0  0  0  0
    2.1051   -0.8823    3.8711 H   0  0  0  0  0  0  0  0  0  0  0  0
    0.2278   -3.9479    3.3131 H   0  0  0  0  0  0  0  0  0  0  0  0
    1.8912   -8.3685    4.7994 H   0  0  0  0  0  0  0  0  0  0  0  0
    0.6636   -5.5311    1.4820 H   0  0  0  0  0  0  0  0  0  0  0  0
    1.6584   -6.6412    2.3597 H   0  0  0  0  0  0  0  0  0  0  0  0
    2.2964   -5.8569    0.9234 H   0  0  0  0  0  0  0  0  0  0  0  0
  1  2  1  0
  1 33  1  0
  1 34  1  0
  1 35  1  0
  2  3  1  0
  3  4  1  0
  3 36  1  0
  3 37  1  0
  5  4  1  6
  5  9  1  0
  5 31  1  0
  5  6  1  0
  6 30  1  0
  6  7  1  0
  6 38  1  6
  7  8  1  0
  7 39  1  0
  7 40  1  0
  8  9  1  0
  8 41  1  0
  8 42  1  0
  9 10  1  0
  9 43  1  6
 10 18  1  0
 10 21  1  0
 10 11  1  6
 11 12  1  0
 11 13  1  0
 11 44  1  6
 12 45  1  0
 13 14  1  0
 13 46  1  0
 13 47  1  0
 14 15  2  0
 14 16  1  0
 16 17  1  0
 16 18  1  0
 16 48  1  6
 17 49  1  0
 17 50  1  0
 17 51  1  0
 18 19  1  0
 18 52  1  1
 19 31  1  0
 19 20  1  0
 19 53  1  6
 20 21  1  0
 20 54  1  0
 20 55  1  0
 21 22  1  0
 21 56  1  1
 22 23  1  0
 23 24  1  0
 23 31  1  0
 23 57  1  6
 24 30  1  0
 24 25  1  1
 24 26  1  0
 26 27  1  0
 27 28  2  0
 27 29  1  0
 29 30  2  0
 29 58  1  0
 31 32  1  6
 32 59  1  0
 32 60  1  0
 32 61  1  0
M  CHG  1  25  -1
M  END
>  <i_m_ct_stereo_status>  (202) 
1

>  <s_m_source_file>  (202) 
/var/tmp/pbs.5076255.sched01/tmpyrjfudeo/454urwji6r.sdf

>  <i_m_source_file_index>  (202) 
41

>  <i_lp_mmshare_version>  (202) 
48012

>  <i_f3d_flags>  (202) 
0

>  <s_epik_input>  (202) 
W0NIM11PW0NIMl1PW0NAXTEoW0NASF0yW0NAQF0zNDUpW0NAQEhdKFtDSDJdW0NIMl0yKUM2W0NAXShbT0hdKShPQyg9TylbQ0hdPTYpW0NIXTdbQ0BAXTEoW0NIM10pW0NAQEhdKFtDSDJdW0NASF01TzcpW0NASF00W0NASF0oW0NIM10pQyg9TylbQ0gyXVtDQEBIXTNbT0hd

>  <s_epik_cmdline>  (202) 
J2VwaWtfcHl0aG9uJywgJy1waHQnLCAnMi4wJywgJy1waCcsICc3LjAnLCAnLXRuJywgJzgnLCAnLW1hJywgJzIwMCcsICctaW1hZScsICc8aW5maWxlLm1hZT4nLCAnLW9tYWUnLCAnPG91dGZpbGUubWFlPic=

>  <r_lp_tautomer_probability>  (202) 
1

>  <r_epik_Ionization_Penalty>  (202) 
1.29206

>  <r_epik_Ionization_Penalty_Charging>  (202) 
1.29206

>  <r_epik_Ionization_Penalty_Neutral>  (202) 
6.16201e-08

>  <r_epik_State_Penalty>  (202) 
1.36527

>  <r_epik_Charging_Adjusted_Penalty>  (202) 
2.65733

>  <i_epik_Tot_Q>  (202) 
-1

>  <i_epik_Tot_abs_Q>  (202) 
1

>  <s_epik_Chemistry_Notes>  (202) 
This compound has an ester and may undergo hydrolysis at high or low pH. This compound contains an acetal/aminal-like group ( X-CH(R)-Y where X, Y are N, S, or O) that may be acid/base labile, releasing an aldehyde.

>  <s_lp_Force_Field>  (202) 
OPLS3e

>  <r_lp_Energy>  (202) 
90.6564

>  <b_lp_Chiralities_Consistent>  (202) 
1

>  <s_lp_Variant>  (202) 
51:0-2

>  <s_i_glide_gridfile>  (202) 
pfpi4k_grid

>  <i_i_glide_lignum>  (202) 
41

>  <i_i_glide_rotatable_bonds>  (202) 
4

>  <r_i_docking_score>  (202) 
-1.70706

>  <r_i_glide_ligand_efficiency>  (202) 
-0.0533455

>  <r_i_glide_ligand_efficiency_sa>  (202) 
-0.169361

>  <r_i_glide_ligand_efficiency_ln>  (202) 
-0.382256

>  <r_i_glide_gscore>  (202) 
-1.70706

>  <r_i_glide_lipo>  (202) 
-0.264597

>  <r_i_glide_hbond>  (202) 
-0.00480245

>  <r_i_glide_metal>  (202) 
-0

>  <r_i_glide_rewards>  (202) 
-0.558604

>  <r_i_glide_evdw>  (202) 
-18.1474

>  <r_i_glide_ecoul>  (202) 
-0.971196

>  <r_i_glide_erotb>  (202) 
0.201644

>  <r_i_glide_esite>  (202) 
-0.0276479

>  <r_i_glide_emodel>  (202) 
-19.4003

>  <r_i_glide_energy>  (202) 
-19.1186

>  <r_i_glide_einternal>  (202) 
3.27358

>  <r_i_glide_intrahb_reward>  (202) 
-0

>  <i_i_glide_confnum>  (202) 
3

>  <i_i_glide_posenum>  (202) 
2

>  <r_i_glide_eff_state_penalty>  (202) 
0

>  <ligand_id>  (202) 
51

>  <original_smiles>  (202) 
COCOC12C3CCC1C14C(O)CC(=O)C(C)C1C1CC4OC(C4(O)OC(=O)C=C34)C12C

>  <smiles>  (202) 
[H]OC1([H])C([H])([H])C(=O)C([H])(C([H])([H])[H])C2([H])C3([H])C([H])([H])C4([H])OC5([H])C6([O-])OC(=O)C([H])=C6C6([H])C([H])([H])C([H])([H])C([H])(C6(OC([H])([H])OC([H])([H])[H])C53C([H])([H])[H])C142

$$$$
52:0:0
     RDKit          3D

 45 49  0  0  1  0  0  0  0  0999 V2000
    1.9424    3.3516    3.3387 C   0  0  0  0  0  0  0  0  0  0  0  0
    1.6039    1.9033    3.4608 C   0  0  0  0  0  0  0  0  0  0  0  0
    1.9540    1.1504    4.4103 N   0  0  0  0  0  0  0  0  0  0  0  0
    1.3224   -0.1463    4.1575 C   0  0  1  0  0  0  0  0  0  0  0  0
    0.6617   -0.0399    2.8539 N   0  0  0  0  0  0  0  0  0  0  0  0
    0.7840    1.1904    2.4789 C   0  0  0  0  0  0  0  0  0  0  0  0
    0.2455    1.7383    1.3398 N   0  0  0  0  0  0  0  0  0  0  0  0
    2.4250   -1.2040    4.1146 C   0  0  0  0  0  0  0  0  0  0  0  0
    3.3288   -1.2430    3.0416 C   0  0  0  0  0  0  0  0  0  0  0  0
    4.3622   -2.2030    3.0216 C   0  0  0  0  0  0  0  0  0  0  0  0
    5.3635   -2.2608    1.9238 C   0  0  0  0  0  0  0  0  0  0  0  0
    5.6010   -1.1665    1.0521 C   0  0  0  0  0  0  0  0  0  0  0  0
    6.5133   -1.1819    0.0600 N   0  0  0  0  0  0  0  0  0  0  0  0
    7.2535   -2.2929   -0.1162 C   0  0  0  0  0  0  0  0  0  0  0  0
    7.1196   -3.4344    0.6928 C   0  0  0  0  0  0  0  0  0  0  0  0
    8.1454   -4.8051    0.4769 Cl  0  0  0  0  0  0  0  0  0  0  0  0
    6.1497   -3.4185    1.7037 C   0  0  0  0  0  0  0  0  0  0  0  0
    4.3870   -3.1087    4.1169 C   0  0  0  0  0  0  0  0  0  0  0  0
    3.5102   -3.1142    5.1355 N   0  0  0  0  0  0  0  0  0  0  0  0
    2.5598   -2.1645    5.1430 C   0  0  0  0  0  0  0  0  0  0  0  0
    1.7455   -2.2174    6.2429 O   0  0  0  0  0  0  0  0  0  0  0  0
    1.0434   -1.0254    6.5229 C   0  0  0  0  0  0  0  0  0  0  0  0
    0.2719   -0.5095    5.2841 C   0  0  2  0  0  0  0  0  0  0  0  0
   -0.8192   -1.5407    4.8723 C   0  0  0  0  0  0  0  0  0  0  0  0
   -2.1265   -0.8725    5.1500 C   0  0  0  0  0  0  0  0  0  0  0  0
   -1.8227    0.0701    6.1512 O   0  0  0  0  0  0  0  0  0  0  0  0
   -0.6143    0.6856    5.7397 C   0  0  0  0  0  0  0  0  0  0  0  0
    1.4764    3.8254    2.4743 H   0  0  0  0  0  0  0  0  0  0  0  0
    3.0251    3.4655    3.2662 H   0  0  0  0  0  0  0  0  0  0  0  0
    1.5961    3.8874    4.2269 H   0  0  0  0  0  0  0  0  0  0  0  0
    0.2330    2.7413    1.1109 H   0  0  0  0  0  0  0  0  0  0  0  0
   -0.2913    1.2177    0.6273 H   0  0  0  0  0  0  0  0  0  0  0  0
    3.2005   -0.5128    2.2583 H   0  0  0  0  0  0  0  0  0  0  0  0
    5.0712   -0.2297    1.1370 H   0  0  0  0  0  0  0  0  0  0  0  0
    7.9784   -2.2580   -0.9147 H   0  0  0  0  0  0  0  0  0  0  0  0
    6.0598   -4.2995    2.3221 H   0  0  0  0  0  0  0  0  0  0  0  0
    5.1396   -3.8739    4.2297 H   0  0  0  0  0  0  0  0  0  0  0  0
    0.3559   -1.2354    7.3391 H   0  0  0  0  0  0  0  0  0  0  0  0
    1.7501   -0.2794    6.8794 H   0  0  0  0  0  0  0  0  0  0  0  0
   -0.7617   -1.8914    3.8384 H   0  0  0  0  0  0  0  0  0  0  0  0
   -0.7169   -2.4411    5.4759 H   0  0  0  0  0  0  0  0  0  0  0  0
   -2.4542   -0.3667    4.2562 H   0  0  0  0  0  0  0  0  0  0  0  0
   -2.8723   -1.5851    5.4633 H   0  0  0  0  0  0  0  0  0  0  0  0
   -0.1512    1.2564    6.5550 H   0  0  0  0  0  0  0  0  0  0  0  0
   -0.8359    1.3899    4.9358 H   0  0  0  0  0  0  0  0  0  0  0  0
  1 28  1  0
  1 29  1  0
  1 30  1  0
  1  2  1  0
  2  6  1  0
  2  3  2  0
  4  3  1  1
  4 23  1  0
  4  8  1  0
  4  5  1  0
  5  6  2  0
  6  7  1  0
  7 32  1  0
  7 31  1  0
  8 20  1  0
  8  9  2  0
  9 10  1  0
  9 33  1  0
 10 11  1  0
 10 18  2  0
 11 17  1  0
 11 12  2  0
 12 13  1  0
 12 34  1  0
 13 14  2  0
 14 15  1  0
 14 35  1  0
 15 16  1  0
 15 17  2  0
 17 36  1  0
 18 19  1  0
 18 37  1  0
 19 20  2  0
 20 21  1  0
 21 22  1  0
 23 22  1  1
 22 38  1  0
 22 39  1  0
 23 27  1  0
 23 24  1  0
 24 25  1  0
 24 40  1  0
 24 41  1  0
 25 26  1  0
 25 42  1  0
 25 43  1  0
 26 27  1  0
 27 44  1  0
 27 45  1  0
M  END
>  <i_m_ct_stereo_status>  (203) 
1

>  <s_m_source_file>  (203) 
/var/tmp/pbs.5076255.sched01/tmpyrjfudeo/454urwji6r.sdf

>  <i_m_source_file_index>  (203) 
42

>  <i_lp_mmshare_version>  (203) 
48012

>  <i_f3d_flags>  (203) 
0

>  <s_epik_input>  (203) 
W0hdXE49QyhbTkhdMSlcQyhbQ0gzXSk9TltDQEBdMTJbQ0BAXTMoW0NIMl1bQ0gyXU9bQ0gyXTMpW0NIMl1PYzRjMltjSF1jKFtjSF1uNCktYzVbY0hdbltjSF1jKENsKVtjSF01

>  <s_epik_cmdline>  (203) 
J2VwaWtfcHl0aG9uJywgJy1waHQnLCAnMi4wJywgJy1waCcsICc3LjAnLCAnLXRuJywgJzgnLCAnLW1hJywgJzIwMCcsICctaW1hZScsICc8aW5maWxlLm1hZT4nLCAnLW9tYWUnLCAnPG91dGZpbGUubWFlPic=

>  <r_lp_tautomer_probability>  (203) 
1

>  <r_epik_Ionization_Penalty>  (203) 
8.2214e-05

>  <r_epik_Ionization_Penalty_Charging>  (203) 
0

>  <r_epik_Ionization_Penalty_Neutral>  (203) 
8.2214e-05

>  <r_epik_State_Penalty>  (203) 
-0

>  <r_epik_Charging_Adjusted_Penalty>  (203) 
0

>  <i_epik_Tot_Q>  (203) 
0

>  <i_epik_Tot_abs_Q>  (203) 
0

>  <s_epik_Chemistry_Notes>  (203) 
This compound has an imine and may undergo hydrolysis.

>  <s_lp_Force_Field>  (203) 
OPLS3e

>  <r_lp_Energy>  (203) 
22.2862

>  <b_lp_Chiralities_Consistent>  (203) 
1

>  <s_lp_Variant>  (203) 
52:0-1

>  <s_i_glide_gridfile>  (203) 
pfpi4k_grid

>  <i_i_glide_lignum>  (203) 
42

>  <i_i_glide_rotatable_bonds>  (203) 
1

>  <r_i_docking_score>  (203) 
-4.29643

>  <r_i_glide_ligand_efficiency>  (203) 
-0.159127

>  <r_i_glide_ligand_efficiency_sa>  (203) 
-0.477381

>  <r_i_glide_ligand_efficiency_ln>  (203) 
-1.00014

>  <r_i_glide_gscore>  (203) 
-4.29643

>  <r_i_glide_lipo>  (203) 
-0.537008

>  <r_i_glide_hbond>  (203) 
-0.499284

>  <r_i_glide_metal>  (203) 
-0

>  <r_i_glide_rewards>  (203) 
-0.79206

>  <r_i_glide_evdw>  (203) 
-21.3282

>  <r_i_glide_ecoul>  (203) 
-9.23347

>  <r_i_glide_erotb>  (203) 
0.131926

>  <r_i_glide_esite>  (203) 
-0.148579

>  <r_i_glide_emodel>  (203) 
-41.1224

>  <r_i_glide_energy>  (203) 
-30.5616

>  <r_i_glide_einternal>  (203) 
0.679893

>  <r_i_glide_intrahb_reward>  (203) 
-0

>  <i_i_glide_confnum>  (203) 
4

>  <i_i_glide_posenum>  (203) 
9

>  <r_i_glide_eff_state_penalty>  (203) 
0

>  <ligand_id>  (203) 
52

>  <original_smiles>  (203) 
CC1=NC2(NC1=N)c1cc(-c3cncc(Cl)c3)cnc1OCC21CCOC1

>  <smiles>  (203) 
[H]c1nc([H])c(-c2c([H])nc3c(c2[H])C2(N=C(N([H])[H])C(C([H])([H])[H])=N2)C2(C([H])([H])O3)C([H])([H])OC([H])([H])C2([H])[H])c([H])c1Cl

$$$$
52:0:1
     RDKit          3D

 45 49  0  0  1  0  0  0  0  0999 V2000
    2.2982    2.9956    3.1752 C   0  0  0  0  0  0  0  0  0  0  0  0
    1.8679    1.5594    3.2506 C   0  0  0  0  0  0  0  0  0  0  0  0
    2.3769    0.6634    3.9846 N   0  0  0  0  0  0  0  0  0  0  0  0
    1.5676   -0.5443    3.7622 C   0  0  1  0  0  0  0  0  0  0  0  0
    0.6195   -0.2146    2.6959 N   0  0  0  0  0  0  0  0  0  0  0  0
    0.7733    1.0203    2.4478 C   0  0  0  0  0  0  0  0  0  0  0  0
    0.0171    1.7686    1.5633 N   0  0  0  0  0  0  0  0  0  0  0  0
    2.5106   -1.6662    3.3354 C   0  0  0  0  0  0  0  0  0  0  0  0
    3.1356   -1.6335    2.0710 C   0  0  0  0  0  0  0  0  0  0  0  0
    4.0331   -2.6562    1.7239 C   0  0  0  0  0  0  0  0  0  0  0  0
    4.7390   -2.6395    0.4353 C   0  0  0  0  0  0  0  0  0  0  0  0
    6.1251   -2.8946    0.3625 C   0  0  0  0  0  0  0  0  0  0  0  0
    6.8251   -2.8870   -0.7908 N   0  0  0  0  0  0  0  0  0  0  0  0
    6.1493   -2.6596   -1.9306 C   0  0  0  0  0  0  0  0  0  0  0  0
    4.7712   -2.3829   -1.9803 C   0  0  0  0  0  0  0  0  0  0  0  0
    3.9865   -2.0642   -3.4825 Cl  0  0  0  0  0  0  0  0  0  0  0  0
    4.0549   -2.3702   -0.7681 C   0  0  0  0  0  0  0  0  0  0  0  0
    4.2321   -3.6944    2.6595 C   0  0  0  0  0  0  0  0  0  0  0  0
    3.6213   -3.7554    3.8599 N   0  0  0  0  0  0  0  0  0  0  0  0
    2.7975   -2.7487    4.1936 C   0  0  0  0  0  0  0  0  0  0  0  0
    2.2624   -2.8700    5.4528 O   0  0  0  0  0  0  0  0  0  0  0  0
    1.7558   -1.6773    6.0195 C   0  0  0  0  0  0  0  0  0  0  0  0
    0.7709   -0.9585    5.0705 C   0  0  2  0  0  0  0  0  0  0  0  0
   -0.4798   -1.8568    4.8315 C   0  0  0  0  0  0  0  0  0  0  0  0
   -1.6322   -1.1258    5.4813 C   0  0  0  0  0  0  0  0  0  0  0  0
   -1.0116   -0.3298    6.4650 O   0  0  0  0  0  0  0  0  0  0  0  0
    0.1378    0.2311    5.8430 C   0  0  0  0  0  0  0  0  0  0  0  0
    1.6935    3.5829    2.4769 H   0  0  0  0  0  0  0  0  0  0  0  0
    3.3413    3.0323    2.8594 H   0  0  0  0  0  0  0  0  0  0  0  0
    2.2229    3.4350    4.1690 H   0  0  0  0  0  0  0  0  0  0  0  0
    0.1762    2.7436    1.3010 H   0  0  0  0  0  0  0  0  0  0  0  0
   -0.6329    1.3444    0.9142 H   0  0  0  0  0  0  0  0  0  0  0  0
    2.9399   -0.8132    1.3989 H   0  0  0  0  0  0  0  0  0  0  0  0
    6.6995   -3.1046    1.2526 H   0  0  0  0  0  0  0  0  0  0  0  0
    6.7375   -2.6805   -2.8351 H   0  0  0  0  0  0  0  0  0  0  0  0
    2.9936   -2.1634   -0.7567 H   0  0  0  0  0  0  0  0  0  0  0  0
    4.9040   -4.5132    2.4487 H   0  0  0  0  0  0  0  0  0  0  0  0
    1.2628   -1.9335    6.9555 H   0  0  0  0  0  0  0  0  0  0  0  0
    2.5917   -1.0290    6.2734 H   0  0  0  0  0  0  0  0  0  0  0  0
   -0.6982   -2.0757    3.7881 H   0  0  0  0  0  0  0  0  0  0  0  0
   -0.3367   -2.8220    5.3083 H   0  0  0  0  0  0  0  0  0  0  0  0
   -2.1219   -0.5013    4.7468 H   0  0  0  0  0  0  0  0  0  0  0  0
   -2.3428   -1.8173    5.9055 H   0  0  0  0  0  0  0  0  0  0  0  0
    0.8238    0.6622    6.5784 H   0  0  0  0  0  0  0  0  0  0  0  0
   -0.1945    1.0429    5.1924 H   0  0  0  0  0  0  0  0  0  0  0  0
  1 28  1  0
  1 29  1  0
  1 30  1  0
  1  2  1  0
  2  6  1  0
  2  3  2  0
  4  3  1  1
  4 23  1  0
  4  8  1  0
  4  5  1  0
  5  6  2  0
  6  7  1  0
  7 32  1  0
  7 31  1  0
  8 20  1  0
  8  9  2  0
  9 10  1  0
  9 33  1  0
 10 11  1  0
 10 18  2  0
 11 17  1  0
 11 12  2  0
 12 13  1  0
 12 34  1  0
 13 14  2  0
 14 15  1  0
 14 35  1  0
 15 16  1  0
 15 17  2  0
 17 36  1  0
 18 19  1  0
 18 37  1  0
 19 20  2  0
 20 21  1  0
 21 22  1  0
 23 22  1  1
 22 38  1  0
 22 39  1  0
 23 27  1  0
 23 24  1  0
 24 25  1  0
 24 40  1  0
 24 41  1  0
 25 26  1  0
 25 42  1  0
 25 43  1  0
 26 27  1  0
 27 44  1  0
 27 45  1  0
M  END
>  <i_m_ct_stereo_status>  (204) 
1

>  <s_m_source_file>  (204) 
/var/tmp/pbs.5076255.sched01/tmpyrjfudeo/454urwji6r.sdf

>  <i_m_source_file_index>  (204) 
42

>  <i_lp_mmshare_version>  (204) 
48012

>  <i_f3d_flags>  (204) 
0

>  <s_epik_input>  (204) 
W0hdXE49QyhbTkhdMSlcQyhbQ0gzXSk9TltDQEBdMTJbQ0BAXTMoW0NIMl1bQ0gyXU9bQ0gyXTMpW0NIMl1PYzRjMltjSF1jKFtjSF1uNCktYzVbY0hdbltjSF1jKENsKVtjSF01

>  <s_epik_cmdline>  (204) 
J2VwaWtfcHl0aG9uJywgJy1waHQnLCAnMi4wJywgJy1waCcsICc3LjAnLCAnLXRuJywgJzgnLCAnLW1hJywgJzIwMCcsICctaW1hZScsICc8aW5maWxlLm1hZT4nLCAnLW9tYWUnLCAnPG91dGZpbGUubWFlPic=

>  <r_lp_tautomer_probability>  (204) 
1

>  <r_epik_Ionization_Penalty>  (204) 
8.2214e-05

>  <r_epik_Ionization_Penalty_Charging>  (204) 
0

>  <r_epik_Ionization_Penalty_Neutral>  (204) 
8.2214e-05

>  <r_epik_State_Penalty>  (204) 
-0

>  <r_epik_Charging_Adjusted_Penalty>  (204) 
0

>  <i_epik_Tot_Q>  (204) 
0

>  <i_epik_Tot_abs_Q>  (204) 
0

>  <s_epik_Chemistry_Notes>  (204) 
This compound has an imine and may undergo hydrolysis.

>  <s_lp_Force_Field>  (204) 
OPLS3e

>  <r_lp_Energy>  (204) 
22.2862

>  <b_lp_Chiralities_Consistent>  (204) 
1

>  <s_lp_Variant>  (204) 
52:0-1

>  <s_i_glide_gridfile>  (204) 
pfpi4k_grid

>  <i_i_glide_lignum>  (204) 
42

>  <i_i_glide_rotatable_bonds>  (204) 
1

>  <r_i_docking_score>  (204) 
-4.05745

>  <r_i_glide_ligand_efficiency>  (204) 
-0.150276

>  <r_i_glide_ligand_efficiency_sa>  (204) 
-0.450828

>  <r_i_glide_ligand_efficiency_ln>  (204) 
-0.944508

>  <r_i_glide_gscore>  (204) 
-4.05745

>  <r_i_glide_lipo>  (204) 
-0.287953

>  <r_i_glide_hbond>  (204) 
-0.389553

>  <r_i_glide_metal>  (204) 
-0

>  <r_i_glide_rewards>  (204) 
-0.79206

>  <r_i_glide_evdw>  (204) 
-26.1223

>  <r_i_glide_ecoul>  (204) 
-8.50366

>  <r_i_glide_erotb>  (204) 
0.131926

>  <r_i_glide_esite>  (204) 
-0.138149

>  <r_i_glide_emodel>  (204) 
-44.6535

>  <r_i_glide_energy>  (204) 
-34.6259

>  <r_i_glide_einternal>  (204) 
0.381024

>  <r_i_glide_intrahb_reward>  (204) 
-0

>  <i_i_glide_confnum>  (204) 
4

>  <i_i_glide_posenum>  (204) 
35

>  <r_i_glide_eff_state_penalty>  (204) 
0

>  <ligand_id>  (204) 
52

>  <original_smiles>  (204) 
CC1=NC2(NC1=N)c1cc(-c3cncc(Cl)c3)cnc1OCC21CCOC1

>  <smiles>  (204) 
[H]c1nc([H])c(-c2c([H])nc3c(c2[H])C2(N=C(N([H])[H])C(C([H])([H])[H])=N2)C2(C([H])([H])O3)C([H])([H])OC([H])([H])C2([H])[H])c([H])c1Cl

$$$$
52:0:2
     RDKit          3D

 45 49  0  0  1  0  0  0  0  0999 V2000
    2.9489  -11.7299    3.3265 C   0  0  0  0  0  0  0  0  0  0  0  0
    2.5825  -10.2801    3.4543 C   0  0  0  0  0  0  0  0  0  0  0  0
    2.1829   -9.5354    2.5217 N   0  0  0  0  0  0  0  0  0  0  0  0
    1.8661   -8.2461    3.1359 C   0  0  1  0  0  0  0  0  0  0  0  0
    2.2731   -8.3504    4.5451 N   0  0  0  0  0  0  0  0  0  0  0  0
    2.6479   -9.5699    4.7322 C   0  0  0  0  0  0  0  0  0  0  0  0
    3.0552  -10.1396    5.9220 N   0  0  0  0  0  0  0  0  0  0  0  0
    2.6804   -7.1796    2.4051 C   0  0  0  0  0  0  0  0  0  0  0  0
    4.0780   -7.1183    2.5581 C   0  0  0  0  0  0  0  0  0  0  0  0
    4.8122   -6.1386    1.8645 C   0  0  0  0  0  0  0  0  0  0  0  0
    6.2804   -6.0548    1.9818 C   0  0  0  0  0  0  0  0  0  0  0  0
    7.0725   -5.5010    0.9486 C   0  0  0  0  0  0  0  0  0  0  0  0
    8.4149   -5.3902    1.0019 N   0  0  0  0  0  0  0  0  0  0  0  0
    9.0272   -5.8545    2.1073 C   0  0  0  0  0  0  0  0  0  0  0  0
    8.3528   -6.4263    3.1973 C   0  0  0  0  0  0  0  0  0  0  0  0
    9.2133   -6.9896    4.5810 Cl  0  0  0  0  0  0  0  0  0  0  0  0
    6.9550   -6.5257    3.1307 C   0  0  0  0  0  0  0  0  0  0  0  0
    4.0754   -5.2440    1.0531 C   0  0  0  0  0  0  0  0  0  0  0  0
    2.7406   -5.2816    0.8948 N   0  0  0  0  0  0  0  0  0  0  0  0
    2.0701   -6.2466    1.5392 C   0  0  0  0  0  0  0  0  0  0  0  0
    0.7274   -6.2419    1.2703 O   0  0  0  0  0  0  0  0  0  0  0  0
    0.0670   -7.4453    1.5666 C   0  0  0  0  0  0  0  0  0  0  0  0
    0.3229   -7.9397    3.0063 C   0  0  2  0  0  0  0  0  0  0  0  0
   -0.2512   -6.9367    4.0174 C   0  0  0  0  0  0  0  0  0  0  0  0
   -1.7263   -7.2225    3.9903 C   0  0  0  0  0  0  0  0  0  0  0  0
   -1.8572   -8.5936    3.6759 O   0  0  0  0  0  0  0  0  0  0  0  0
   -0.6097   -9.1390    3.2539 C   0  0  0  0  0  0  0  0  0  0  0  0
    3.2096  -12.1950    4.2792 H   0  0  0  0  0  0  0  0  0  0  0  0
    3.7880  -11.8172    2.6388 H   0  0  0  0  0  0  0  0  0  0  0  0
    2.0994  -12.2554    2.8917 H   0  0  0  0  0  0  0  0  0  0  0  0
    3.2396  -11.1244    6.0742 H   0  0  0  0  0  0  0  0  0  0  0  0
    3.0071   -9.6528    6.8048 H   0  0  0  0  0  0  0  0  0  0  0  0
    4.5547   -7.8475    3.1924 H   0  0  0  0  0  0  0  0  0  0  0  0
    6.6272   -5.1332    0.0370 H   0  0  0  0  0  0  0  0  0  0  0  0
   10.1027   -5.7520    2.1211 H   0  0  0  0  0  0  0  0  0  0  0  0
    6.4206   -6.9503    3.9678 H   0  0  0  0  0  0  0  0  0  0  0  0
    4.5532   -4.4514    0.5019 H   0  0  0  0  0  0  0  0  0  0  0  0
   -0.9848   -7.2851    1.3578 H   0  0  0  0  0  0  0  0  0  0  0  0
    0.4126   -8.1973    0.8701 H   0  0  0  0  0  0  0  0  0  0  0  0
    0.0778   -7.0672    5.0536 H   0  0  0  0  0  0  0  0  0  0  0  0
   -0.0228   -5.9175    3.7227 H   0  0  0  0  0  0  0  0  0  0  0  0
   -2.1859   -6.9611    4.9336 H   0  0  0  0  0  0  0  0  0  0  0  0
   -2.1836   -6.6538    3.1981 H   0  0  0  0  0  0  0  0  0  0  0  0
   -0.7195   -9.7593    2.3572 H   0  0  0  0  0  0  0  0  0  0  0  0
   -0.2445   -9.7885    4.0488 H   0  0  0  0  0  0  0  0  0  0  0  0
  1 28  1  0
  1 29  1  0
  1 30  1  0
  1  2  1  0
  2  6  1  0
  2  3  2  0
  4  3  1  6
  4 23  1  0
  4  8  1  0
  4  5  1  0
  5  6  2  0
  6  7  1  0
  7 32  1  0
  7 31  1  0
  8 20  1  0
  8  9  2  0
  9 10  1  0
  9 33  1  0
 10 11  1  0
 10 18  2  0
 11 17  1  0
 11 12  2  0
 12 13  1  0
 12 34  1  0
 13 14  2  0
 14 15  1  0
 14 35  1  0
 15 16  1  0
 15 17  2  0
 17 36  1  0
 18 19  1  0
 18 37  1  0
 19 20  2  0
 20 21  1  0
 21 22  1  0
 23 22  1  6
 22 38  1  0
 22 39  1  0
 23 27  1  0
 23 24  1  0
 24 25  1  0
 24 40  1  0
 24 41  1  0
 25 26  1  0
 25 42  1  0
 25 43  1  0
 26 27  1  0
 27 44  1  0
 27 45  1  0
M  END
>  <i_m_ct_stereo_status>  (205) 
1

>  <s_m_source_file>  (205) 
/var/tmp/pbs.5076255.sched01/tmpyrjfudeo/454urwji6r.sdf

>  <i_m_source_file_index>  (205) 
42

>  <i_lp_mmshare_version>  (205) 
48012

>  <i_f3d_flags>  (205) 
0

>  <s_epik_input>  (205) 
W0hdXE49QyhbTkhdMSlcQyhbQ0gzXSk9TltDQEBdMTJbQ0BAXTMoW0NIMl1bQ0gyXU9bQ0gyXTMpW0NIMl1PYzRjMltjSF1jKFtjSF1uNCktYzVbY0hdbltjSF1jKENsKVtjSF01

>  <s_epik_cmdline>  (205) 
J2VwaWtfcHl0aG9uJywgJy1waHQnLCAnMi4wJywgJy1waCcsICc3LjAnLCAnLXRuJywgJzgnLCAnLW1hJywgJzIwMCcsICctaW1hZScsICc8aW5maWxlLm1hZT4nLCAnLW9tYWUnLCAnPG91dGZpbGUubWFlPic=

>  <r_lp_tautomer_probability>  (205) 
1

>  <r_epik_Ionization_Penalty>  (205) 
8.2214e-05

>  <r_epik_Ionization_Penalty_Charging>  (205) 
0

>  <r_epik_Ionization_Penalty_Neutral>  (205) 
8.2214e-05

>  <r_epik_State_Penalty>  (205) 
-0

>  <r_epik_Charging_Adjusted_Penalty>  (205) 
0

>  <i_epik_Tot_Q>  (205) 
0

>  <i_epik_Tot_abs_Q>  (205) 
0

>  <s_epik_Chemistry_Notes>  (205) 
This compound has an imine and may undergo hydrolysis.

>  <s_lp_Force_Field>  (205) 
OPLS3e

>  <r_lp_Energy>  (205) 
22.2862

>  <b_lp_Chiralities_Consistent>  (205) 
1

>  <s_lp_Variant>  (205) 
52:0-1

>  <s_i_glide_gridfile>  (205) 
pfpi4k_grid

>  <i_i_glide_lignum>  (205) 
42

>  <i_i_glide_rotatable_bonds>  (205) 
1

>  <r_i_docking_score>  (205) 
-3.09299

>  <r_i_glide_ligand_efficiency>  (205) 
-0.114555

>  <r_i_glide_ligand_efficiency_sa>  (205) 
-0.343665

>  <r_i_glide_ligand_efficiency_ln>  (205) 
-0.719997

>  <r_i_glide_gscore>  (205) 
-3.09299

>  <r_i_glide_lipo>  (205) 
-0.214789

>  <r_i_glide_hbond>  (205) 
-0.16

>  <r_i_glide_metal>  (205) 
-0

>  <r_i_glide_rewards>  (205) 
-0.79206

>  <r_i_glide_evdw>  (205) 
-27.9805

>  <r_i_glide_ecoul>  (205) 
-3.85229

>  <r_i_glide_erotb>  (205) 
0.131926

>  <r_i_glide_esite>  (205) 
-0.0811988

>  <r_i_glide_emodel>  (205) 
-39.5388

>  <r_i_glide_energy>  (205) 
-31.8328

>  <r_i_glide_einternal>  (205) 
0.0871281

>  <r_i_glide_intrahb_reward>  (205) 
-0

>  <i_i_glide_confnum>  (205) 
6

>  <i_i_glide_posenum>  (205) 
19

>  <r_i_glide_eff_state_penalty>  (205) 
0

>  <ligand_id>  (205) 
52

>  <original_smiles>  (205) 
CC1=NC2(NC1=N)c1cc(-c3cncc(Cl)c3)cnc1OCC21CCOC1

>  <smiles>  (205) 
[H]c1nc([H])c(-c2c([H])nc3c(c2[H])C2(N=C(N([H])[H])C(C([H])([H])[H])=N2)C2(C([H])([H])O3)C([H])([H])OC([H])([H])C2([H])[H])c([H])c1Cl

$$$$
54:0:0
     RDKit          3D

 74 79  0  0  1  0  0  0  0  0999 V2000
    3.7527    1.7513    5.2037 C   0  0  0  0  0  0  0  0  0  0  0  0
    2.4887    1.1466    4.5567 C   0  0  2  0  0  0  0  0  0  0  0  0
    2.1397    2.0575    3.3819 C   0  0  0  0  0  0  0  0  0  0  0  0
    1.1667    2.9776    3.3620 C   0  0  0  0  0  0  0  0  0  0  0  0
    0.3226    3.2297    4.5410 C   0  0  0  0  0  0  0  0  0  0  0  0
   -0.5815    4.0582    4.5537 O   0  0  0  0  0  0  0  0  0  0  0  0
    0.6351    2.4865    5.8416 C   0  0  0  0  0  0  0  0  0  0  0  0
    1.3887    1.1793    5.6273 C   0  0  0  0  0  0  0  0  0  0  0  0
    1.1098    0.0979    6.3766 C   0  0  0  0  0  0  0  0  0  0  0  0
    1.8508   -1.2240    6.3125 C   0  0  0  0  0  0  0  0  0  0  0  0
    2.9848   -1.2846    5.2576 C   0  0  2  0  0  0  0  0  0  0  0  0
    2.7531   -0.3206    4.0636 C   0  0  1  0  0  0  0  0  0  0  0  0
    1.6829   -0.8730    3.0611 C   0  0  1  0  0  0  0  0  0  0  0  0
    2.1648   -0.7421    1.7282 O   0  0  0  0  0  0  0  0  0  0  0  0
    1.2406   -2.3350    3.3355 C   0  0  0  0  0  0  0  0  0  0  0  0
    2.3748   -3.3434    3.7103 C   0  0  1  0  0  0  0  0  0  0  0  0
    3.2021   -3.6545    2.4234 C   0  0  0  0  0  0  0  0  0  0  0  0
    3.3511   -2.7101    4.7547 C   0  0  2  0  0  0  0  0  0  0  0  0
    3.6181   -3.7628    5.8431 C   0  0  0  0  0  0  0  0  0  0  0  0
    3.0786   -5.0786    5.2838 C   0  0  0  0  0  0  0  0  0  0  0  0
    1.8838   -4.6873    4.3983 C   0  0  1  0  0  0  0  0  0  0  0  0
    0.8196   -4.4141    5.2935 O   0  0  0  0  0  0  0  0  0  0  0  0
    1.4239   -5.8440    3.4697 C   0  0  0  0  0  0  0  0  0  0  0  0
    0.8852   -5.6318    2.3891 O   0  0  0  0  0  0  0  0  0  0  0  0
    1.5044   -7.2844    4.0276 C   0  0  0  0  0  0  0  0  0  0  0  0
    0.8600   -7.5974    5.0191 O   0  0  0  0  0  0  0  0  0  0  0  0
    2.3279   -8.1408    3.3431 N   0  0  0  0  0  0  0  0  0  0  0  0
    3.1613   -7.7971    2.1886 C   0  0  0  0  0  0  0  0  0  0  0  0
    3.6551   -9.1068    1.5935 C   0  0  0  0  0  0  0  0  0  0  0  0
    3.6380  -10.0655    2.7560 C   0  0  0  0  0  0  0  0  0  0  0  0
    2.4900   -9.5807    3.6656 C   0  0  2  0  0  0  0  0  0  0  0  0
    1.1703  -10.3735    3.4579 C   0  0  0  0  0  0  0  0  0  0  0  0
    0.9128  -11.0880    4.7585 C   0  0  0  0  0  0  0  0  0  0  0  0
    1.6098  -10.2972    5.7728 N   0  0  0  0  0  0  0  0  0  0  0  0
    2.8607   -9.8505    5.1457 C   0  0  0  0  0  0  0  0  0  0  0  0
    3.5943    2.8018    5.4638 H   0  0  0  0  0  0  0  0  0  0  0  0
    4.6072    1.7123    4.5261 H   0  0  0  0  0  0  0  0  0  0  0  0
    4.0272    1.2426    6.1304 H   0  0  0  0  0  0  0  0  0  0  0  0
    2.7515    1.9285    2.5000 H   0  0  0  0  0  0  0  0  0  0  0  0
    1.0093    3.6026    2.5024 H   0  0  0  0  0  0  0  0  0  0  0  0
    1.2326    3.1442    6.4743 H   0  0  0  0  0  0  0  0  0  0  0  0
   -0.3083    2.2954    6.3614 H   0  0  0  0  0  0  0  0  0  0  0  0
    0.3397    0.1567    7.1327 H   0  0  0  0  0  0  0  0  0  0  0  0
    2.2772   -1.4007    7.2998 H   0  0  0  0  0  0  0  0  0  0  0  0
    1.1166   -2.0094    6.1706 H   0  0  0  0  0  0  0  0  0  0  0  0
    3.8764   -0.9387    5.7770 H   0  0  0  0  0  0  0  0  0  0  0  0
    3.7010   -0.3019    3.5214 H   0  0  0  0  0  0  0  0  0  0  0  0
    0.7818   -0.2650    3.1259 H   0  0  0  0  0  0  0  0  0  0  0  0
    1.4619   -0.8205    1.0892 H   0  0  0  0  0  0  0  0  0  0  0  0
    0.5042   -2.2913    4.1355 H   0  0  0  0  0  0  0  0  0  0  0  0
    0.6737   -2.7082    2.4953 H   0  0  0  0  0  0  0  0  0  0  0  0
    3.9386   -4.4423    2.5915 H   0  0  0  0  0  0  0  0  0  0  0  0
    3.7470   -2.7795    2.0665 H   0  0  0  0  0  0  0  0  0  0  0  0
    2.5768   -3.9608    1.5847 H   0  0  0  0  0  0  0  0  0  0  0  0
    4.3092   -2.5861    4.2522 H   0  0  0  0  0  0  0  0  0  0  0  0
    4.6783   -3.8458    6.0868 H   0  0  0  0  0  0  0  0  0  0  0  0
    3.0879   -3.5287    6.7646 H   0  0  0  0  0  0  0  0  0  0  0  0
    3.8495   -5.5607    4.6782 H   0  0  0  0  0  0  0  0  0  0  0  0
    2.8176   -5.7662    6.0926 H   0  0  0  0  0  0  0  0  0  0  0  0
    0.6584   -5.1914    5.8054 H   0  0  0  0  0  0  0  0  0  0  0  0
    2.6370   -7.2518    1.4044 H   0  0  0  0  0  0  0  0  0  0  0  0
    3.9953   -7.1889    2.5431 H   0  0  0  0  0  0  0  0  0  0  0  0
    2.9585   -9.4571    0.8329 H   0  0  0  0  0  0  0  0  0  0  0  0
    4.6434   -9.0196    1.1479 H   0  0  0  0  0  0  0  0  0  0  0  0
    3.5350  -11.1090    2.4512 H   0  0  0  0  0  0  0  0  0  0  0  0
    4.5995   -9.9799    3.2654 H   0  0  0  0  0  0  0  0  0  0  0  0
    0.3355   -9.7149    3.2325 H   0  0  0  0  0  0  0  0  0  0  0  0
    1.2327  -11.0840    2.6406 H   0  0  0  0  0  0  0  0  0  0  0  0
   -0.1405  -11.1977    4.9831 H   0  0  0  0  0  0  0  0  0  0  0  0
    1.3651  -12.0718    4.7203 H   0  0  0  0  0  0  0  0  0  0  0  0
    1.0706   -9.4598    5.9617 H   0  0  0  0  0  0  0  0  0  0  0  0
    3.5191  -10.7206    5.2128 H   0  0  0  0  0  0  0  0  0  0  0  0
    3.3672   -9.0136    5.6505 H   0  0  0  0  0  0  0  0  0  0  0  0
    1.7550  -10.8771    6.6042 H   0  0  0  0  0  0  0  0  0  0  0  0
  2  1  1  1
  1 36  1  0
  1 37  1  0
  1 38  1  0
  2  8  1  0
  2 12  1  0
  2  3  1  0
  3  4  2  0
  3 39  1  0
  4  5  1  0
  4 40  1  0
  5  6  2  0
  5  7  1  0
  7  8  1  0
  7 41  1  0
  7 42  1  0
  8  9  2  0
  9 10  1  0
  9 43  1  0
 10 11  1  0
 10 44  1  0
 10 45  1  0
 11 18  1  0
 11 12  1  0
 11 46  1  1
 12 13  1  0
 12 47  1  6
 13 14  1  0
 13 15  1  0
 13 48  1  6
 14 49  1  0
 15 16  1  0
 15 50  1  0
 15 51  1  0
 16 21  1  0
 16 17  1  6
 16 18  1  0
 17 52  1  0
 17 53  1  0
 17 54  1  0
 18 19  1  0
 18 55  1  6
 19 20  1  0
 19 56  1  0
 19 57  1  0
 20 21  1  0
 20 58  1  0
 20 59  1  0
 21 22  1  1
 21 23  1  0
 22 60  1  0
 23 24  2  0
 23 25  1  0
 25 26  2  0
 25 27  1  0
 31 27  1  1
 27 28  1  0
 28 29  1  0
 28 61  1  0
 28 62  1  0
 29 30  1  0
 29 63  1  0
 29 64  1  0
 30 31  1  0
 30 65  1  0
 30 66  1  0
 31 35  1  0
 31 32  1  0
 32 33  1  0
 32 67  1  0
 32 68  1  0
 33 34  1  0
 33 69  1  0
 33 70  1  0
 34 35  1  0
 34 71  1  0
 34 74  1  0
 35 72  1  0
 35 73  1  0
M  CHG  1  34   1
M  END
>  <i_m_ct_stereo_status>  (206) 
1

>  <s_m_source_file>  (206) 
/var/tmp/pbs.5076255.sched01/tmpyrjfudeo/454urwji6r.sdf

>  <i_m_source_file_index>  (206) 
45

>  <i_lp_mmshare_version>  (206) 
48012

>  <i_f3d_flags>  (206) 
0

>  <s_epik_input>  (206) 
W0NIXTE9W0NIXUMoPU8pW0NIMl1DKFtDQF0xMltDSDNdKT1bQ0hdW0NIMl1bQ0BASF0zW0NASF0yW0NAQEhdKFtPSF0pW0NIMl1bQ0BAXTQoW0NIM10pW0NAQEhdM1tDSDJdW0NIMl1bQ0BdNChbT0hdKUMoPU8pQyg9TylOKFtDSDJdW0NIMl1bQ0gyXTUpW0NAQF01NltDSDJdW0NIMl1bTkhdW0NIMl02

>  <s_epik_cmdline>  (206) 
J2VwaWtfcHl0aG9uJywgJy1waHQnLCAnMi4wJywgJy1waCcsICc3LjAnLCAnLXRuJywgJzgnLCAnLW1hJywgJzIwMCcsICctaW1hZScsICc8aW5maWxlLm1hZT4nLCAnLW9tYWUnLCAnPG91dGZpbGUubWFlPic=

>  <r_epik_Ionization_Penalty>  (206) 
0.000327392

>  <r_epik_Ionization_Penalty_Charging>  (206) 
0.000324448

>  <r_epik_Ionization_Penalty_Neutral>  (206) 
2.94419e-06

>  <r_epik_State_Penalty>  (206) 
0.000196072

>  <r_epik_Charging_Adjusted_Penalty>  (206) 
0.00052052

>  <i_epik_Tot_Q>  (206) 
1

>  <i_epik_Tot_abs_Q>  (206) 
1

>  <s_lp_Force_Field>  (206) 
OPLS3e

>  <r_lp_Energy>  (206) 
82.4734

>  <b_lp_Chiralities_Consistent>  (206) 
1

>  <s_lp_Variant>  (206) 
54:0-1

>  <s_i_glide_gridfile>  (206) 
pfpi4k_grid

>  <i_i_glide_lignum>  (206) 
45

>  <i_i_glide_rotatable_bonds>  (206) 
5

>  <r_i_docking_score>  (206) 
-3.88926

>  <r_i_glide_ligand_efficiency>  (206) 
-0.111122

>  <r_i_glide_ligand_efficiency_sa>  (206) 
-0.363487

>  <r_i_glide_ligand_efficiency_ln>  (206) 
-0.85378

>  <r_i_glide_gscore>  (206) 
-3.88926

>  <r_i_glide_lipo>  (206) 
-0.180438

>  <r_i_glide_hbond>  (206) 
-0.428692

>  <r_i_glide_metal>  (206) 
-0

>  <r_i_glide_rewards>  (206) 
-0.611684

>  <r_i_glide_evdw>  (206) 
-25.0339

>  <r_i_glide_ecoul>  (206) 
-10.2013

>  <r_i_glide_erotb>  (206) 
0.260407

>  <r_i_glide_esite>  (206) 
-0.146976

>  <r_i_glide_emodel>  (206) 
-49.9033

>  <r_i_glide_energy>  (206) 
-35.2351

>  <r_i_glide_einternal>  (206) 
3.85356

>  <r_i_glide_intrahb_reward>  (206) 
-0.5

>  <i_i_glide_confnum>  (206) 
1

>  <i_i_glide_posenum>  (206) 
4

>  <r_i_glide_eff_state_penalty>  (206) 
0

>  <ligand_id>  (206) 
54

>  <original_smiles>  (206) 
CC12C=CC(=O)CC1=CCC1C2C(O)CC2(C)C1CCC2(O)C(=O)C(=O)N1CCCC12CCNC2

>  <smiles>  (206) 
[H]OC1([H])C([H])([H])C2(C([H])([H])[H])C(O[H])(C(=O)C(=O)N3C([H])([H])C([H])([H])C([H])([H])C34C([H])([H])C([H])([H])[N+]([H])([H])C4([H])[H])C([H])([H])C([H])([H])C2([H])C2([H])C([H])([H])C([H])=C3C([H])([H])C(=O)C([H])=C([H])C3(C([H])([H])[H])C12[H]

$$$$
54:0:1
     RDKit          3D

 74 79  0  0  1  0  0  0  0  0999 V2000
    3.0617    1.7548    5.8691 C   0  0  0  0  0  0  0  0  0  0  0  0
    1.9444    1.1412    4.9992 C   0  0  2  0  0  0  0  0  0  0  0  0
    1.7538    2.0884    3.8118 C   0  0  0  0  0  0  0  0  0  0  0  0
    0.7598    2.9734    3.6624 C   0  0  0  0  0  0  0  0  0  0  0  0
   -0.2678    3.1541    4.6990 C   0  0  0  0  0  0  0  0  0  0  0  0
   -1.1886    3.9582    4.5931 O   0  0  0  0  0  0  0  0  0  0  0  0
   -0.1441    2.3708    6.0050 C   0  0  0  0  0  0  0  0  0  0  0  0
    0.6789    1.0954    5.8707 C   0  0  0  0  0  0  0  0  0  0  0  0
    0.3248   -0.0176    6.5279 C   0  0  0  0  0  0  0  0  0  0  0  0
    1.1064   -1.3149    6.5405 C   0  0  0  0  0  0  0  0  0  0  0  0
    2.4008   -1.3009    5.6898 C   0  0  2  0  0  0  0  0  0  0  0  0
    2.3384   -0.2962    4.5093 C   0  0  1  0  0  0  0  0  0  0  0  0
    1.4653   -0.8394    3.3283 C   0  0  1  0  0  0  0  0  0  0  0  0
    2.1451   -0.6341    2.0982 O   0  0  0  0  0  0  0  0  0  0  0  0
    1.0423   -2.3264    3.4601 C   0  0  0  0  0  0  0  0  0  0  0  0
    2.1318   -3.3127    3.9904 C   0  0  1  0  0  0  0  0  0  0  0  0
    3.1719   -3.5496    2.8516 C   0  0  0  0  0  0  0  0  0  0  0  0
    2.8933   -2.6948    5.2038 C   0  0  2  0  0  0  0  0  0  0  0  0
    3.0181   -3.7809    6.2868 C   0  0  0  0  0  0  0  0  0  0  0  0
    2.6263   -5.0875    5.6034 C   0  0  0  0  0  0  0  0  0  0  0  0
    1.5824   -4.6924    4.5471 C   0  0  1  0  0  0  0  0  0  0  0  0
    0.3669   -4.4974    5.2364 O   0  0  0  0  0  0  0  0  0  0  0  0
    1.3071   -5.8194    3.5119 C   0  0  0  0  0  0  0  0  0  0  0  0
    0.8755   -5.5504    2.3984 O   0  0  0  0  0  0  0  0  0  0  0  0
    1.3870   -7.2972    4.0004 C   0  0  0  0  0  0  0  0  0  0  0  0
    0.7092   -7.6682    4.9548 O   0  0  0  0  0  0  0  0  0  0  0  0
    2.2419   -8.1258    3.3240 N   0  0  0  0  0  0  0  0  0  0  0  0
    3.0713   -7.7598    2.1711 C   0  0  0  0  0  0  0  0  0  0  0  0
    3.5988   -9.0569    1.5843 C   0  0  0  0  0  0  0  0  0  0  0  0
    3.6031  -10.0101    2.7523 C   0  0  0  0  0  0  0  0  0  0  0  0
    2.4487   -9.5550    3.6566 C   0  0  2  0  0  0  0  0  0  0  0  0
    1.1605  -10.3861    3.4623 C   0  0  0  0  0  0  0  0  0  0  0  0
    0.9187  -11.1075    4.7572 C   0  0  0  0  0  0  0  0  0  0  0  0
    1.5873  -10.2883    5.7664 N   0  0  0  0  0  0  0  0  0  0  0  0
    2.8174   -9.8063    5.1447 C   0  0  0  0  0  0  0  0  0  0  0  0
    2.8213    2.7856    6.1349 H   0  0  0  0  0  0  0  0  0  0  0  0
    4.0144    1.7654    5.3418 H   0  0  0  0  0  0  0  0  0  0  0  0
    3.1931    1.2143    6.8084 H   0  0  0  0  0  0  0  0  0  0  0  0
    2.5133    2.0027    3.0414 H   0  0  0  0  0  0  0  0  0  0  0  0
    0.7124    3.6243    2.7982 H   0  0  0  0  0  0  0  0  0  0  0  0
    0.3126    3.0223    6.7511 H   0  0  0  0  0  0  0  0  0  0  0  0
   -1.1517    2.1280    6.3496 H   0  0  0  0  0  0  0  0  0  0  0  0
   -0.5678   -0.0170    7.1431 H   0  0  0  0  0  0  0  0  0  0  0  0
    1.3729   -1.5179    7.5759 H   0  0  0  0  0  0  0  0  0  0  0  0
    0.4305   -2.1097    6.2470 H   0  0  0  0  0  0  0  0  0  0  0  0
    3.1831   -0.9518    6.3617 H   0  0  0  0  0  0  0  0  0  0  0  0
    3.3600   -0.2325    4.1304 H   0  0  0  0  0  0  0  0  0  0  0  0
    0.5421   -0.2648    3.2651 H   0  0  0  0  0  0  0  0  0  0  0  0
    1.5426   -0.7196    1.3682 H   0  0  0  0  0  0  0  0  0  0  0  0
    0.1733   -2.3393    4.1137 H   0  0  0  0  0  0  0  0  0  0  0  0
    0.6611   -2.6692    2.5053 H   0  0  0  0  0  0  0  0  0  0  0  0
    3.8971   -4.3206    3.1148 H   0  0  0  0  0  0  0  0  0  0  0  0
    3.7357   -2.6440    2.6220 H   0  0  0  0  0  0  0  0  0  0  0  0
    2.7050   -3.8406    1.9129 H   0  0  0  0  0  0  0  0  0  0  0  0
    3.9174   -2.5238    4.8736 H   0  0  0  0  0  0  0  0  0  0  0  0
    4.0277   -3.8415    6.6977 H   0  0  0  0  0  0  0  0  0  0  0  0
    2.3390   -3.6001    7.1199 H   0  0  0  0  0  0  0  0  0  0  0  0
    3.5000   -5.5230    5.1152 H   0  0  0  0  0  0  0  0  0  0  0  0
    2.2567   -5.8115    6.3324 H   0  0  0  0  0  0  0  0  0  0  0  0
    0.5289   -3.8749    5.9294 H   0  0  0  0  0  0  0  0  0  0  0  0
    2.5309   -7.2537    1.3712 H   0  0  0  0  0  0  0  0  0  0  0  0
    3.8842   -7.1200    2.5242 H   0  0  0  0  0  0  0  0  0  0  0  0
    2.9092   -9.4307    0.8265 H   0  0  0  0  0  0  0  0  0  0  0  0
    4.5853   -8.9411    1.1333 H   0  0  0  0  0  0  0  0  0  0  0  0
    3.5394  -11.0580    2.4407 H   0  0  0  0  0  0  0  0  0  0  0  0
    4.5703   -9.8898    3.2495 H   0  0  0  0  0  0  0  0  0  0  0  0
    0.2867   -9.7646    3.2410 H   0  0  0  0  0  0  0  0  0  0  0  0
    1.2338  -11.1142    2.6485 H   0  0  0  0  0  0  0  0  0  0  0  0
   -0.1469  -11.2541    4.9782 H   0  0  0  0  0  0  0  0  0  0  0  0
    1.3985  -12.0889    4.7137 H   0  0  0  0  0  0  0  0  0  0  0  0
    1.0190   -9.4875    5.9430 H   0  0  0  0  0  0  0  0  0  0  0  0
    3.5043  -10.6521    5.2156 H   0  0  0  0  0  0  0  0  0  0  0  0
    3.2969   -8.9505    5.6461 H   0  0  0  0  0  0  0  0  0  0  0  0
    1.7491  -10.8792    6.5977 H   0  0  0  0  0  0  0  0  0  0  0  0
  2  1  1  1
  1 36  1  0
  1 37  1  0
  1 38  1  0
  2  8  1  0
  2 12  1  0
  2  3  1  0
  3  4  2  0
  3 39  1  0
  4  5  1  0
  4 40  1  0
  5  6  2  0
  5  7  1  0
  7  8  1  0
  7 41  1  0
  7 42  1  0
  8  9  2  0
  9 10  1  0
  9 43  1  0
 10 11  1  0
 10 44  1  0
 10 45  1  0
 11 18  1  0
 11 12  1  0
 11 46  1  1
 12 13  1  0
 12 47  1  6
 13 14  1  0
 13 15  1  0
 13 48  1  6
 14 49  1  0
 15 16  1  0
 15 50  1  0
 15 51  1  0
 16 21  1  0
 16 17  1  6
 16 18  1  0
 17 52  1  0
 17 53  1  0
 17 54  1  0
 18 19  1  0
 18 55  1  6
 19 20  1  0
 19 56  1  0
 19 57  1  0
 20 21  1  0
 20 58  1  0
 20 59  1  0
 21 22  1  1
 21 23  1  0
 22 60  1  0
 23 24  2  0
 23 25  1  0
 25 26  2  0
 25 27  1  0
 31 27  1  1
 27 28  1  0
 28 29  1  0
 28 61  1  0
 28 62  1  0
 29 30  1  0
 29 63  1  0
 29 64  1  0
 30 31  1  0
 30 65  1  0
 30 66  1  0
 31 35  1  0
 31 32  1  0
 32 33  1  0
 32 67  1  0
 32 68  1  0
 33 34  1  0
 33 69  1  0
 33 70  1  0
 34 35  1  0
 34 71  1  0
 34 74  1  0
 35 72  1  0
 35 73  1  0
M  CHG  1  34   1
M  END
>  <i_m_ct_stereo_status>  (207) 
1

>  <s_m_source_file>  (207) 
/var/tmp/pbs.5076255.sched01/tmpyrjfudeo/454urwji6r.sdf

>  <i_m_source_file_index>  (207) 
45

>  <i_lp_mmshare_version>  (207) 
48012

>  <i_f3d_flags>  (207) 
0

>  <s_epik_input>  (207) 
W0NIXTE9W0NIXUMoPU8pW0NIMl1DKFtDQF0xMltDSDNdKT1bQ0hdW0NIMl1bQ0BASF0zW0NASF0yW0NAQEhdKFtPSF0pW0NIMl1bQ0BAXTQoW0NIM10pW0NAQEhdM1tDSDJdW0NIMl1bQ0BdNChbT0hdKUMoPU8pQyg9TylOKFtDSDJdW0NIMl1bQ0gyXTUpW0NAQF01NltDSDJdW0NIMl1bTkhdW0NIMl02

>  <s_epik_cmdline>  (207) 
J2VwaWtfcHl0aG9uJywgJy1waHQnLCAnMi4wJywgJy1waCcsICc3LjAnLCAnLXRuJywgJzgnLCAnLW1hJywgJzIwMCcsICctaW1hZScsICc8aW5maWxlLm1hZT4nLCAnLW9tYWUnLCAnPG91dGZpbGUubWFlPic=

>  <r_epik_Ionization_Penalty>  (207) 
0.000327392

>  <r_epik_Ionization_Penalty_Charging>  (207) 
0.000324448

>  <r_epik_Ionization_Penalty_Neutral>  (207) 
2.94419e-06

>  <r_epik_State_Penalty>  (207) 
0.000196072

>  <r_epik_Charging_Adjusted_Penalty>  (207) 
0.00052052

>  <i_epik_Tot_Q>  (207) 
1

>  <i_epik_Tot_abs_Q>  (207) 
1

>  <s_lp_Force_Field>  (207) 
OPLS3e

>  <r_lp_Energy>  (207) 
82.4734

>  <b_lp_Chiralities_Consistent>  (207) 
1

>  <s_lp_Variant>  (207) 
54:0-1

>  <s_i_glide_gridfile>  (207) 
pfpi4k_grid

>  <i_i_glide_lignum>  (207) 
45

>  <i_i_glide_rotatable_bonds>  (207) 
5

>  <r_i_docking_score>  (207) 
-3.67916

>  <r_i_glide_ligand_efficiency>  (207) 
-0.105119

>  <r_i_glide_ligand_efficiency_sa>  (207) 
-0.343851

>  <r_i_glide_ligand_efficiency_ln>  (207) 
-0.807657

>  <r_i_glide_gscore>  (207) 
-3.67916

>  <r_i_glide_lipo>  (207) 
-0.184068

>  <r_i_glide_hbond>  (207) 
-0.322952

>  <r_i_glide_metal>  (207) 
-0

>  <r_i_glide_rewards>  (207) 
-0.611684

>  <r_i_glide_evdw>  (207) 
-25.2193

>  <r_i_glide_ecoul>  (207) 
-9.41252

>  <r_i_glide_erotb>  (207) 
0.260407

>  <r_i_glide_esite>  (207) 
-0.148016

>  <r_i_glide_emodel>  (207) 
-49.6199

>  <r_i_glide_energy>  (207) 
-34.6319

>  <r_i_glide_einternal>  (207) 
1.95034

>  <r_i_glide_intrahb_reward>  (207) 
-0.5

>  <i_i_glide_confnum>  (207) 
1

>  <i_i_glide_posenum>  (207) 
1

>  <r_i_glide_eff_state_penalty>  (207) 
0

>  <ligand_id>  (207) 
54

>  <original_smiles>  (207) 
CC12C=CC(=O)CC1=CCC1C2C(O)CC2(C)C1CCC2(O)C(=O)C(=O)N1CCCC12CCNC2

>  <smiles>  (207) 
[H]OC1([H])C([H])([H])C2(C([H])([H])[H])C(O[H])(C(=O)C(=O)N3C([H])([H])C([H])([H])C([H])([H])C34C([H])([H])C([H])([H])[N+]([H])([H])C4([H])[H])C([H])([H])C([H])([H])C2([H])C2([H])C([H])([H])C([H])=C3C([H])([H])C(=O)C([H])=C([H])C3(C([H])([H])[H])C12[H]

$$$$
54:0:2
     RDKit          3D

 74 79  0  0  1  0  0  0  0  0999 V2000
    2.0000   -9.0015    5.2794 C   0  0  0  0  0  0  0  0  0  0  0  0
    1.2849   -7.7647    4.7001 C   0  0  2  0  0  0  0  0  0  0  0  0
   -0.1877   -7.9180    5.0600 C   0  0  0  0  0  0  0  0  0  0  0  0
   -1.1687   -8.3017    4.2304 C   0  0  0  0  0  0  0  0  0  0  0  0
   -0.8848   -8.6807    2.8483 C   0  0  0  0  0  0  0  0  0  0  0  0
   -1.7818   -9.0255    2.0772 O   0  0  0  0  0  0  0  0  0  0  0  0
    0.5671   -8.7015    2.3671 C   0  0  0  0  0  0  0  0  0  0  0  0
    1.4837   -7.7989    3.1824 C   0  0  0  0  0  0  0  0  0  0  0  0
    2.4545   -7.0875    2.5795 C   0  0  0  0  0  0  0  0  0  0  0  0
    3.4715   -6.2279    3.3047 C   0  0  0  0  0  0  0  0  0  0  0  0
    3.3097   -6.1922    4.8467 C   0  0  2  0  0  0  0  0  0  0  0  0
    1.8556   -6.4443    5.3125 C   0  0  1  0  0  0  0  0  0  0  0  0
    0.9417   -5.1994    5.0978 C   0  0  1  0  0  0  0  0  0  0  0  0
    0.1720   -4.9459    6.2601 O   0  0  0  0  0  0  0  0  0  0  0  0
    1.6802   -3.9066    4.7021 C   0  0  0  0  0  0  0  0  0  0  0  0
    3.0296   -3.6375    5.4350 C   0  0  1  0  0  0  0  0  0  0  0  0
    2.7073   -3.1397    6.8773 C   0  0  0  0  0  0  0  0  0  0  0  0
    3.8889   -4.9392    5.5494 C   0  0  2  0  0  0  0  0  0  0  0  0
    5.3372   -4.5876    5.1752 C   0  0  0  0  0  0  0  0  0  0  0  0
    5.3760   -3.0667    5.1651 C   0  0  0  0  0  0  0  0  0  0  0  0
    3.9784   -2.6111    4.7064 C   0  0  1  0  0  0  0  0  0  0  0  0
    3.9889   -2.7976    3.3032 O   0  0  0  0  0  0  0  0  0  0  0  0
    3.7478   -1.1096    5.0134 C   0  0  0  0  0  0  0  0  0  0  0  0
    4.4799   -0.5555    5.8427 O   0  0  0  0  0  0  0  0  0  0  0  0
    2.5920   -0.3423    4.2758 C   0  0  0  0  0  0  0  0  0  0  0  0
    1.7102   -0.9955    3.6868 O   0  0  0  0  0  0  0  0  0  0  0  0
    2.6170    1.0080    4.2266 N   0  0  0  0  0  0  0  0  0  0  0  0
    3.4932    1.8957    5.0025 C   0  0  0  0  0  0  0  0  0  0  0  0
    2.9729    3.3096    4.8346 C   0  0  0  0  0  0  0  0  0  0  0  0
    2.2497    3.2790    3.5103 C   0  0  0  0  0  0  0  0  0  0  0  0
    1.7122    1.8402    3.3835 C   0  0  2  0  0  0  0  0  0  0  0  0
    0.2187    1.7033    3.7930 C   0  0  0  0  0  0  0  0  0  0  0  0
   -0.5302    1.3205    2.5214 C   0  0  0  0  0  0  0  0  0  0  0  0
    0.4804    0.6775    1.6659 N   0  0  0  0  0  0  0  0  0  0  0  0
    1.7274    1.4283    1.8912 C   0  0  0  0  0  0  0  0  0  0  0  0
    1.5381   -9.9263    4.9222 H   0  0  0  0  0  0  0  0  0  0  0  0
    1.9598   -9.0171    6.3694 H   0  0  0  0  0  0  0  0  0  0  0  0
    3.0473   -9.0421    4.9747 H   0  0  0  0  0  0  0  0  0  0  0  0
   -0.4328   -7.7013    6.0866 H   0  0  0  0  0  0  0  0  0  0  0  0
   -2.1795   -8.4385    4.5774 H   0  0  0  0  0  0  0  0  0  0  0  0
    0.9351   -9.7285    2.4101 H   0  0  0  0  0  0  0  0  0  0  0  0
    0.5876   -8.3884    1.3226 H   0  0  0  0  0  0  0  0  0  0  0  0
    2.5789   -7.1482    1.5083 H   0  0  0  0  0  0  0  0  0  0  0  0
    4.4551   -6.6312    3.0666 H   0  0  0  0  0  0  0  0  0  0  0  0
    3.4446   -5.2390    2.8591 H   0  0  0  0  0  0  0  0  0  0  0  0
    3.9097   -7.0180    5.2223 H   0  0  0  0  0  0  0  0  0  0  0  0
    1.9160   -6.5965    6.3922 H   0  0  0  0  0  0  0  0  0  0  0  0
    0.2291   -5.3875    4.2951 H   0  0  0  0  0  0  0  0  0  0  0  0
   -0.3372   -4.1646    6.1178 H   0  0  0  0  0  0  0  0  0  0  0  0
    1.8525   -3.9718    3.6296 H   0  0  0  0  0  0  0  0  0  0  0  0
    0.9965   -3.0700    4.8301 H   0  0  0  0  0  0  0  0  0  0  0  0
    3.6061   -2.8318    7.4158 H   0  0  0  0  0  0  0  0  0  0  0  0
    2.2382   -3.9210    7.4784 H   0  0  0  0  0  0  0  0  0  0  0  0
    2.0247   -2.2883    6.8735 H   0  0  0  0  0  0  0  0  0  0  0  0
    3.9356   -5.1925    6.6070 H   0  0  0  0  0  0  0  0  0  0  0  0
    6.0678   -4.9859    5.8806 H   0  0  0  0  0  0  0  0  0  0  0  0
    5.6109   -4.9328    4.1814 H   0  0  0  0  0  0  0  0  0  0  0  0
    5.6094   -2.7223    6.1777 H   0  0  0  0  0  0  0  0  0  0  0  0
    6.1631   -2.6938    4.5199 H   0  0  0  0  0  0  0  0  0  0  0  0
    3.1426   -2.5421    2.9698 H   0  0  0  0  0  0  0  0  0  0  0  0
    3.4721    1.6516    6.0650 H   0  0  0  0  0  0  0  0  0  0  0  0
    4.5047    1.7979    4.6020 H   0  0  0  0  0  0  0  0  0  0  0  0
    2.2697    3.5315    5.6367 H   0  0  0  0  0  0  0  0  0  0  0  0
    3.7816    4.0361    4.8553 H   0  0  0  0  0  0  0  0  0  0  0  0
    1.4763    4.0455    3.4228 H   0  0  0  0  0  0  0  0  0  0  0  0
    2.9932    3.4768    2.7328 H   0  0  0  0  0  0  0  0  0  0  0  0
    0.0727    0.9296    4.5415 H   0  0  0  0  0  0  0  0  0  0  0  0
   -0.1858    2.6256    4.1991 H   0  0  0  0  0  0  0  0  0  0  0  0
   -1.3857    0.6747    2.7108 H   0  0  0  0  0  0  0  0  0  0  0  0
   -0.8688    2.2247    2.0282 H   0  0  0  0  0  0  0  0  0  0  0  0
    0.6674   -0.2541    2.0236 H   0  0  0  0  0  0  0  0  0  0  0  0
    1.6205    2.3175    1.2725 H   0  0  0  0  0  0  0  0  0  0  0  0
    2.6413    0.9020    1.5668 H   0  0  0  0  0  0  0  0  0  0  0  0
    0.2118    0.6550    0.6990 H   0  0  0  0  0  0  0  0  0  0  0  0
  2  1  1  1
  1 36  1  0
  1 37  1  0
  1 38  1  0
  2  8  1  0
  2 12  1  0
  2  3  1  0
  3  4  2  0
  3 39  1  0
  4  5  1  0
  4 40  1  0
  5  6  2  0
  5  7  1  0
  7  8  1  0
  7 41  1  0
  7 42  1  0
  8  9  2  0
  9 10  1  0
  9 43  1  0
 10 11  1  0
 10 44  1  0
 10 45  1  0
 11 18  1  0
 11 12  1  0
 11 46  1  1
 12 13  1  0
 12 47  1  1
 13 14  1  0
 13 15  1  0
 13 48  1  6
 14 49  1  0
 15 16  1  0
 15 50  1  0
 15 51  1  0
 16 21  1  0
 16 17  1  1
 16 18  1  0
 17 52  1  0
 17 53  1  0
 17 54  1  0
 18 19  1  0
 18 55  1  1
 19 20  1  0
 19 56  1  0
 19 57  1  0
 20 21  1  0
 20 58  1  0
 20 59  1  0
 21 22  1  6
 21 23  1  0
 22 60  1  0
 23 24  2  0
 23 25  1  0
 25 26  2  0
 25 27  1  0
 31 27  1  1
 27 28  1  0
 28 29  1  0
 28 61  1  0
 28 62  1  0
 29 30  1  0
 29 63  1  0
 29 64  1  0
 30 31  1  0
 30 65  1  0
 30 66  1  0
 31 35  1  0
 31 32  1  0
 32 33  1  0
 32 67  1  0
 32 68  1  0
 33 34  1  0
 33 69  1  0
 33 70  1  0
 34 35  1  0
 34 71  1  0
 34 74  1  0
 35 72  1  0
 35 73  1  0
M  CHG  1  34   1
M  END
>  <i_m_ct_stereo_status>  (208) 
1

>  <s_m_source_file>  (208) 
/var/tmp/pbs.5076255.sched01/tmpyrjfudeo/454urwji6r.sdf

>  <i_m_source_file_index>  (208) 
45

>  <i_lp_mmshare_version>  (208) 
48012

>  <i_f3d_flags>  (208) 
0

>  <s_epik_input>  (208) 
W0NIXTE9W0NIXUMoPU8pW0NIMl1DKFtDQF0xMltDSDNdKT1bQ0hdW0NIMl1bQ0BASF0zW0NASF0yW0NAQEhdKFtPSF0pW0NIMl1bQ0BAXTQoW0NIM10pW0NAQEhdM1tDSDJdW0NIMl1bQ0BdNChbT0hdKUMoPU8pQyg9TylOKFtDSDJdW0NIMl1bQ0gyXTUpW0NAQF01NltDSDJdW0NIMl1bTkhdW0NIMl02

>  <s_epik_cmdline>  (208) 
J2VwaWtfcHl0aG9uJywgJy1waHQnLCAnMi4wJywgJy1waCcsICc3LjAnLCAnLXRuJywgJzgnLCAnLW1hJywgJzIwMCcsICctaW1hZScsICc8aW5maWxlLm1hZT4nLCAnLW9tYWUnLCAnPG91dGZpbGUubWFlPic=

>  <r_epik_Ionization_Penalty>  (208) 
0.000327392

>  <r_epik_Ionization_Penalty_Charging>  (208) 
0.000324448

>  <r_epik_Ionization_Penalty_Neutral>  (208) 
2.94419e-06

>  <r_epik_State_Penalty>  (208) 
0.000196072

>  <r_epik_Charging_Adjusted_Penalty>  (208) 
0.00052052

>  <i_epik_Tot_Q>  (208) 
1

>  <i_epik_Tot_abs_Q>  (208) 
1

>  <s_lp_Force_Field>  (208) 
OPLS3e

>  <r_lp_Energy>  (208) 
82.4734

>  <b_lp_Chiralities_Consistent>  (208) 
1

>  <s_lp_Variant>  (208) 
54:0-1

>  <s_i_glide_gridfile>  (208) 
pfpi4k_grid

>  <i_i_glide_lignum>  (208) 
45

>  <i_i_glide_rotatable_bonds>  (208) 
5

>  <r_i_docking_score>  (208) 
-3.44468

>  <r_i_glide_ligand_efficiency>  (208) 
-0.0984195

>  <r_i_glide_ligand_efficiency_sa>  (208) 
-0.321937

>  <r_i_glide_ligand_efficiency_ln>  (208) 
-0.756185

>  <r_i_glide_gscore>  (208) 
-3.44468

>  <r_i_glide_lipo>  (208) 
-0.0236249

>  <r_i_glide_hbond>  (208) 
-0.260647

>  <r_i_glide_metal>  (208) 
-0

>  <r_i_glide_rewards>  (208) 
-1.11168

>  <r_i_glide_evdw>  (208) 
-28.7434

>  <r_i_glide_ecoul>  (208) 
-4.95829

>  <r_i_glide_erotb>  (208) 
0.260407

>  <r_i_glide_esite>  (208) 
-0.128221

>  <r_i_glide_emodel>  (208) 
-52.661

>  <r_i_glide_energy>  (208) 
-33.7017

>  <r_i_glide_einternal>  (208) 
2.99067

>  <r_i_glide_intrahb_reward>  (208) 
-1

>  <i_i_glide_confnum>  (208) 
3

>  <i_i_glide_posenum>  (208) 
36

>  <r_i_glide_eff_state_penalty>  (208) 
0

>  <ligand_id>  (208) 
54

>  <original_smiles>  (208) 
CC12C=CC(=O)CC1=CCC1C2C(O)CC2(C)C1CCC2(O)C(=O)C(=O)N1CCCC12CCNC2

>  <smiles>  (208) 
[H]OC1([H])C([H])([H])C2(C([H])([H])[H])C(O[H])(C(=O)C(=O)N3C([H])([H])C([H])([H])C([H])([H])C34C([H])([H])C([H])([H])[N+]([H])([H])C4([H])[H])C([H])([H])C([H])([H])C2([H])C2([H])C([H])([H])C([H])=C3C([H])([H])C(=O)C([H])=C([H])C3(C([H])([H])[H])C12[H]

$$$$
55:0:0
     RDKit          3D

 67 73  0  0  1  0  0  0  0  0999 V2000
    1.5121   -4.2190    6.5967 C   0  0  0  0  0  0  0  0  0  0  0  0
    2.0281   -5.1624    5.7889 C   0  0  0  0  0  0  0  0  0  0  0  0
    1.3216   -6.5262    5.8111 C   0  0  0  0  0  0  0  0  0  0  0  0
    0.3086   -6.7499    6.4729 O   0  0  0  0  0  0  0  0  0  0  0  0
    1.8645   -7.4726    4.9852 O   0  0  0  0  0  0  0  0  0  0  0  0
    1.2208   -8.1779    3.8847 C   0  0  2  0  0  0  0  0  0  0  0  0
    2.3569   -8.7939    2.9504 C   0  0  1  0  0  0  0  0  0  0  0  0
    1.8490   -9.8299    2.1268 O   0  0  0  0  0  0  0  0  0  0  0  0
    3.3345   -7.8290    2.1503 C   0  0  2  0  0  0  0  0  0  0  0  0
    4.3852   -8.7052    1.4455 C   0  0  0  0  0  0  0  0  0  0  0  0
    3.8730   -6.8405    3.1330 C   0  0  2  0  0  0  0  0  0  0  0  0
    4.4841   -7.0883    4.5069 C   0  0  0  0  0  0  0  0  0  0  0  0
    4.4248   -5.7702    5.2607 C   0  0  0  0  0  0  0  0  0  0  0  0
    5.2701   -5.4934    6.1150 O   0  0  0  0  0  0  0  0  0  0  0  0
    3.2817   -4.7985    4.9276 C   0  0  1  0  0  0  0  0  0  0  0  0
    3.0130   -4.5603    3.3752 C   0  0  1  0  0  0  0  0  0  0  0  0
    4.0540   -3.7971    2.4870 C   0  0  1  0  0  0  0  0  0  0  0  0
    5.5758   -3.7697    2.7889 C   0  0  0  0  0  0  0  0  0  0  0  0
    6.1458   -3.3653    1.4453 C   0  0  0  0  0  0  0  0  0  0  0  0
    5.2569   -3.4822    0.4657 C   0  0  0  0  0  0  0  0  0  0  0  0
    5.4669   -3.0850   -0.9249 C   0  0  0  0  0  0  0  0  0  0  0  0
    4.4041   -3.0075   -1.7561 C   0  0  0  0  0  0  0  0  0  0  0  0
    4.5551   -2.6521   -3.2266 C   0  0  0  0  0  0  0  0  0  0  0  0
    2.9731   -3.2571   -1.2868 C   0  0  0  0  0  0  0  0  0  0  0  0
    2.8177   -3.3002    0.2551 C   0  0  0  0  0  0  0  0  0  0  0  0
    3.9613   -4.0710    0.9317 C   0  0  2  0  0  0  0  0  0  0  0  0
    3.9580   -5.5977    0.5672 C   0  0  0  0  0  0  0  0  0  0  0  0
    2.9869   -6.4486    1.3993 C   0  0  2  0  0  0  0  0  0  0  0  0
    2.6323   -5.8934    2.7727 C   0  0  1  0  0  0  0  0  0  0  0  0
    1.0464   -5.9211    2.8610 C   0  0  0  0  0  0  0  0  0  0  0  0
    0.3107   -7.2504    3.0643 C   0  0  1  0  0  0  0  0  0  0  0  0
   -0.2570   -7.8420    1.7552 C   0  0  0  0  0  0  0  0  0  0  0  0
   -0.9146   -7.0370    3.7558 O   0  0  0  0  0  0  0  0  0  0  0  0
    1.9499   -3.2307    6.6418 H   0  0  0  0  0  0  0  0  0  0  0  0
    0.6450   -4.3963    7.2169 H   0  0  0  0  0  0  0  0  0  0  0  0
    0.6412   -9.0004    4.3065 H   0  0  0  0  0  0  0  0  0  0  0  0
    2.9788   -9.3542    3.6440 H   0  0  0  0  0  0  0  0  0  0  0  0
    1.2403   -9.4883    1.5042 H   0  0  0  0  0  0  0  0  0  0  0  0
    5.2344   -8.1117    1.0917 H   0  0  0  0  0  0  0  0  0  0  0  0
    3.9795   -9.2186    0.5726 H   0  0  0  0  0  0  0  0  0  0  0  0
    4.8068   -9.4590    2.1128 H   0  0  0  0  0  0  0  0  0  0  0  0
    4.7869   -6.4410    2.6856 H   0  0  0  0  0  0  0  0  0  0  0  0
    4.0340   -7.9039    5.0755 H   0  0  0  0  0  0  0  0  0  0  0  0
    5.5253   -7.3869    4.4029 H   0  0  0  0  0  0  0  0  0  0  0  0
    3.6238   -3.8400    5.3156 H   0  0  0  0  0  0  0  0  0  0  0  0
    2.1731   -3.8659    3.3448 H   0  0  0  0  0  0  0  0  0  0  0  0
    3.7899   -2.7461    2.6141 H   0  0  0  0  0  0  0  0  0  0  0  0
    5.8107   -3.0303    3.5540 H   0  0  0  0  0  0  0  0  0  0  0  0
    6.0028   -4.7277    3.0865 H   0  0  0  0  0  0  0  0  0  0  0  0
    7.1582   -3.0025    1.3421 H   0  0  0  0  0  0  0  0  0  0  0  0
    6.4634   -2.8972   -1.2830 H   0  0  0  0  0  0  0  0  0  0  0  0
    4.1269   -3.4351   -3.8552 H   0  0  0  0  0  0  0  0  0  0  0  0
    5.6088   -2.5514   -3.4791 H   0  0  0  0  0  0  0  0  0  0  0  0
    4.0464   -1.7147   -3.4569 H   0  0  0  0  0  0  0  0  0  0  0  0
    2.3158   -2.4934   -1.7004 H   0  0  0  0  0  0  0  0  0  0  0  0
    2.6382   -4.2027   -1.7032 H   0  0  0  0  0  0  0  0  0  0  0  0
    2.8169   -2.2644    0.6040 H   0  0  0  0  0  0  0  0  0  0  0  0
    1.8556   -3.7149    0.5340 H   0  0  0  0  0  0  0  0  0  0  0  0
    3.7818   -5.7306   -0.4948 H   0  0  0  0  0  0  0  0  0  0  0  0
    4.9889   -5.9596    0.6608 H   0  0  0  0  0  0  0  0  0  0  0  0
    2.0847   -6.6221    0.7888 H   0  0  0  0  0  0  0  0  0  0  0  0
    0.6561   -5.2408    3.6132 H   0  0  0  0  0  0  0  0  0  0  0  0
    0.6355   -5.4639    1.9654 H   0  0  0  0  0  0  0  0  0  0  0  0
    0.5103   -8.0131    1.0067 H   0  0  0  0  0  0  0  0  0  0  0  0
   -0.9821   -7.1685    1.2995 H   0  0  0  0  0  0  0  0  0  0  0  0
   -0.7736   -8.7883    1.9353 H   0  0  0  0  0  0  0  0  0  0  0  0
   -1.2487   -7.8688    4.0346 H   0  0  0  0  0  0  0  0  0  0  0  0
  1  2  2  0
  1 34  1  0
  1 35  1  0
  2 15  1  0
  2  3  1  0
  3  4  2  0
  3  5  1  0
  5  6  1  0
  6 31  1  0
  6  7  1  0
  6 36  1  1
  7  8  1  0
  7  9  1  0
  7 37  1  1
  8 38  1  0
  9 28  1  0
  9 10  1  6
  9 11  1  0
 10 39  1  0
 10 40  1  0
 10 41  1  0
 11 29  1  0
 11 12  1  0
 11 42  1  6
 12 13  1  0
 12 43  1  0
 12 44  1  0
 13 14  2  0
 13 15  1  0
 15 16  1  0
 15 45  1  1
 16 29  1  0
 16 17  1  0
 16 46  1  1
 17 26  1  0
 17 18  1  0
 17 47  1  6
 18 19  1  0
 18 48  1  0
 18 49  1  0
 19 20  2  0
 19 50  1  0
 20 26  1  0
 20 21  1  0
 21 22  2  0
 21 51  1  0
 22 23  1  0
 22 24  1  0
 23 52  1  0
 23 53  1  0
 23 54  1  0
 24 25  1  0
 24 55  1  0
 24 56  1  0
 26 25  1  6
 25 57  1  0
 25 58  1  0
 26 27  1  0
 27 28  1  0
 27 59  1  0
 27 60  1  0
 28 29  1  0
 28 61  1  6
 29 30  1  1
 30 31  1  0
 30 62  1  0
 30 63  1  0
 31 32  1  0
 31 33  1  1
 32 64  1  0
 32 65  1  0
 32 66  1  0
 33 67  1  0
M  END
>  <i_m_ct_stereo_status>  (209) 
1

>  <s_m_source_file>  (209) 
/var/tmp/pbs.5076255.sched01/tmpn8rdt6mw/90ee43ygr2.sdf

>  <i_m_source_file_index>  (209) 
1

>  <i_lp_mmshare_version>  (209) 
48012

>  <i_f3d_flags>  (209) 
0

>  <s_epik_input>  (209) 
W0NIMl0xQyg9TylbQ0BASF0yQyg9W0NIMl0pQyg9TylPW0NAQEhdKFtDQEBdKFtDSDJdMykoW0NIM10pW09IXSlbQ0BASF0oW09IXSlbQ0BAXShbQ0gzXSkoW0NAQEhdNFtDSDJdNSlbQ0BIXTFbQ0BdMzRbQ0BASF0yW0NASF0oW0NAXTU2NylbQ0gyXVtDSF09QzZbQ0hdPUMoW0NIM10pW0NIMl1bQ0gyXTc=

>  <s_epik_cmdline>  (209) 
J2VwaWtfcHl0aG9uJywgJy1waHQnLCAnMi4wJywgJy1waCcsICc3LjAnLCAnLXRuJywgJzgnLCAnLW1hJywgJzIwMCcsICctaW1hZScsICc8aW5maWxlLm1hZT4nLCAnLW9tYWUnLCAnPG91dGZpbGUubWFlPic=

>  <r_lp_tautomer_probability>  (209) 
1

>  <r_epik_Ionization_Penalty>  (209) 
8.87584e-08

>  <r_epik_Ionization_Penalty_Charging>  (209) 
0

>  <r_epik_Ionization_Penalty_Neutral>  (209) 
8.87584e-08

>  <r_epik_State_Penalty>  (209) 
-0

>  <r_epik_Charging_Adjusted_Penalty>  (209) 
0

>  <i_epik_Tot_Q>  (209) 
0

>  <i_epik_Tot_abs_Q>  (209) 
0

>  <s_epik_Chemistry_Notes>  (209) 
This compound has an ester and may undergo hydrolysis at high or low pH.

>  <s_lp_Force_Field>  (209) 
OPLS3e

>  <r_lp_Energy>  (209) 
152.809

>  <b_lp_Chiralities_Consistent>  (209) 
1

>  <s_lp_Variant>  (209) 
55:0-1

>  <s_i_glide_gridfile>  (209) 
pfpi4k_grid

>  <i_i_glide_lignum>  (209) 
1

>  <i_i_glide_rotatable_bonds>  (209) 
2

>  <r_i_docking_score>  (209) 
-2.66891

>  <r_i_glide_ligand_efficiency>  (209) 
-0.080876

>  <r_i_glide_ligand_efficiency_sa>  (209) 
-0.259413

>  <r_i_glide_ligand_efficiency_ln>  (209) 
-0.593552

>  <r_i_glide_gscore>  (209) 
-2.66891

>  <r_i_glide_lipo>  (209) 
-0.47887

>  <r_i_glide_hbond>  (209) 
-0.168347

>  <r_i_glide_metal>  (209) 
-0

>  <r_i_glide_rewards>  (209) 
-0.337046

>  <r_i_glide_evdw>  (209) 
-24.0128

>  <r_i_glide_ecoul>  (209) 
-3.21921

>  <r_i_glide_erotb>  (209) 
0

>  <r_i_glide_esite>  (209) 
-0.00112657

>  <r_i_glide_emodel>  (209) 
-31.5421

>  <r_i_glide_energy>  (209) 
-27.232

>  <r_i_glide_einternal>  (209) 
0.0630925

>  <r_i_glide_intrahb_reward>  (209) 
-0

>  <i_i_glide_confnum>  (209) 
1

>  <i_i_glide_posenum>  (209) 
11

>  <r_i_glide_eff_state_penalty>  (209) 
0

>  <ligand_id>  (209) 
55

>  <original_smiles>  (209) 
C=C1C(=O)OC2C(O)C3(C)C4CC(=O)C1C1C5CC=C6C=C(C)CCC65CC3C14CC2(C)O

>  <smiles>  (209) 
[H]OC1([H])C2([H])OC(=O)C(=C([H])[H])C3([H])C(=O)C([H])([H])C4([H])C1(C([H])([H])[H])C1([H])C([H])([H])C56C(=C([H])C([H])([H])C5([H])C3([H])C41C([H])([H])C2(O[H])C([H])([H])[H])C([H])=C(C([H])([H])[H])C([H])([H])C6([H])[H]

$$$$
55:0:1
     RDKit          3D

 67 73  0  0  1  0  0  0  0  0999 V2000
    1.6767   -4.0769    6.4386 C   0  0  0  0  0  0  0  0  0  0  0  0
    2.2093   -5.0160    5.6276 C   0  0  0  0  0  0  0  0  0  0  0  0
    1.5652   -6.4083    5.6971 C   0  0  0  0  0  0  0  0  0  0  0  0
    0.5879   -6.6663    6.3957 O   0  0  0  0  0  0  0  0  0  0  0  0
    2.1266   -7.3437    4.8710 O   0  0  0  0  0  0  0  0  0  0  0  0
    1.4839   -8.0992    3.8036 C   0  0  2  0  0  0  0  0  0  0  0  0
    2.6236   -8.6797    2.8525 C   0  0  1  0  0  0  0  0  0  0  0  0
    2.1487   -9.7549    2.0640 O   0  0  0  0  0  0  0  0  0  0  0  0
    3.5251   -7.6876    2.0020 C   0  0  2  0  0  0  0  0  0  0  0  0
    4.5929   -8.5277    1.2739 C   0  0  0  0  0  0  0  0  0  0  0  0
    4.0463   -6.6531    2.9425 C   0  0  2  0  0  0  0  0  0  0  0  0
    4.7137   -6.8487    4.2998 C   0  0  0  0  0  0  0  0  0  0  0  0
    4.6126   -5.5207    5.0327 C   0  0  0  0  0  0  0  0  0  0  0  0
    5.4740   -5.1881    5.8532 O   0  0  0  0  0  0  0  0  0  0  0  0
    3.4183   -4.6066    4.7217 C   0  0  1  0  0  0  0  0  0  0  0  0
    3.0879   -4.4119    3.1761 C   0  0  1  0  0  0  0  0  0  0  0  0
    4.0679   -3.6190    2.2382 C   0  0  1  0  0  0  0  0  0  0  0  0
    5.5895   -3.5142    2.4961 C   0  0  0  0  0  0  0  0  0  0  0  0
    6.1003   -3.1082    1.1285 C   0  0  0  0  0  0  0  0  0  0  0  0
    5.1936   -3.2833    0.1771 C   0  0  0  0  0  0  0  0  0  0  0  0
    5.3303   -2.9110   -1.2300 C   0  0  0  0  0  0  0  0  0  0  0  0
    4.2469   -2.8933   -2.0298 C   0  0  0  0  0  0  0  0  0  0  0  0
    4.3267   -2.5582   -3.5060 C   0  0  0  0  0  0  0  0  0  0  0  0
    2.8462   -3.2001   -1.5062 C   0  0  0  0  0  0  0  0  0  0  0  0
    2.7433   -3.2206    0.0358 C   0  0  0  0  0  0  0  0  0  0  0  0
    3.9462   -3.9241    0.6937 C   0  0  2  0  0  0  0  0  0  0  0  0
    3.9947   -5.4575    0.3554 C   0  0  0  0  0  0  0  0  0  0  0  0
    3.0886   -6.3413    1.2335 C   0  0  2  0  0  0  0  0  0  0  0  0
    2.7495   -5.7701    2.6101 C   0  0  1  0  0  0  0  0  0  0  0  0
    1.1710   -5.8708    2.7464 C   0  0  0  0  0  0  0  0  0  0  0  0
    0.5041   -7.2256    2.9981 C   0  0  1  0  0  0  0  0  0  0  0  0
   -0.0869   -7.8711    1.7262 C   0  0  0  0  0  0  0  0  0  0  0  0
   -0.7031   -7.0418    3.7293 O   0  0  0  0  0  0  0  0  0  0  0  0
    2.0713   -3.0728    6.4528 H   0  0  0  0  0  0  0  0  0  0  0  0
    0.8406   -4.2839    7.0895 H   0  0  0  0  0  0  0  0  0  0  0  0
    0.9546   -8.9347    4.2532 H   0  0  0  0  0  0  0  0  0  0  0  0
    3.2911   -9.1921    3.5431 H   0  0  0  0  0  0  0  0  0  0  0  0
    2.8725  -10.2767    1.7747 H   0  0  0  0  0  0  0  0  0  0  0  0
    5.4017   -7.8982    0.8837 H   0  0  0  0  0  0  0  0  0  0  0  0
    4.1832   -9.0680    0.4213 H   0  0  0  0  0  0  0  0  0  0  0  0
    5.0704   -9.2488    1.9402 H   0  0  0  0  0  0  0  0  0  0  0  0
    4.9249   -6.2195    2.4599 H   0  0  0  0  0  0  0  0  0  0  0  0
    4.3177   -7.6708    4.8999 H   0  0  0  0  0  0  0  0  0  0  0  0
    5.7610   -7.0994    4.1688 H   0  0  0  0  0  0  0  0  0  0  0  0
    3.7249   -3.6294    5.0800 H   0  0  0  0  0  0  0  0  0  0  0  0
    2.2157   -3.7586    3.1580 H   0  0  0  0  0  0  0  0  0  0  0  0
    3.7539   -2.5782    2.3564 H   0  0  0  0  0  0  0  0  0  0  0  0
    5.8115   -2.7513    3.2372 H   0  0  0  0  0  0  0  0  0  0  0  0
    6.0712   -4.4452    2.7902 H   0  0  0  0  0  0  0  0  0  0  0  0
    7.0893   -2.6992    0.9912 H   0  0  0  0  0  0  0  0  0  0  0  0
    6.3108   -2.6781   -1.6234 H   0  0  0  0  0  0  0  0  0  0  0  0
    3.9182   -3.3770   -4.1093 H   0  0  0  0  0  0  0  0  0  0  0  0
    5.3589   -2.4017   -3.8012 H   0  0  0  0  0  0  0  0  0  0  0  0
    3.7604   -1.6558   -3.7359 H   0  0  0  0  0  0  0  0  0  0  0  0
    2.1476   -2.4668   -1.9169 H   0  0  0  0  0  0  0  0  0  0  0  0
    2.5222   -4.1606   -1.9008 H   0  0  0  0  0  0  0  0  0  0  0  0
    2.6993   -2.1765    0.3720 H   0  0  0  0  0  0  0  0  0  0  0  0
    1.8242   -3.6848    0.3556 H   0  0  0  0  0  0  0  0  0  0  0  0
    3.7991   -5.6102   -0.7029 H   0  0  0  0  0  0  0  0  0  0  0  0
    5.0401   -5.7679    0.4222 H   0  0  0  0  0  0  0  0  0  0  0  0
    2.1749   -6.5643    0.6594 H   0  0  0  0  0  0  0  0  0  0  0  0
    0.7766   -5.1940    3.4971 H   0  0  0  0  0  0  0  0  0  0  0  0
    0.7157   -5.4555    1.8525 H   0  0  0  0  0  0  0  0  0  0  0  0
    0.6566   -8.0238    0.9521 H   0  0  0  0  0  0  0  0  0  0  0  0
   -0.8718   -7.2496    1.2850 H   0  0  0  0  0  0  0  0  0  0  0  0
   -0.5389   -8.8396    1.9454 H   0  0  0  0  0  0  0  0  0  0  0  0
   -1.0133   -7.8896    4.0031 H   0  0  0  0  0  0  0  0  0  0  0  0
  1  2  2  0
  1 34  1  0
  1 35  1  0
  2 15  1  0
  2  3  1  0
  3  4  2  0
  3  5  1  0
  5  6  1  0
  6 31  1  0
  6  7  1  0
  6 36  1  1
  7  8  1  0
  7  9  1  0
  7 37  1  1
  8 38  1  0
  9 28  1  0
  9 10  1  6
  9 11  1  0
 10 39  1  0
 10 40  1  0
 10 41  1  0
 11 29  1  0
 11 12  1  0
 11 42  1  6
 12 13  1  0
 12 43  1  0
 12 44  1  0
 13 14  2  0
 13 15  1  0
 15 16  1  0
 15 45  1  1
 16 29  1  0
 16 17  1  0
 16 46  1  1
 17 26  1  0
 17 18  1  0
 17 47  1  6
 18 19  1  0
 18 48  1  0
 18 49  1  0
 19 20  2  0
 19 50  1  0
 20 26  1  0
 20 21  1  0
 21 22  2  0
 21 51  1  0
 22 23  1  0
 22 24  1  0
 23 52  1  0
 23 53  1  0
 23 54  1  0
 24 25  1  0
 24 55  1  0
 24 56  1  0
 26 25  1  6
 25 57  1  0
 25 58  1  0
 26 27  1  0
 27 28  1  0
 27 59  1  0
 27 60  1  0
 28 29  1  0
 28 61  1  6
 29 30  1  1
 30 31  1  0
 30 62  1  0
 30 63  1  0
 31 32  1  0
 31 33  1  1
 32 64  1  0
 32 65  1  0
 32 66  1  0
 33 67  1  0
M  END
>  <i_m_ct_stereo_status>  (210) 
1

>  <s_m_source_file>  (210) 
/var/tmp/pbs.5076255.sched01/tmpn8rdt6mw/90ee43ygr2.sdf

>  <i_m_source_file_index>  (210) 
1

>  <i_lp_mmshare_version>  (210) 
48012

>  <i_f3d_flags>  (210) 
0

>  <s_epik_input>  (210) 
W0NIMl0xQyg9TylbQ0BASF0yQyg9W0NIMl0pQyg9TylPW0NAQEhdKFtDQEBdKFtDSDJdMykoW0NIM10pW09IXSlbQ0BASF0oW09IXSlbQ0BAXShbQ0gzXSkoW0NAQEhdNFtDSDJdNSlbQ0BIXTFbQ0BdMzRbQ0BASF0yW0NASF0oW0NAXTU2NylbQ0gyXVtDSF09QzZbQ0hdPUMoW0NIM10pW0NIMl1bQ0gyXTc=

>  <s_epik_cmdline>  (210) 
J2VwaWtfcHl0aG9uJywgJy1waHQnLCAnMi4wJywgJy1waCcsICc3LjAnLCAnLXRuJywgJzgnLCAnLW1hJywgJzIwMCcsICctaW1hZScsICc8aW5maWxlLm1hZT4nLCAnLW9tYWUnLCAnPG91dGZpbGUubWFlPic=

>  <r_lp_tautomer_probability>  (210) 
1

>  <r_epik_Ionization_Penalty>  (210) 
8.87584e-08

>  <r_epik_Ionization_Penalty_Charging>  (210) 
0

>  <r_epik_Ionization_Penalty_Neutral>  (210) 
8.87584e-08

>  <r_epik_State_Penalty>  (210) 
-0

>  <r_epik_Charging_Adjusted_Penalty>  (210) 
0

>  <i_epik_Tot_Q>  (210) 
0

>  <i_epik_Tot_abs_Q>  (210) 
0

>  <s_epik_Chemistry_Notes>  (210) 
This compound has an ester and may undergo hydrolysis at high or low pH.

>  <s_lp_Force_Field>  (210) 
OPLS3e

>  <r_lp_Energy>  (210) 
152.809

>  <b_lp_Chiralities_Consistent>  (210) 
1

>  <s_lp_Variant>  (210) 
55:0-1

>  <s_i_glide_gridfile>  (210) 
pfpi4k_grid

>  <i_i_glide_lignum>  (210) 
1

>  <i_i_glide_rotatable_bonds>  (210) 
2

>  <r_i_docking_score>  (210) 
-2.32061

>  <r_i_glide_ligand_efficiency>  (210) 
-0.0703214

>  <r_i_glide_ligand_efficiency_sa>  (210) 
-0.225558

>  <r_i_glide_ligand_efficiency_ln>  (210) 
-0.516091

>  <r_i_glide_gscore>  (210) 
-2.32061

>  <r_i_glide_lipo>  (210) 
-0.486801

>  <r_i_glide_hbond>  (210) 
0

>  <r_i_glide_metal>  (210) 
-0

>  <r_i_glide_rewards>  (210) 
-0.337046

>  <r_i_glide_evdw>  (210) 
-24.4241

>  <r_i_glide_ecoul>  (210) 
-1.83414

>  <r_i_glide_erotb>  (210) 
0

>  <r_i_glide_esite>  (210) 
-0.000434606

>  <r_i_glide_emodel>  (210) 
-29.7329

>  <r_i_glide_energy>  (210) 
-26.2582

>  <r_i_glide_einternal>  (210) 
0.429237

>  <r_i_glide_intrahb_reward>  (210) 
-0

>  <i_i_glide_confnum>  (210) 
2

>  <i_i_glide_posenum>  (210) 
30

>  <r_i_glide_eff_state_penalty>  (210) 
0

>  <ligand_id>  (210) 
55

>  <original_smiles>  (210) 
C=C1C(=O)OC2C(O)C3(C)C4CC(=O)C1C1C5CC=C6C=C(C)CCC65CC3C14CC2(C)O

>  <smiles>  (210) 
[H]OC1([H])C2([H])OC(=O)C(=C([H])[H])C3([H])C(=O)C([H])([H])C4([H])C1(C([H])([H])[H])C1([H])C([H])([H])C56C(=C([H])C([H])([H])C5([H])C3([H])C41C([H])([H])C2(O[H])C([H])([H])[H])C([H])=C(C([H])([H])[H])C([H])([H])C6([H])[H]

$$$$
55:0:2
     RDKit          3D

 67 73  0  0  1  0  0  0  0  0999 V2000
    1.0180   -5.5254    4.9879 C   0  0  0  0  0  0  0  0  0  0  0  0
    2.2794   -5.5223    4.5196 C   0  0  0  0  0  0  0  0  0  0  0  0
    3.0724   -6.8249    4.7063 C   0  0  0  0  0  0  0  0  0  0  0  0
    2.5958   -7.8368    5.2147 O   0  0  0  0  0  0  0  0  0  0  0  0
    4.3539   -6.8007    4.2245 O   0  0  0  0  0  0  0  0  0  0  0  0
    4.9455   -7.6534    3.2018 C   0  0  2  0  0  0  0  0  0  0  0  0
    6.2702   -6.9405    2.6717 C   0  0  1  0  0  0  0  0  0  0  0  0
    7.1298   -7.8524    2.0034 O   0  0  0  0  0  0  0  0  0  0  0  0
    6.1659   -5.5644    1.8850 C   0  0  2  0  0  0  0  0  0  0  0  0
    7.5966   -5.0746    1.6016 C   0  0  0  0  0  0  0  0  0  0  0  0
    5.3168   -4.6513    2.7074 C   0  0  2  0  0  0  0  0  0  0  0  0
    5.4129   -4.3369    4.1971 C   0  0  0  0  0  0  0  0  0  0  0  0
    4.0766   -3.7511    4.6159 C   0  0  0  0  0  0  0  0  0  0  0  0
    4.0099   -2.9324    5.5351 O   0  0  0  0  0  0  0  0  0  0  0  0
    2.8215   -4.2125    3.8606 C   0  0  1  0  0  0  0  0  0  0  0  0
    2.9437   -4.2343    2.2722 C   0  0  1  0  0  0  0  0  0  0  0  0
    3.0634   -2.9008    1.4567 C   0  0  1  0  0  0  0  0  0  0  0  0
    3.6810   -1.5977    2.0349 C   0  0  0  0  0  0  0  0  0  0  0  0
    4.0030   -0.8298    0.7712 C   0  0  0  0  0  0  0  0  0  0  0  0
    3.9615   -1.5992   -0.3129 C   0  0  0  0  0  0  0  0  0  0  0  0
    4.1299   -1.1420   -1.6907 C   0  0  0  0  0  0  0  0  0  0  0  0
    3.7880   -1.9591   -2.7093 C   0  0  0  0  0  0  0  0  0  0  0  0
    3.9783   -1.5675   -4.1657 C   0  0  0  0  0  0  0  0  0  0  0  0
    3.1879   -3.3434   -2.4837 C   0  0  0  0  0  0  0  0  0  0  0  0
    2.7071   -3.5889   -1.0270 C   0  0  0  0  0  0  0  0  0  0  0  0
    3.6956   -3.0395    0.0129 C   0  0  2  0  0  0  0  0  0  0  0  0
    5.0636   -3.8089   -0.0070 C   0  0  0  0  0  0  0  0  0  0  0  0
    5.0689   -5.1226    0.7916 C   0  0  2  0  0  0  0  0  0  0  0  0
    4.0421   -5.2120    1.9133 C   0  0  1  0  0  0  0  0  0  0  0  0
    3.2842   -6.5923    1.6885 C   0  0  0  0  0  0  0  0  0  0  0  0
    3.9752   -7.9162    2.0406 C   0  0  1  0  0  0  0  0  0  0  0  0
    4.5783   -8.6570    0.8257 C   0  0  0  0  0  0  0  0  0  0  0  0
    3.0039   -8.8748    2.4316 O   0  0  0  0  0  0  0  0  0  0  0  0
    0.3934   -4.6471    4.9019 H   0  0  0  0  0  0  0  0  0  0  0  0
    0.5748   -6.3947    5.4541 H   0  0  0  0  0  0  0  0  0  0  0  0
    5.2284   -8.5951    3.6729 H   0  0  0  0  0  0  0  0  0  0  0  0
    6.8282   -6.7358    3.5837 H   0  0  0  0  0  0  0  0  0  0  0  0
    7.9952   -7.4908    1.9758 H   0  0  0  0  0  0  0  0  0  0  0  0
    7.6068   -4.0231    1.2955 H   0  0  0  0  0  0  0  0  0  0  0  0
    8.0707   -5.6342    0.7946 H   0  0  0  0  0  0  0  0  0  0  0  0
    8.2361   -5.1340    2.4833 H   0  0  0  0  0  0  0  0  0  0  0  0
    5.5507   -3.6380    2.3687 H   0  0  0  0  0  0  0  0  0  0  0  0
    5.7138   -5.1715    4.8314 H   0  0  0  0  0  0  0  0  0  0  0  0
    6.1787   -3.5902    4.3805 H   0  0  0  0  0  0  0  0  0  0  0  0
    2.0784   -3.4491    4.0874 H   0  0  0  0  0  0  0  0  0  0  0  0
    1.9755   -4.5990    1.9300 H   0  0  0  0  0  0  0  0  0  0  0  0
    2.0281   -2.5940    1.2953 H   0  0  0  0  0  0  0  0  0  0  0  0
    2.9635   -1.0544    2.6495 H   0  0  0  0  0  0  0  0  0  0  0  0
    4.5939   -1.7408    2.6115 H   0  0  0  0  0  0  0  0  0  0  0  0
    4.2052    0.2321    0.7871 H   0  0  0  0  0  0  0  0  0  0  0  0
    4.5394   -0.1664   -1.8845 H   0  0  0  0  0  0  0  0  0  0  0  0
    4.5990   -2.3130   -4.6586 H   0  0  0  0  0  0  0  0  0  0  0  0
    4.4642   -0.5950   -4.2577 H   0  0  0  0  0  0  0  0  0  0  0  0
    3.0203   -1.5203   -4.6850 H   0  0  0  0  0  0  0  0  0  0  0  0
    2.3490   -3.4975   -3.1630 H   0  0  0  0  0  0  0  0  0  0  0  0
    3.9520   -4.0697   -2.7586 H   0  0  0  0  0  0  0  0  0  0  0  0
    1.7547   -3.0687   -0.9233 H   0  0  0  0  0  0  0  0  0  0  0  0
    2.4953   -4.6414   -0.8502 H   0  0  0  0  0  0  0  0  0  0  0  0
    5.3854   -3.9842   -1.0311 H   0  0  0  0  0  0  0  0  0  0  0  0
    5.8285   -3.1142    0.3566 H   0  0  0  0  0  0  0  0  0  0  0  0
    4.9547   -5.9524    0.0722 H   0  0  0  0  0  0  0  0  0  0  0  0
    2.3194   -6.6201    2.1869 H   0  0  0  0  0  0  0  0  0  0  0  0
    2.9587   -6.6573    0.6492 H   0  0  0  0  0  0  0  0  0  0  0  0
    5.3039   -8.0517    0.2991 H   0  0  0  0  0  0  0  0  0  0  0  0
    3.8159   -8.9338    0.1011 H   0  0  0  0  0  0  0  0  0  0  0  0
    5.0739   -9.5863    1.1183 H   0  0  0  0  0  0  0  0  0  0  0  0
    3.4192   -9.7104    2.5299 H   0  0  0  0  0  0  0  0  0  0  0  0
  1  2  2  0
  1 34  1  0
  1 35  1  0
  2 15  1  0
  2  3  1  0
  3  4  2  0
  3  5  1  0
  5  6  1  0
  6 31  1  0
  6  7  1  0
  6 36  1  1
  7  8  1  0
  7  9  1  0
  7 37  1  1
  8 38  1  0
  9 28  1  0
  9 10  1  6
  9 11  1  0
 10 39  1  0
 10 40  1  0
 10 41  1  0
 11 29  1  0
 11 12  1  0
 11 42  1  6
 12 13  1  0
 12 43  1  0
 12 44  1  0
 13 14  2  0
 13 15  1  0
 15 16  1  0
 15 45  1  6
 16 29  1  0
 16 17  1  0
 16 46  1  6
 17 26  1  0
 17 18  1  0
 17 47  1  6
 18 19  1  0
 18 48  1  0
 18 49  1  0
 19 20  2  0
 19 50  1  0
 20 26  1  0
 20 21  1  0
 21 22  2  0
 21 51  1  0
 22 23  1  0
 22 24  1  0
 23 52  1  0
 23 53  1  0
 23 54  1  0
 24 25  1  0
 24 55  1  0
 24 56  1  0
 26 25  1  6
 25 57  1  0
 25 58  1  0
 26 27  1  0
 27 28  1  0
 27 59  1  0
 27 60  1  0
 28 29  1  0
 28 61  1  6
 29 30  1  1
 30 31  1  0
 30 62  1  0
 30 63  1  0
 31 32  1  0
 31 33  1  1
 32 64  1  0
 32 65  1  0
 32 66  1  0
 33 67  1  0
M  END
>  <i_m_ct_stereo_status>  (211) 
1

>  <s_m_source_file>  (211) 
/var/tmp/pbs.5076255.sched01/tmpn8rdt6mw/90ee43ygr2.sdf

>  <i_m_source_file_index>  (211) 
1

>  <i_lp_mmshare_version>  (211) 
48012

>  <i_f3d_flags>  (211) 
0

>  <s_epik_input>  (211) 
W0NIMl0xQyg9TylbQ0BASF0yQyg9W0NIMl0pQyg9TylPW0NAQEhdKFtDQEBdKFtDSDJdMykoW0NIM10pW09IXSlbQ0BASF0oW09IXSlbQ0BAXShbQ0gzXSkoW0NAQEhdNFtDSDJdNSlbQ0BIXTFbQ0BdMzRbQ0BASF0yW0NASF0oW0NAXTU2NylbQ0gyXVtDSF09QzZbQ0hdPUMoW0NIM10pW0NIMl1bQ0gyXTc=

>  <s_epik_cmdline>  (211) 
J2VwaWtfcHl0aG9uJywgJy1waHQnLCAnMi4wJywgJy1waCcsICc3LjAnLCAnLXRuJywgJzgnLCAnLW1hJywgJzIwMCcsICctaW1hZScsICc8aW5maWxlLm1hZT4nLCAnLW9tYWUnLCAnPG91dGZpbGUubWFlPic=

>  <r_lp_tautomer_probability>  (211) 
1

>  <r_epik_Ionization_Penalty>  (211) 
8.87584e-08

>  <r_epik_Ionization_Penalty_Charging>  (211) 
0

>  <r_epik_Ionization_Penalty_Neutral>  (211) 
8.87584e-08

>  <r_epik_State_Penalty>  (211) 
-0

>  <r_epik_Charging_Adjusted_Penalty>  (211) 
0

>  <i_epik_Tot_Q>  (211) 
0

>  <i_epik_Tot_abs_Q>  (211) 
0

>  <s_epik_Chemistry_Notes>  (211) 
This compound has an ester and may undergo hydrolysis at high or low pH.

>  <s_lp_Force_Field>  (211) 
OPLS3e

>  <r_lp_Energy>  (211) 
152.809

>  <b_lp_Chiralities_Consistent>  (211) 
1

>  <s_lp_Variant>  (211) 
55:0-1

>  <s_i_glide_gridfile>  (211) 
pfpi4k_grid

>  <i_i_glide_lignum>  (211) 
1

>  <i_i_glide_rotatable_bonds>  (211) 
2

>  <r_i_docking_score>  (211) 
-2.16136

>  <r_i_glide_ligand_efficiency>  (211) 
-0.0654957

>  <r_i_glide_ligand_efficiency_sa>  (211) 
-0.21008

>  <r_i_glide_ligand_efficiency_ln>  (211) 
-0.480675

>  <r_i_glide_gscore>  (211) 
-2.16136

>  <r_i_glide_lipo>  (211) 
-0.362153

>  <r_i_glide_hbond>  (211) 
0

>  <r_i_glide_metal>  (211) 
-0

>  <r_i_glide_rewards>  (211) 
-0.337046

>  <r_i_glide_evdw>  (211) 
-26.313

>  <r_i_glide_ecoul>  (211) 
-0.976734

>  <r_i_glide_erotb>  (211) 
0

>  <r_i_glide_esite>  (211) 
0

>  <r_i_glide_emodel>  (211) 
-30.5851

>  <r_i_glide_energy>  (211) 
-27.2897

>  <r_i_glide_einternal>  (211) 
0.454438

>  <r_i_glide_intrahb_reward>  (211) 
-0

>  <i_i_glide_confnum>  (211) 
1

>  <i_i_glide_posenum>  (211) 
2

>  <r_i_glide_eff_state_penalty>  (211) 
0

>  <ligand_id>  (211) 
55

>  <original_smiles>  (211) 
C=C1C(=O)OC2C(O)C3(C)C4CC(=O)C1C1C5CC=C6C=C(C)CCC65CC3C14CC2(C)O

>  <smiles>  (211) 
[H]OC1([H])C2([H])OC(=O)C(=C([H])[H])C3([H])C(=O)C([H])([H])C4([H])C1(C([H])([H])[H])C1([H])C([H])([H])C56C(=C([H])C([H])([H])C5([H])C3([H])C41C([H])([H])C2(O[H])C([H])([H])[H])C([H])=C(C([H])([H])[H])C([H])([H])C6([H])[H]

$$$$
56:0:0
     RDKit          3D

 55 60  0  0  1  0  0  0  0  0999 V2000
    2.6197   -5.7567    5.7597 C   0  0  0  0  0  0  0  0  0  0  0  0
    3.7246   -5.4412    4.7468 C   0  0  0  0  0  0  0  0  0  0  0  0
    4.9807   -6.3028    4.9374 C   0  0  0  0  0  0  0  0  0  0  0  0
    3.2075   -5.6545    3.4744 O   0  0  0  0  0  0  0  0  0  0  0  0
    3.4209   -4.5440    2.7254 C   0  0  0  0  0  0  0  0  0  0  0  0
    2.9019   -4.3967    1.4945 C   0  0  0  0  0  0  0  0  0  0  0  0
    3.0425   -3.1916    0.5838 C   0  0  1  0  0  0  0  0  0  0  0  0
    4.1858   -2.2121    0.9285 C   0  0  1  0  0  0  0  0  0  0  0  0
    4.3767   -1.4989   -0.4344 C   0  0  1  0  0  0  0  0  0  0  0  0
    5.6128   -0.8265   -0.5529 O   0  0  0  0  0  0  0  0  0  0  0  0
    4.2503   -2.5914   -1.5227 C   0  0  1  0  0  0  0  0  0  0  0  0
    5.5871   -3.3048   -1.8497 C   0  0  0  0  0  0  0  0  0  0  0  0
    3.2502   -3.5957   -0.8933 C   0  0  2  0  0  0  0  0  0  0  0  0
    1.9496   -3.5833   -1.7404 C   0  0  0  0  0  0  0  0  0  0  0  0
    2.2409   -2.7577   -2.9591 C   0  0  2  0  0  0  0  0  0  0  0  0
    3.3469   -3.1457   -3.7933 O   0  0  0  0  0  0  0  0  0  0  0  0
    3.5724   -2.1276   -2.8074 C   0  0  2  0  0  0  0  0  0  0  0  0
    3.9340   -0.7732   -3.3793 C   0  0  0  0  0  0  0  0  0  0  0  0
    3.9413   -1.3039    2.2003 C   0  0  1  0  0  0  0  0  0  0  0  0
    5.0694   -0.2680    2.3812 C   0  0  0  0  0  0  0  0  0  0  0  0
    2.6053   -0.5445    2.1403 C   0  0  0  0  0  0  0  0  0  0  0  0
    2.3948    0.3610    1.3316 O   0  0  0  0  0  0  0  0  0  0  0  0
    1.6865   -1.0029    3.1752 C   0  0  0  0  0  0  0  0  0  0  0  0
    2.3357   -1.8832    3.9440 C   0  0  0  0  0  0  0  0  0  0  0  0
    3.7749   -2.1058    3.5353 C   0  0  1  0  0  0  0  0  0  0  0  0
    4.2161   -3.5869    3.5668 C   0  0  1  0  0  0  0  0  0  0  0  0
    4.0808   -4.0985    4.8809 O   0  0  0  0  0  0  0  0  0  0  0  0
    1.7482   -5.1305    5.5658 H   0  0  0  0  0  0  0  0  0  0  0  0
    2.9720   -5.5759    6.7769 H   0  0  0  0  0  0  0  0  0  0  0  0
    2.3251   -6.8009    5.6661 H   0  0  0  0  0  0  0  0  0  0  0  0
    5.7327   -6.0466    4.1928 H   0  0  0  0  0  0  0  0  0  0  0  0
    4.7295   -7.3589    4.8439 H   0  0  0  0  0  0  0  0  0  0  0  0
    5.3994   -6.1227    5.9304 H   0  0  0  0  0  0  0  0  0  0  0  0
    2.3149   -5.2041    1.0904 H   0  0  0  0  0  0  0  0  0  0  0  0
    2.0970   -2.6577    0.6455 H   0  0  0  0  0  0  0  0  0  0  0  0
    5.0923   -2.7982    1.0998 H   0  0  0  0  0  0  0  0  0  0  0  0
    3.5773   -0.7737   -0.5822 H   0  0  0  0  0  0  0  0  0  0  0  0
    5.4484    0.0872   -0.3555 H   0  0  0  0  0  0  0  0  0  0  0  0
    5.4183   -4.1555   -2.5121 H   0  0  0  0  0  0  0  0  0  0  0  0
    6.0710   -3.6900   -0.9503 H   0  0  0  0  0  0  0  0  0  0  0  0
    6.2963   -2.6491   -2.3556 H   0  0  0  0  0  0  0  0  0  0  0  0
    3.6849   -4.5955   -0.9262 H   0  0  0  0  0  0  0  0  0  0  0  0
    1.6276   -4.5822   -2.0193 H   0  0  0  0  0  0  0  0  0  0  0  0
    1.0998   -3.1591   -1.2173 H   0  0  0  0  0  0  0  0  0  0  0  0
    1.4163   -2.2657   -3.4633 H   0  0  0  0  0  0  0  0  0  0  0  0
    3.6475    0.0417   -2.7191 H   0  0  0  0  0  0  0  0  0  0  0  0
    3.4236   -0.6236   -4.3300 H   0  0  0  0  0  0  0  0  0  0  0  0
    5.0037   -0.7269   -3.5481 H   0  0  0  0  0  0  0  0  0  0  0  0
    6.0508   -0.7384    2.4523 H   0  0  0  0  0  0  0  0  0  0  0  0
    4.9197    0.3260    3.2840 H   0  0  0  0  0  0  0  0  0  0  0  0
    5.0905    0.4379    1.5570 H   0  0  0  0  0  0  0  0  0  0  0  0
    0.6701   -0.6591    3.2973 H   0  0  0  0  0  0  0  0  0  0  0  0
    4.3689   -1.6164    4.3084 H   0  0  0  0  0  0  0  0  0  0  0  0
    1.9224   -2.3657    4.8175 H   0  0  0  0  0  0  0  0  0  0  0  0
    5.2659   -3.6757    3.2718 H   0  0  0  0  0  0  0  0  0  0  0  0
  1  2  1  0
  1 28  1  0
  1 29  1  0
  1 30  1  0
  2 27  1  0
  2  3  1  0
  2  4  1  0
  3 31  1  0
  3 32  1  0
  3 33  1  0
  4  5  1  0
  5 26  1  0
  5  6  2  0
  6  7  1  0
  6 34  1  0
  7 13  1  0
  7  8  1  0
  7 35  1  6
  8  9  1  0
  8 36  1  1
  8 19  1  0
  9 10  1  0
  9 11  1  0
  9 37  1  6
 10 38  1  0
 11 17  1  0
 11 12  1  6
 11 13  1  0
 12 39  1  0
 12 40  1  0
 12 41  1  0
 13 14  1  0
 13 42  1  1
 14 15  1  0
 14 43  1  0
 14 44  1  0
 15 17  1  0
 15 16  1  0
 15 45  1  6
 16 17  1  0
 17 18  1  6
 18 46  1  0
 18 47  1  0
 18 48  1  0
 19 25  1  0
 19 20  1  1
 19 21  1  0
 20 49  1  0
 20 50  1  0
 20 51  1  0
 21 22  2  0
 21 23  1  0
 23 24  2  0
 23 52  1  0
 24 54  1  0
 24 25  1  0
 25 26  1  0
 25 53  1  1
 26 27  1  0
 26 55  1  6
M  END
>  <i_m_ct_stereo_status>  (212) 
1

>  <s_m_source_file>  (212) 
/var/tmp/pbs.5076255.sched01/tmpn8rdt6mw/90ee43ygr2.sdf

>  <i_m_source_file_index>  (212) 
2

>  <i_lp_mmshare_version>  (212) 
48012

>  <i_f3d_flags>  (212) 
0

>  <s_epik_input>  (212) 
W0NIM11DKE8xKShbQ0gzXSlPQyg9W0NIXTIpW0NASF0xQyg9W0NIXVtDSDJdQzM9TylbQ0BAXTMoW0NIM10pW0NASF0oW0NASF00W09IXSlbQ0BIXTJbQ0BIXShbQ0BdNDVbQ0gzXSlbQ0gyXVtDQEhdNltDQEBdNShPNilbQ0gzXQ==

>  <s_epik_cmdline>  (212) 
J2VwaWtfcHl0aG9uJywgJy1waHQnLCAnMi4wJywgJy1waCcsICc3LjAnLCAnLXRuJywgJzgnLCAnLW1hJywgJzIwMCcsICctaW1hZScsICc8aW5maWxlLm1hZT4nLCAnLW9tYWUnLCAnPG91dGZpbGUubWFlPic=

>  <r_lp_tautomer_probability>  (212) 
1

>  <r_epik_Ionization_Penalty>  (212) 
9.34297e-08

>  <r_epik_Ionization_Penalty_Charging>  (212) 
0

>  <r_epik_Ionization_Penalty_Neutral>  (212) 
9.34297e-08

>  <r_epik_State_Penalty>  (212) 
-0

>  <r_epik_Charging_Adjusted_Penalty>  (212) 
0

>  <i_epik_Tot_Q>  (212) 
0

>  <i_epik_Tot_abs_Q>  (212) 
0

>  <s_lp_Force_Field>  (212) 
OPLS3e

>  <r_lp_Energy>  (212) 
12.9273

>  <b_lp_Chiralities_Consistent>  (212) 
1

>  <s_lp_Variant>  (212) 
56:0-1

>  <s_i_glide_gridfile>  (212) 
pfpi4k_grid

>  <i_i_glide_lignum>  (212) 
2

>  <i_i_glide_rotatable_bonds>  (212) 
1

>  <r_i_docking_score>  (212) 
-3.65743

>  <r_i_glide_ligand_efficiency>  (212) 
-0.13546

>  <r_i_glide_ligand_efficiency_sa>  (212) 
-0.406381

>  <r_i_glide_ligand_efficiency_ln>  (212) 
-0.851389

>  <r_i_glide_gscore>  (212) 
-3.65743

>  <r_i_glide_lipo>  (212) 
-0.628696

>  <r_i_glide_hbond>  (212) 
-0.275847

>  <r_i_glide_metal>  (212) 
-0

>  <r_i_glide_rewards>  (212) 
-0.869627

>  <r_i_glide_evdw>  (212) 
-25.6208

>  <r_i_glide_ecoul>  (212) 
-3.8229

>  <r_i_glide_erotb>  (212) 
0

>  <r_i_glide_esite>  (212) 
-0.0287818

>  <r_i_glide_emodel>  (212) 
-34.5136

>  <r_i_glide_energy>  (212) 
-29.4437

>  <r_i_glide_einternal>  (212) 
1.18177

>  <r_i_glide_intrahb_reward>  (212) 
-0

>  <i_i_glide_confnum>  (212) 
2

>  <i_i_glide_posenum>  (212) 
15

>  <r_i_glide_eff_state_penalty>  (212) 
0

>  <ligand_id>  (212) 
56

>  <original_smiles>  (212) 
CC1(C)OC2=CC3C(C(O)C4(C)C3CC3OC34C)C3(C)C(=O)CC=C3C2O1

>  <smiles>  (212) 
[H]OC1([H])C2([H])C([H])(C([H])=C3OC(C([H])([H])[H])(C([H])([H])[H])OC3([H])C3([H])C([H])=C([H])C(=O)C32C([H])([H])[H])C2([H])C([H])([H])C3([H])OC3(C([H])([H])[H])C12C([H])([H])[H]

$$$$
56:0:1
     RDKit          3D

 55 60  0  0  1  0  0  0  0  0999 V2000
    2.0551   -8.0075    3.9245 C   0  0  0  0  0  0  0  0  0  0  0  0
    3.2962   -7.3738    3.2872 C   0  0  0  0  0  0  0  0  0  0  0  0
    4.5421   -8.2676    3.3848 C   0  0  0  0  0  0  0  0  0  0  0  0
    2.9979   -7.1316    1.9452 O   0  0  0  0  0  0  0  0  0  0  0  0
    3.2959   -5.8350    1.6630 C   0  0  0  0  0  0  0  0  0  0  0  0
    2.9753   -5.2512    0.5046 C   0  0  0  0  0  0  0  0  0  0  0  0
    3.2100   -3.8012    0.1044 C   0  0  1  0  0  0  0  0  0  0  0  0
    4.2374   -3.0223    0.9548 C   0  0  1  0  0  0  0  0  0  0  0  0
    4.6210   -1.8893   -0.0252 C   0  0  1  0  0  0  0  0  0  0  0  0
    5.8442   -1.2694    0.3095 O   0  0  0  0  0  0  0  0  0  0  0  0
    4.7203   -2.5388   -1.4334 C   0  0  1  0  0  0  0  0  0  0  0  0
    6.1278   -3.1104   -1.7538 C   0  0  0  0  0  0  0  0  0  0  0  0
    3.6880   -3.6727   -1.3586 C   0  0  2  0  0  0  0  0  0  0  0  0
    2.5319   -3.3897   -2.3771 C   0  0  0  0  0  0  0  0  0  0  0  0
    2.9718   -2.2065   -3.1687 C   0  0  2  0  0  0  0  0  0  0  0  0
    4.2019   -2.2947   -3.9079 O   0  0  0  0  0  0  0  0  0  0  0  0
    4.2183   -1.6992   -2.5936 C   0  0  2  0  0  0  0  0  0  0  0  0
    4.6050   -0.2773   -2.5980 C   0  0  0  0  0  0  0  0  0  0  0  0
    3.7556   -2.6008    2.3947 C   0  0  1  0  0  0  0  0  0  0  0  0
    4.7864   -1.7056    3.1184 C   0  0  0  0  0  0  0  0  0  0  0  0
    2.4058   -1.8699    2.3756 C   0  0  0  0  0  0  0  0  0  0  0  0
    2.2914   -0.7505    1.8906 O   0  0  0  0  0  0  0  0  0  0  0  0
    1.3658   -2.6238    3.0636 C   0  0  0  0  0  0  0  0  0  0  0  0
    1.9186   -3.7301    3.5493 C   0  0  0  0  0  0  0  0  0  0  0  0
    3.4124   -3.8149    3.3215 C   0  0  1  0  0  0  0  0  0  0  0  0
    3.8881   -5.2357    2.9182 C   0  0  1  0  0  0  0  0  0  0  0  0
    3.5721   -6.1652    3.9420 O   0  0  0  0  0  0  0  0  0  0  0  0
    1.1982   -7.3398    3.8142 H   0  0  0  0  0  0  0  0  0  0  0  0
    2.2267   -8.1943    4.9861 H   0  0  0  0  0  0  0  0  0  0  0  0
    1.8260   -8.9547    3.4309 H   0  0  0  0  0  0  0  0  0  0  0  0
    5.3951   -7.7811    2.9138 H   0  0  0  0  0  0  0  0  0  0  0  0
    4.3605   -9.2231    2.8943 H   0  0  0  0  0  0  0  0  0  0  0  0
    4.7807   -8.4474    4.4344 H   0  0  0  0  0  0  0  0  0  0  0  0
    2.4936   -5.8545   -0.2471 H   0  0  0  0  0  0  0  0  0  0  0  0
    2.2383   -3.3185    0.1738 H   0  0  0  0  0  0  0  0  0  0  0  0
    5.1181   -3.6559    1.0617 H   0  0  0  0  0  0  0  0  0  0  0  0
    3.8297   -1.1410   -0.0417 H   0  0  0  0  0  0  0  0  0  0  0  0
    5.7426   -0.8765    1.1628 H   0  0  0  0  0  0  0  0  0  0  0  0
    6.1178   -3.6784   -2.6857 H   0  0  0  0  0  0  0  0  0  0  0  0
    6.4721   -3.7910   -0.9739 H   0  0  0  0  0  0  0  0  0  0  0  0
    6.8780   -2.3320   -1.8733 H   0  0  0  0  0  0  0  0  0  0  0  0
    4.2162   -4.5834   -1.6389 H   0  0  0  0  0  0  0  0  0  0  0  0
    2.3573   -4.1838   -3.1007 H   0  0  0  0  0  0  0  0  0  0  0  0
    1.5704   -3.1687   -1.9039 H   0  0  0  0  0  0  0  0  0  0  0  0
    2.2478   -1.5271   -3.5773 H   0  0  0  0  0  0  0  0  0  0  0  0
    4.2454    0.2064   -1.7064 H   0  0  0  0  0  0  0  0  0  0  0  0
    4.2548    0.2515   -3.4894 H   0  0  0  0  0  0  0  0  0  0  0  0
    5.6684   -0.2113   -2.4426 H   0  0  0  0  0  0  0  0  0  0  0  0
    5.7554   -2.1942    3.1869 H   0  0  0  0  0  0  0  0  0  0  0  0
    4.4518   -1.4741    4.1265 H   0  0  0  0  0  0  0  0  0  0  0  0
    4.9014   -0.7468    2.6292 H   0  0  0  0  0  0  0  0  0  0  0  0
    0.3270   -2.3310    3.1021 H   0  0  0  0  0  0  0  0  0  0  0  0
    3.8432   -3.6473    4.3129 H   0  0  0  0  0  0  0  0  0  0  0  0
    1.3808   -4.4844    4.1019 H   0  0  0  0  0  0  0  0  0  0  0  0
    4.9684   -5.2398    2.8003 H   0  0  0  0  0  0  0  0  0  0  0  0
  1  2  1  0
  1 28  1  0
  1 29  1  0
  1 30  1  0
  2 27  1  0
  2  3  1  0
  2  4  1  0
  3 31  1  0
  3 32  1  0
  3 33  1  0
  4  5  1  0
  5 26  1  0
  5  6  2  0
  6  7  1  0
  6 34  1  0
  7 13  1  0
  7  8  1  0
  7 35  1  6
  8  9  1  0
  8 36  1  1
  8 19  1  0
  9 10  1  0
  9 11  1  0
  9 37  1  6
 10 38  1  0
 11 17  1  0
 11 12  1  6
 11 13  1  0
 12 39  1  0
 12 40  1  0
 12 41  1  0
 13 14  1  0
 13 42  1  6
 14 15  1  0
 14 43  1  0
 14 44  1  0
 15 17  1  0
 15 16  1  0
 15 45  1  6
 16 17  1  0
 17 18  1  6
 18 46  1  0
 18 47  1  0
 18 48  1  0
 19 25  1  0
 19 20  1  1
 19 21  1  0
 20 49  1  0
 20 50  1  0
 20 51  1  0
 21 22  2  0
 21 23  1  0
 23 24  2  0
 23 52  1  0
 24 54  1  0
 24 25  1  0
 25 26  1  0
 25 53  1  1
 26 27  1  0
 26 55  1  6
M  END
>  <i_m_ct_stereo_status>  (213) 
1

>  <s_m_source_file>  (213) 
/var/tmp/pbs.5076255.sched01/tmpn8rdt6mw/90ee43ygr2.sdf

>  <i_m_source_file_index>  (213) 
2

>  <i_lp_mmshare_version>  (213) 
48012

>  <i_f3d_flags>  (213) 
0

>  <s_epik_input>  (213) 
W0NIM11DKE8xKShbQ0gzXSlPQyg9W0NIXTIpW0NASF0xQyg9W0NIXVtDSDJdQzM9TylbQ0BAXTMoW0NIM10pW0NASF0oW0NASF00W09IXSlbQ0BIXTJbQ0BIXShbQ0BdNDVbQ0gzXSlbQ0gyXVtDQEhdNltDQEBdNShPNilbQ0gzXQ==

>  <s_epik_cmdline>  (213) 
J2VwaWtfcHl0aG9uJywgJy1waHQnLCAnMi4wJywgJy1waCcsICc3LjAnLCAnLXRuJywgJzgnLCAnLW1hJywgJzIwMCcsICctaW1hZScsICc8aW5maWxlLm1hZT4nLCAnLW9tYWUnLCAnPG91dGZpbGUubWFlPic=

>  <r_lp_tautomer_probability>  (213) 
1

>  <r_epik_Ionization_Penalty>  (213) 
9.34297e-08

>  <r_epik_Ionization_Penalty_Charging>  (213) 
0

>  <r_epik_Ionization_Penalty_Neutral>  (213) 
9.34297e-08

>  <r_epik_State_Penalty>  (213) 
-0

>  <r_epik_Charging_Adjusted_Penalty>  (213) 
0

>  <i_epik_Tot_Q>  (213) 
0

>  <i_epik_Tot_abs_Q>  (213) 
0

>  <s_lp_Force_Field>  (213) 
OPLS3e

>  <r_lp_Energy>  (213) 
12.9273

>  <b_lp_Chiralities_Consistent>  (213) 
1

>  <s_lp_Variant>  (213) 
56:0-1

>  <s_i_glide_gridfile>  (213) 
pfpi4k_grid

>  <i_i_glide_lignum>  (213) 
2

>  <i_i_glide_rotatable_bonds>  (213) 
1

>  <r_i_docking_score>  (213) 
-3.17895

>  <r_i_glide_ligand_efficiency>  (213) 
-0.117739

>  <r_i_glide_ligand_efficiency_sa>  (213) 
-0.353216

>  <r_i_glide_ligand_efficiency_ln>  (213) 
-0.740007

>  <r_i_glide_gscore>  (213) 
-3.17895

>  <r_i_glide_lipo>  (213) 
-0.453035

>  <r_i_glide_hbond>  (213) 
-0.159872

>  <r_i_glide_metal>  (213) 
-0

>  <r_i_glide_rewards>  (213) 
-0.869627

>  <r_i_glide_evdw>  (213) 
-22.6449

>  <r_i_glide_ecoul>  (213) 
-3.67389

>  <r_i_glide_erotb>  (213) 
0

>  <r_i_glide_esite>  (213) 
-0.0130835

>  <r_i_glide_emodel>  (213) 
-31.1973

>  <r_i_glide_energy>  (213) 
-26.3188

>  <r_i_glide_einternal>  (213) 
0.323817

>  <r_i_glide_intrahb_reward>  (213) 
-0

>  <i_i_glide_confnum>  (213) 
2

>  <i_i_glide_posenum>  (213) 
3

>  <r_i_glide_eff_state_penalty>  (213) 
0

>  <ligand_id>  (213) 
56

>  <original_smiles>  (213) 
CC1(C)OC2=CC3C(C(O)C4(C)C3CC3OC34C)C3(C)C(=O)CC=C3C2O1

>  <smiles>  (213) 
[H]OC1([H])C2([H])C([H])(C([H])=C3OC(C([H])([H])[H])(C([H])([H])[H])OC3([H])C3([H])C([H])=C([H])C(=O)C32C([H])([H])[H])C2([H])C([H])([H])C3([H])OC3(C([H])([H])[H])C12C([H])([H])[H]

$$$$
56:0:2
     RDKit          3D

 55 60  0  0  1  0  0  0  0  0999 V2000
    2.5631   -5.5522    5.9441 C   0  0  0  0  0  0  0  0  0  0  0  0
    3.6600   -5.3399    4.8954 C   0  0  0  0  0  0  0  0  0  0  0  0
    4.8682   -6.2660    5.0923 C   0  0  0  0  0  0  0  0  0  0  0  0
    3.1017   -5.5684    3.6457 O   0  0  0  0  0  0  0  0  0  0  0  0
    3.3600   -4.5017    2.8488 C   0  0  0  0  0  0  0  0  0  0  0  0
    2.8227   -4.3688    1.6276 C   0  0  0  0  0  0  0  0  0  0  0  0
    3.0085   -3.2091    0.6652 C   0  0  1  0  0  0  0  0  0  0  0  0
    4.2169   -2.2834    0.9460 C   0  0  1  0  0  0  0  0  0  0  0  0
    4.4343   -1.6279   -0.4451 C   0  0  1  0  0  0  0  0  0  0  0  0
    5.7292   -1.0685   -0.5960 O   0  0  0  0  0  0  0  0  0  0  0  0
    4.2081   -2.7581   -1.4810 C   0  0  1  0  0  0  0  0  0  0  0  0
    5.4832   -3.5605   -1.8146 C   0  0  0  0  0  0  0  0  0  0  0  0
    3.1665   -3.6901   -0.7931 C   0  0  2  0  0  0  0  0  0  0  0  0
    1.8606   -3.6636   -1.6379 C   0  0  0  0  0  0  0  0  0  0  0  0
    2.1945   -2.8966   -2.8868 C   0  0  2  0  0  0  0  0  0  0  0  0
    3.2681   -3.3604   -3.7205 O   0  0  0  0  0  0  0  0  0  0  0  0
    3.5453   -2.3134   -2.7745 C   0  0  2  0  0  0  0  0  0  0  0  0
    3.9413   -0.9960   -3.4001 C   0  0  0  0  0  0  0  0  0  0  0  0
    4.0546   -1.3197    2.1866 C   0  0  1  0  0  0  0  0  0  0  0  0
    5.2445   -0.3466    2.3025 C   0  0  0  0  0  0  0  0  0  0  0  0
    2.7600   -0.4866    2.1270 C   0  0  0  0  0  0  0  0  0  0  0  0
    2.5748    0.3925    1.2856 O   0  0  0  0  0  0  0  0  0  0  0  0
    1.8436   -0.8500    3.2014 C   0  0  0  0  0  0  0  0  0  0  0  0
    2.4618   -1.7364    3.9885 C   0  0  0  0  0  0  0  0  0  0  0  0
    3.8750   -2.0602    3.5567 C   0  0  1  0  0  0  0  0  0  0  0  0
    4.2295   -3.5624    3.6354 C   0  0  1  0  0  0  0  0  0  0  0  0
    4.0971   -4.0168    4.9707 O   0  0  0  0  0  0  0  0  0  0  0  0
    1.7246   -4.8836    5.7447 H   0  0  0  0  0  0  0  0  0  0  0  0
    2.9498   -5.3547    6.9446 H   0  0  0  0  0  0  0  0  0  0  0  0
    2.2062   -6.5806    5.8970 H   0  0  0  0  0  0  0  0  0  0  0  0
    5.6152   -6.0825    4.3214 H   0  0  0  0  0  0  0  0  0  0  0  0
    4.5542   -7.3082    5.0448 H   0  0  0  0  0  0  0  0  0  0  0  0
    5.3201   -6.0738    6.0674 H   0  0  0  0  0  0  0  0  0  0  0  0
    2.1792   -5.1575    1.2699 H   0  0  0  0  0  0  0  0  0  0  0  0
    2.0937   -2.6233    0.7220 H   0  0  0  0  0  0  0  0  0  0  0  0
    5.0836   -2.9223    1.1284 H   0  0  0  0  0  0  0  0  0  0  0  0
    3.6818   -0.8573   -0.6047 H   0  0  0  0  0  0  0  0  0  0  0  0
    6.3364   -1.6707   -0.1924 H   0  0  0  0  0  0  0  0  0  0  0  0
    5.2425   -4.4216   -2.4413 H   0  0  0  0  0  0  0  0  0  0  0  0
    5.9637   -3.9457   -0.9151 H   0  0  0  0  0  0  0  0  0  0  0  0
    6.2113   -2.9674   -2.3681 H   0  0  0  0  0  0  0  0  0  0  0  0
    3.5498   -4.7110   -0.7760 H   0  0  0  0  0  0  0  0  0  0  0  0
    1.4777   -4.6542   -1.8907 H   0  0  0  0  0  0  0  0  0  0  0  0
    1.0406   -3.1588   -1.1381 H   0  0  0  0  0  0  0  0  0  0  0  0
    1.4111   -2.3498   -3.3913 H   0  0  0  0  0  0  0  0  0  0  0  0
    3.7183   -0.1517   -2.7494 H   0  0  0  0  0  0  0  0  0  0  0  0
    3.4075   -0.8521   -4.3370 H   0  0  0  0  0  0  0  0  0  0  0  0
    5.0071   -1.0162   -3.6125 H   0  0  0  0  0  0  0  0  0  0  0  0
    6.1995   -0.8664    2.3755 H   0  0  0  0  0  0  0  0  0  0  0  0
    5.1491    0.2926    3.1809 H   0  0  0  0  0  0  0  0  0  0  0  0
    5.2919    0.3224    1.4477 H   0  0  0  0  0  0  0  0  0  0  0  0
    0.8529   -0.4438    3.3341 H   0  0  0  0  0  0  0  0  0  0  0  0
    4.5162   -1.5776    4.2958 H   0  0  0  0  0  0  0  0  0  0  0  0
    2.0446   -2.1628    4.8873 H   0  0  0  0  0  0  0  0  0  0  0  0
    5.2647   -3.7251    3.3230 H   0  0  0  0  0  0  0  0  0  0  0  0
  1  2  1  0
  1 28  1  0
  1 29  1  0
  1 30  1  0
  2 27  1  0
  2  3  1  0
  2  4  1  0
  3 31  1  0
  3 32  1  0
  3 33  1  0
  4  5  1  0
  5 26  1  0
  5  6  2  0
  6  7  1  0
  6 34  1  0
  7 13  1  0
  7  8  1  0
  7 35  1  6
  8  9  1  0
  8 36  1  1
  8 19  1  0
  9 10  1  0
  9 11  1  0
  9 37  1  6
 10 38  1  0
 11 17  1  0
 11 12  1  6
 11 13  1  0
 12 39  1  0
 12 40  1  0
 12 41  1  0
 13 14  1  0
 13 42  1  1
 14 15  1  0
 14 43  1  0
 14 44  1  0
 15 17  1  0
 15 16  1  0
 15 45  1  6
 16 17  1  0
 17 18  1  6
 18 46  1  0
 18 47  1  0
 18 48  1  0
 19 25  1  0
 19 20  1  1
 19 21  1  0
 20 49  1  0
 20 50  1  0
 20 51  1  0
 21 22  2  0
 21 23  1  0
 23 24  2  0
 23 52  1  0
 24 54  1  0
 24 25  1  0
 25 26  1  0
 25 53  1  1
 26 27  1  0
 26 55  1  6
M  END
>  <i_m_ct_stereo_status>  (214) 
1

>  <s_m_source_file>  (214) 
/var/tmp/pbs.5076255.sched01/tmpn8rdt6mw/90ee43ygr2.sdf

>  <i_m_source_file_index>  (214) 
2

>  <i_lp_mmshare_version>  (214) 
48012

>  <i_f3d_flags>  (214) 
0

>  <s_epik_input>  (214) 
W0NIM11DKE8xKShbQ0gzXSlPQyg9W0NIXTIpW0NASF0xQyg9W0NIXVtDSDJdQzM9TylbQ0BAXTMoW0NIM10pW0NASF0oW0NASF00W09IXSlbQ0BIXTJbQ0BIXShbQ0BdNDVbQ0gzXSlbQ0gyXVtDQEhdNltDQEBdNShPNilbQ0gzXQ==

>  <s_epik_cmdline>  (214) 
J2VwaWtfcHl0aG9uJywgJy1waHQnLCAnMi4wJywgJy1waCcsICc3LjAnLCAnLXRuJywgJzgnLCAnLW1hJywgJzIwMCcsICctaW1hZScsICc8aW5maWxlLm1hZT4nLCAnLW9tYWUnLCAnPG91dGZpbGUubWFlPic=

>  <r_lp_tautomer_probability>  (214) 
1

>  <r_epik_Ionization_Penalty>  (214) 
9.34297e-08

>  <r_epik_Ionization_Penalty_Charging>  (214) 
0

>  <r_epik_Ionization_Penalty_Neutral>  (214) 
9.34297e-08

>  <r_epik_State_Penalty>  (214) 
-0

>  <r_epik_Charging_Adjusted_Penalty>  (214) 
0

>  <i_epik_Tot_Q>  (214) 
0

>  <i_epik_Tot_abs_Q>  (214) 
0

>  <s_lp_Force_Field>  (214) 
OPLS3e

>  <r_lp_Energy>  (214) 
12.9273

>  <b_lp_Chiralities_Consistent>  (214) 
1

>  <s_lp_Variant>  (214) 
56:0-1

>  <s_i_glide_gridfile>  (214) 
pfpi4k_grid

>  <i_i_glide_lignum>  (214) 
2

>  <i_i_glide_rotatable_bonds>  (214) 
1

>  <r_i_docking_score>  (214) 
-2.8716

>  <r_i_glide_ligand_efficiency>  (214) 
-0.106355

>  <r_i_glide_ligand_efficiency_sa>  (214) 
-0.319066

>  <r_i_glide_ligand_efficiency_ln>  (214) 
-0.66846

>  <r_i_glide_gscore>  (214) 
-2.8716

>  <r_i_glide_lipo>  (214) 
-0.530147

>  <r_i_glide_hbond>  (214) 
-0.0170671

>  <r_i_glide_metal>  (214) 
-0

>  <r_i_glide_rewards>  (214) 
-0.869627

>  <r_i_glide_evdw>  (214) 
-26.7106

>  <r_i_glide_ecoul>  (214) 
-0.62847

>  <r_i_glide_erotb>  (214) 
0

>  <r_i_glide_esite>  (214) 
-0.0249547

>  <r_i_glide_emodel>  (214) 
-31.6732

>  <r_i_glide_energy>  (214) 
-27.3391

>  <r_i_glide_einternal>  (214) 
0.271792

>  <r_i_glide_intrahb_reward>  (214) 
-0

>  <i_i_glide_confnum>  (214) 
2

>  <i_i_glide_posenum>  (214) 
25

>  <r_i_glide_eff_state_penalty>  (214) 
0

>  <ligand_id>  (214) 
56

>  <original_smiles>  (214) 
CC1(C)OC2=CC3C(C(O)C4(C)C3CC3OC34C)C3(C)C(=O)CC=C3C2O1

>  <smiles>  (214) 
[H]OC1([H])C2([H])C([H])(C([H])=C3OC(C([H])([H])[H])(C([H])([H])[H])OC3([H])C3([H])C([H])=C([H])C(=O)C32C([H])([H])[H])C2([H])C([H])([H])C3([H])OC3(C([H])([H])[H])C12C([H])([H])[H]

$$$$
56:1:0
     RDKit          3D

 55 60  0  0  1  0  0  0  0  0999 V2000
    0.2737   -6.7086    3.2381 C   0  0  0  0  0  0  0  0  0  0  0  0
    1.6836   -6.1345    3.3654 C   0  0  0  0  0  0  0  0  0  0  0  0
    2.5099   -6.8202    4.4642 C   0  0  0  0  0  0  0  0  0  0  0  0
    2.2922   -6.2941    2.1182 O   0  0  0  0  0  0  0  0  0  0  0  0
    2.6853   -5.0741    1.6941 C   0  0  0  0  0  0  0  0  0  0  0  0
    2.7758   -4.7856    0.3698 C   0  0  0  0  0  0  0  0  0  0  0  0
    2.8703   -3.4059   -0.2784 C   0  0  1  0  0  0  0  0  0  0  0  0
    3.8349   -2.4392    0.4077 C   0  0  1  0  0  0  0  0  0  0  0  0
    4.1091   -1.4156   -0.6943 C   0  0  1  0  0  0  0  0  0  0  0  0
    5.2515   -0.6528   -0.4139 O   0  0  0  0  0  0  0  0  0  0  0  0
    4.2759   -2.2268   -1.9817 C   0  0  1  0  0  0  0  0  0  0  0  0
    5.7224   -2.7166   -2.2349 C   0  0  0  0  0  0  0  0  0  0  0  0
    3.3578   -3.4390   -1.7480 C   0  0  2  0  0  0  0  0  0  0  0  0
    2.2157   -3.4139   -2.8045 C   0  0  0  0  0  0  0  0  0  0  0  0
    2.5335   -2.3031   -3.7318 C   0  0  2  0  0  0  0  0  0  0  0  0
    3.7909   -2.3781   -4.4092 O   0  0  0  0  0  0  0  0  0  0  0  0
    3.6954   -1.5876   -3.2316 C   0  0  2  0  0  0  0  0  0  0  0  0
    3.9180   -0.1360   -3.4591 C   0  0  0  0  0  0  0  0  0  0  0  0
    3.4439   -1.9096    1.8373 C   0  0  1  0  0  0  0  0  0  0  0  0
    4.7356   -1.9261    2.7041 C   0  0  0  0  0  0  0  0  0  0  0  0
    2.8553   -0.4965    2.0187 C   0  0  0  0  0  0  0  0  0  0  0  0
    3.2036    0.4688    1.3388 O   0  0  0  0  0  0  0  0  0  0  0  0
    1.9657   -0.4892    3.1900 C   0  0  0  0  0  0  0  0  0  0  0  0
    1.6999   -1.7581    3.4978 C   0  0  0  0  0  0  0  0  0  0  0  0
    2.2739   -2.7048    2.4717 C   0  0  2  0  0  0  0  0  0  0  0  0
    2.5928   -4.1520    2.8842 C   0  0  1  0  0  0  0  0  0  0  0  0
    1.5820   -4.7674    3.6572 O   0  0  0  0  0  0  0  0  0  0  0  0
   -0.2384   -6.2211    2.4082 H   0  0  0  0  0  0  0  0  0  0  0  0
   -0.2902   -6.5643    4.1663 H   0  0  0  0  0  0  0  0  0  0  0  0
    0.3292   -7.7751    3.0089 H   0  0  0  0  0  0  0  0  0  0  0  0
    3.5090   -6.3979    4.5200 H   0  0  0  0  0  0  0  0  0  0  0  0
    2.5809   -7.8906    4.2759 H   0  0  0  0  0  0  0  0  0  0  0  0
    2.0189   -6.6681    5.4279 H   0  0  0  0  0  0  0  0  0  0  0  0
    2.6486   -5.6032   -0.3201 H   0  0  0  0  0  0  0  0  0  0  0  0
    1.8714   -2.9837   -0.2827 H   0  0  0  0  0  0  0  0  0  0  0  0
    4.7523   -3.0147    0.5230 H   0  0  0  0  0  0  0  0  0  0  0  0
    3.2400   -0.7751   -0.8171 H   0  0  0  0  0  0  0  0  0  0  0  0
    4.9597    0.0833    0.1146 H   0  0  0  0  0  0  0  0  0  0  0  0
    5.7885   -3.3883   -3.0959 H   0  0  0  0  0  0  0  0  0  0  0  0
    6.1317   -3.2500   -1.3791 H   0  0  0  0  0  0  0  0  0  0  0  0
    6.3780   -1.8772   -2.4035 H   0  0  0  0  0  0  0  0  0  0  0  0
    3.9926   -4.3103   -1.8888 H   0  0  0  0  0  0  0  0  0  0  0  0
    2.2066   -4.2596   -3.4723 H   0  0  0  0  0  0  0  0  0  0  0  0
    1.2257   -3.2706   -2.3679 H   0  0  0  0  0  0  0  0  0  0  0  0
    1.7359   -1.8511   -4.3042 H   0  0  0  0  0  0  0  0  0  0  0  0
    3.4138    0.4717   -2.7333 H   0  0  0  0  0  0  0  0  0  0  0  0
    3.5712    0.1763   -4.4552 H   0  0  0  0  0  0  0  0  0  0  0  0
    4.9776   -0.0111   -3.3070 H   0  0  0  0  0  0  0  0  0  0  0  0
    5.1683   -2.9211    2.8011 H   0  0  0  0  0  0  0  0  0  0  0  0
    4.5588   -1.5461    3.7108 H   0  0  0  0  0  0  0  0  0  0  0  0
    5.5050   -1.2953    2.2621 H   0  0  0  0  0  0  0  0  0  0  0  0
    1.6618    0.3972    3.7255 H   0  0  0  0  0  0  0  0  0  0  0  0
    1.4273   -2.7522    1.7854 H   0  0  0  0  0  0  0  0  0  0  0  0
    1.1066   -2.0966    4.3315 H   0  0  0  0  0  0  0  0  0  0  0  0
    3.5305   -4.2231    3.4356 H   0  0  0  0  0  0  0  0  0  0  0  0
  1  2  1  0
  1 28  1  0
  1 29  1  0
  1 30  1  0
  2 27  1  0
  2  3  1  0
  2  4  1  0
  3 31  1  0
  3 32  1  0
  3 33  1  0
  4  5  1  0
  5 26  1  0
  5  6  2  0
  6  7  1  0
  6 34  1  0
  7 13  1  0
  7  8  1  0
  7 35  1  6
  8  9  1  0
  8 36  1  1
  8 19  1  0
  9 10  1  0
  9 11  1  0
  9 37  1  6
 10 38  1  0
 11 17  1  0
 11 12  1  6
 11 13  1  0
 12 39  1  0
 12 40  1  0
 12 41  1  0
 13 14  1  0
 13 42  1  1
 14 15  1  0
 14 43  1  0
 14 44  1  0
 15 17  1  0
 15 16  1  0
 15 45  1  6
 16 17  1  0
 17 18  1  6
 18 46  1  0
 18 47  1  0
 18 48  1  0
 19 25  1  0
 19 20  1  1
 19 21  1  0
 20 49  1  0
 20 50  1  0
 20 51  1  0
 21 22  2  0
 21 23  1  0
 23 24  2  0
 23 52  1  0
 24 54  1  0
 24 25  1  0
 25 26  1  0
 25 53  1  6
 26 27  1  0
 26 55  1  1
M  END
>  <i_m_ct_stereo_status>  (215) 
1

>  <s_m_source_file>  (215) 
/var/tmp/pbs.5076255.sched01/tmpn8rdt6mw/90ee43ygr2.sdf

>  <i_m_source_file_index>  (215) 
3

>  <i_lp_mmshare_version>  (215) 
48012

>  <i_f3d_flags>  (215) 
0

>  <s_epik_input>  (215) 
W0NIM11DKE8xKShbQ0gzXSlPQyg9W0NIXTIpW0NASF0xQyg9W0NIXVtDSDJdQzM9TylbQ0BAXTMoW0NIM10pW0NASF0oW0NASF00W09IXSlbQ0BIXTJbQ0BIXShbQ0BdNDVbQ0gzXSlbQ0gyXVtDQEhdNltDQEBdNShPNilbQ0gzXQ==

>  <s_epik_cmdline>  (215) 
J2VwaWtfcHl0aG9uJywgJy1waHQnLCAnMi4wJywgJy1waCcsICc3LjAnLCAnLXRuJywgJzgnLCAnLW1hJywgJzIwMCcsICctaW1hZScsICc8aW5maWxlLm1hZT4nLCAnLW9tYWUnLCAnPG91dGZpbGUubWFlPic=

>  <r_lp_tautomer_probability>  (215) 
1

>  <r_epik_Ionization_Penalty>  (215) 
9.34297e-08

>  <r_epik_Ionization_Penalty_Charging>  (215) 
0

>  <r_epik_Ionization_Penalty_Neutral>  (215) 
9.34297e-08

>  <r_epik_State_Penalty>  (215) 
-0

>  <r_epik_Charging_Adjusted_Penalty>  (215) 
0

>  <i_epik_Tot_Q>  (215) 
0

>  <i_epik_Tot_abs_Q>  (215) 
0

>  <s_lp_Force_Field>  (215) 
OPLS3e

>  <r_lp_Energy>  (215) 
24.8255

>  <b_lp_Chiralities_Consistent>  (215) 
1

>  <s_lp_Variant>  (215) 
56:0-2

>  <s_i_glide_gridfile>  (215) 
pfpi4k_grid

>  <i_i_glide_lignum>  (215) 
3

>  <i_i_glide_rotatable_bonds>  (215) 
1

>  <r_i_docking_score>  (215) 
-4.61151

>  <r_i_glide_ligand_efficiency>  (215) 
-0.170796

>  <r_i_glide_ligand_efficiency_sa>  (215) 
-0.512389

>  <r_i_glide_ligand_efficiency_ln>  (215) 
-1.07348

>  <r_i_glide_gscore>  (215) 
-4.61151

>  <r_i_glide_lipo>  (215) 
-0.876678

>  <r_i_glide_hbond>  (215) 
-0.32

>  <r_i_glide_metal>  (215) 
-0

>  <r_i_glide_rewards>  (215) 
-1.36963

>  <r_i_glide_evdw>  (215) 
-24.3008

>  <r_i_glide_ecoul>  (215) 
-5.28508

>  <r_i_glide_erotb>  (215) 
0

>  <r_i_glide_esite>  (215) 
-0.0373987

>  <r_i_glide_emodel>  (215) 
-42.0468

>  <r_i_glide_energy>  (215) 
-29.5859

>  <r_i_glide_einternal>  (215) 
0.664895

>  <r_i_glide_intrahb_reward>  (215) 
-0.5

>  <i_i_glide_confnum>  (215) 
1

>  <i_i_glide_posenum>  (215) 
5

>  <r_i_glide_eff_state_penalty>  (215) 
0

>  <ligand_id>  (215) 
56

>  <original_smiles>  (215) 
CC1(C)OC2=CC3C(C(O)C4(C)C3CC3OC34C)C3(C)C(=O)CC=C3C2O1

>  <smiles>  (215) 
[H]OC1([H])C2([H])C([H])(C([H])=C3OC(C([H])([H])[H])(C([H])([H])[H])OC3([H])C3([H])C([H])=C([H])C(=O)C32C([H])([H])[H])C2([H])C([H])([H])C3([H])OC3(C([H])([H])[H])C12C([H])([H])[H]

$$$$
56:1:1
     RDKit          3D

 55 60  0  0  1  0  0  0  0  0999 V2000
    0.2602   -6.6398    3.3083 C   0  0  0  0  0  0  0  0  0  0  0  0
    1.6675   -6.0555    3.4371 C   0  0  0  0  0  0  0  0  0  0  0  0
    2.4884   -6.7231    4.5491 C   0  0  0  0  0  0  0  0  0  0  0  0
    2.2839   -6.2294    2.1956 O   0  0  0  0  0  0  0  0  0  0  0  0
    2.6768   -5.0118    1.7512 C   0  0  0  0  0  0  0  0  0  0  0  0
    2.7701   -4.7411    0.4264 C   0  0  0  0  0  0  0  0  0  0  0  0
    2.8689   -3.3691   -0.2361 C   0  0  1  0  0  0  0  0  0  0  0  0
    3.8243   -2.3928    0.4456 C   0  0  1  0  0  0  0  0  0  0  0  0
    4.0847   -1.3888   -0.6734 C   0  0  1  0  0  0  0  0  0  0  0  0
    5.2615   -0.6616   -0.4199 O   0  0  0  0  0  0  0  0  0  0  0  0
    4.2676   -2.2061   -1.9530 C   0  0  1  0  0  0  0  0  0  0  0  0
    5.7237   -2.6911   -2.1852 C   0  0  0  0  0  0  0  0  0  0  0  0
    3.3534   -3.4174   -1.7091 C   0  0  2  0  0  0  0  0  0  0  0  0
    2.2175   -3.4091   -2.7673 C   0  0  0  0  0  0  0  0  0  0  0  0
    2.5388   -2.3097   -3.7081 C   0  0  2  0  0  0  0  0  0  0  0  0
    3.8035   -2.3939   -4.3725 O   0  0  0  0  0  0  0  0  0  0  0  0
    3.6980   -1.5809   -3.2106 C   0  0  2  0  0  0  0  0  0  0  0  0
    3.9226   -0.1301   -3.4609 C   0  0  0  0  0  0  0  0  0  0  0  0
    3.4289   -1.8377    1.8665 C   0  0  1  0  0  0  0  0  0  0  0  0
    4.7129   -1.8417    2.7393 C   0  0  0  0  0  0  0  0  0  0  0  0
    2.8260   -0.4258    2.0288 C   0  0  0  0  0  0  0  0  0  0  0  0
    3.1404    0.5376    1.3337 O   0  0  0  0  0  0  0  0  0  0  0  0
    1.9354   -0.4098    3.1951 C   0  0  0  0  0  0  0  0  0  0  0  0
    1.6692   -1.6825    3.5197 C   0  0  0  0  0  0  0  0  0  0  0  0
    2.2600   -2.6317    2.5039 C   0  0  2  0  0  0  0  0  0  0  0  0
    2.5730   -4.0748    2.9361 C   0  0  1  0  0  0  0  0  0  0  0  0
    1.5583   -4.6825    3.7108 O   0  0  0  0  0  0  0  0  0  0  0  0
   -0.2395   -6.1606    2.4675 H   0  0  0  0  0  0  0  0  0  0  0  0
   -0.3125   -6.4813    4.2274 H   0  0  0  0  0  0  0  0  0  0  0  0
    0.3192   -7.7074    3.0938 H   0  0  0  0  0  0  0  0  0  0  0  0
    3.4848   -6.2969    4.6044 H   0  0  0  0  0  0  0  0  0  0  0  0
    2.5609   -7.7947    4.3721 H   0  0  0  0  0  0  0  0  0  0  0  0
    1.9895   -6.5596    5.5077 H   0  0  0  0  0  0  0  0  0  0  0  0
    2.6504   -5.5617   -0.2621 H   0  0  0  0  0  0  0  0  0  0  0  0
    1.8712   -2.9435   -0.2460 H   0  0  0  0  0  0  0  0  0  0  0  0
    4.7499   -2.9563    0.5673 H   0  0  0  0  0  0  0  0  0  0  0  0
    3.2201   -0.7368   -0.7947 H   0  0  0  0  0  0  0  0  0  0  0  0
    5.0933    0.2371   -0.6359 H   0  0  0  0  0  0  0  0  0  0  0  0
    5.8032   -3.3720   -3.0356 H   0  0  0  0  0  0  0  0  0  0  0  0
    6.1249   -3.2136   -1.3178 H   0  0  0  0  0  0  0  0  0  0  0  0
    6.3896   -1.8574   -2.3510 H   0  0  0  0  0  0  0  0  0  0  0  0
    3.9792   -4.2934   -1.8373 H   0  0  0  0  0  0  0  0  0  0  0  0
    2.2037   -4.2614   -3.4137 H   0  0  0  0  0  0  0  0  0  0  0  0
    1.2250   -3.2516   -2.3354 H   0  0  0  0  0  0  0  0  0  0  0  0
    1.7551   -1.8821   -4.3250 H   0  0  0  0  0  0  0  0  0  0  0  0
    3.4062    0.4850   -2.7308 H   0  0  0  0  0  0  0  0  0  0  0  0
    3.6003    0.1558   -4.4618 H   0  0  0  0  0  0  0  0  0  0  0  0
    4.9739    0.0015   -3.2942 H   0  0  0  0  0  0  0  0  0  0  0  0
    5.1461   -2.8371    2.8536 H   0  0  0  0  0  0  0  0  0  0  0  0
    4.5299   -1.4503    3.7427 H   0  0  0  0  0  0  0  0  0  0  0  0
    5.4817   -1.2162    2.2915 H   0  0  0  0  0  0  0  0  0  0  0  0
    1.6233    0.4822    3.7168 H   0  0  0  0  0  0  0  0  0  0  0  0
    1.4309   -2.6885    1.8070 H   0  0  0  0  0  0  0  0  0  0  0  0
    1.0710   -2.0081    4.3511 H   0  0  0  0  0  0  0  0  0  0  0  0
    3.5083   -4.1393    3.4962 H   0  0  0  0  0  0  0  0  0  0  0  0
  1  2  1  0
  1 28  1  0
  1 29  1  0
  1 30  1  0
  2 27  1  0
  2  3  1  0
  2  4  1  0
  3 31  1  0
  3 32  1  0
  3 33  1  0
  4  5  1  0
  5 26  1  0
  5  6  2  0
  6  7  1  0
  6 34  1  0
  7 13  1  0
  7  8  1  0
  7 35  1  6
  8  9  1  0
  8 36  1  1
  8 19  1  0
  9 10  1  0
  9 11  1  0
  9 37  1  6
 10 38  1  0
 11 17  1  0
 11 12  1  6
 11 13  1  0
 12 39  1  0
 12 40  1  0
 12 41  1  0
 13 14  1  0
 13 42  1  1
 14 15  1  0
 14 43  1  0
 14 44  1  0
 15 17  1  0
 15 16  1  0
 15 45  1  6
 16 17  1  0
 17 18  1  6
 18 46  1  0
 18 47  1  0
 18 48  1  0
 19 25  1  0
 19 20  1  1
 19 21  1  0
 20 49  1  0
 20 50  1  0
 20 51  1  0
 21 22  2  0
 21 23  1  0
 23 24  2  0
 23 52  1  0
 24 54  1  0
 24 25  1  0
 25 26  1  0
 25 53  1  6
 26 27  1  0
 26 55  1  1
M  END
>  <i_m_ct_stereo_status>  (216) 
1

>  <s_m_source_file>  (216) 
/var/tmp/pbs.5076255.sched01/tmpn8rdt6mw/90ee43ygr2.sdf

>  <i_m_source_file_index>  (216) 
3

>  <i_lp_mmshare_version>  (216) 
48012

>  <i_f3d_flags>  (216) 
0

>  <s_epik_input>  (216) 
W0NIM11DKE8xKShbQ0gzXSlPQyg9W0NIXTIpW0NASF0xQyg9W0NIXVtDSDJdQzM9TylbQ0BAXTMoW0NIM10pW0NASF0oW0NASF00W09IXSlbQ0BIXTJbQ0BIXShbQ0BdNDVbQ0gzXSlbQ0gyXVtDQEhdNltDQEBdNShPNilbQ0gzXQ==

>  <s_epik_cmdline>  (216) 
J2VwaWtfcHl0aG9uJywgJy1waHQnLCAnMi4wJywgJy1waCcsICc3LjAnLCAnLXRuJywgJzgnLCAnLW1hJywgJzIwMCcsICctaW1hZScsICc8aW5maWxlLm1hZT4nLCAnLW9tYWUnLCAnPG91dGZpbGUubWFlPic=

>  <r_lp_tautomer_probability>  (216) 
1

>  <r_epik_Ionization_Penalty>  (216) 
9.34297e-08

>  <r_epik_Ionization_Penalty_Charging>  (216) 
0

>  <r_epik_Ionization_Penalty_Neutral>  (216) 
9.34297e-08

>  <r_epik_State_Penalty>  (216) 
-0

>  <r_epik_Charging_Adjusted_Penalty>  (216) 
0

>  <i_epik_Tot_Q>  (216) 
0

>  <i_epik_Tot_abs_Q>  (216) 
0

>  <s_lp_Force_Field>  (216) 
OPLS3e

>  <r_lp_Energy>  (216) 
24.8255

>  <b_lp_Chiralities_Consistent>  (216) 
1

>  <s_lp_Variant>  (216) 
56:0-2

>  <s_i_glide_gridfile>  (216) 
pfpi4k_grid

>  <i_i_glide_lignum>  (216) 
3

>  <i_i_glide_rotatable_bonds>  (216) 
1

>  <r_i_docking_score>  (216) 
-4.3642

>  <r_i_glide_ligand_efficiency>  (216) 
-0.161637

>  <r_i_glide_ligand_efficiency_sa>  (216) 
-0.484911

>  <r_i_glide_ligand_efficiency_ln>  (216) 
-1.01591

>  <r_i_glide_gscore>  (216) 
-4.3642

>  <r_i_glide_lipo>  (216) 
-0.873677

>  <r_i_glide_hbond>  (216) 
-0.304

>  <r_i_glide_metal>  (216) 
-0

>  <r_i_glide_rewards>  (216) 
-0.869627

>  <r_i_glide_evdw>  (216) 
-25.1715

>  <r_i_glide_ecoul>  (216) 
-6.80348

>  <r_i_glide_erotb>  (216) 
0

>  <r_i_glide_esite>  (216) 
-0.0377971

>  <r_i_glide_emodel>  (216) 
-38.6255

>  <r_i_glide_energy>  (216) 
-31.975

>  <r_i_glide_einternal>  (216) 
1.11289

>  <r_i_glide_intrahb_reward>  (216) 
-0

>  <i_i_glide_confnum>  (216) 
2

>  <i_i_glide_posenum>  (216) 
20

>  <r_i_glide_eff_state_penalty>  (216) 
0

>  <ligand_id>  (216) 
56

>  <original_smiles>  (216) 
CC1(C)OC2=CC3C(C(O)C4(C)C3CC3OC34C)C3(C)C(=O)CC=C3C2O1

>  <smiles>  (216) 
[H]OC1([H])C2([H])C([H])(C([H])=C3OC(C([H])([H])[H])(C([H])([H])[H])OC3([H])C3([H])C([H])=C([H])C(=O)C32C([H])([H])[H])C2([H])C([H])([H])C3([H])OC3(C([H])([H])[H])C12C([H])([H])[H]

$$$$
56:1:2
     RDKit          3D

 55 60  0  0  1  0  0  0  0  0999 V2000
    1.0305   -5.6851    4.9603 C   0  0  0  0  0  0  0  0  0  0  0  0
    2.4668   -5.2271    4.6919 C   0  0  0  0  0  0  0  0  0  0  0  0
    3.4785   -5.7920    5.7056 C   0  0  0  0  0  0  0  0  0  0  0  0
    2.7899   -5.6382    3.3972 O   0  0  0  0  0  0  0  0  0  0  0  0
    3.1463   -4.5349    2.6891 C   0  0  0  0  0  0  0  0  0  0  0  0
    2.9707   -4.4720    1.3489 C   0  0  0  0  0  0  0  0  0  0  0  0
    3.0001   -3.2447    0.4446 C   0  0  1  0  0  0  0  0  0  0  0  0
    4.1200   -2.2512    0.7424 C   0  0  1  0  0  0  0  0  0  0  0  0
    4.1885   -1.4468   -0.5629 C   0  0  1  0  0  0  0  0  0  0  0  0
    5.3756   -0.6867   -0.6687 O   0  0  0  0  0  0  0  0  0  0  0  0
    4.0713   -2.4888   -1.6906 C   0  0  1  0  0  0  0  0  0  0  0  0
    5.4143   -3.1024   -2.1334 C   0  0  0  0  0  0  0  0  0  0  0  0
    3.1648   -3.5859   -1.0533 C   0  0  2  0  0  0  0  0  0  0  0  0
    1.8374   -3.6395   -1.8412 C   0  0  0  0  0  0  0  0  0  0  0  0
    2.0551   -2.8180   -3.0734 C   0  0  2  0  0  0  0  0  0  0  0  0
    3.1750   -3.0746   -3.9286 O   0  0  0  0  0  0  0  0  0  0  0  0
    3.3165   -2.0604   -2.9252 C   0  0  2  0  0  0  0  0  0  0  0  0
    3.5502   -0.6540   -3.4604 C   0  0  0  0  0  0  0  0  0  0  0  0
    4.0361   -1.4886    2.1110 C   0  0  1  0  0  0  0  0  0  0  0  0
    5.4696   -1.4464    2.6957 C   0  0  0  0  0  0  0  0  0  0  0  0
    3.5240   -0.0534    2.1457 C   0  0  0  0  0  0  0  0  0  0  0  0
    3.6297    0.6855    1.1928 O   0  0  0  0  0  0  0  0  0  0  0  0
    2.9404    0.2465    3.4628 C   0  0  0  0  0  0  0  0  0  0  0  0
    2.6833   -0.9335    4.0463 C   0  0  0  0  0  0  0  0  0  0  0  0
    2.9783   -2.0687    3.0975 C   0  0  2  0  0  0  0  0  0  0  0  0
    3.3359   -3.4287    3.7011 C   0  0  1  0  0  0  0  0  0  0  0  0
    2.4900   -3.8273    4.7674 O   0  0  0  0  0  0  0  0  0  0  0  0
    0.3703   -5.2761    4.1927 H   0  0  0  0  0  0  0  0  0  0  0  0
    0.6920   -5.3548    5.9476 H   0  0  0  0  0  0  0  0  0  0  0  0
    0.9892   -6.7718    4.9059 H   0  0  0  0  0  0  0  0  0  0  0  0
    4.4845   -5.4441    5.4830 H   0  0  0  0  0  0  0  0  0  0  0  0
    3.4634   -6.8803    5.6969 H   0  0  0  0  0  0  0  0  0  0  0  0
    3.2139   -5.4440    6.7040 H   0  0  0  0  0  0  0  0  0  0  0  0
    2.6889   -5.3772    0.8368 H   0  0  0  0  0  0  0  0  0  0  0  0
    2.0538   -2.7226    0.5752 H   0  0  0  0  0  0  0  0  0  0  0  0
    5.0290   -2.8577    0.7647 H   0  0  0  0  0  0  0  0  0  0  0  0
    3.3254   -0.7932   -0.6526 H   0  0  0  0  0  0  0  0  0  0  0  0
    5.2110    0.1558   -0.2615 H   0  0  0  0  0  0  0  0  0  0  0  0
    5.2406   -3.9283   -2.8290 H   0  0  0  0  0  0  0  0  0  0  0  0
    5.9751   -3.4969   -1.2899 H   0  0  0  0  0  0  0  0  0  0  0  0
    6.0358   -2.3762   -2.6578 H   0  0  0  0  0  0  0  0  0  0  0  0
    3.6767   -4.5403   -1.1134 H   0  0  0  0  0  0  0  0  0  0  0  0
    1.4947   -4.6568   -2.1205 H   0  0  0  0  0  0  0  0  0  0  0  0
    0.9923   -3.2389   -1.2778 H   0  0  0  0  0  0  0  0  0  0  0  0
    1.1868   -2.4311   -3.6140 H   0  0  0  0  0  0  0  0  0  0  0  0
    3.2493    0.0985   -2.7268 H   0  0  0  0  0  0  0  0  0  0  0  0
    2.9446   -0.4935   -4.3480 H   0  0  0  0  0  0  0  0  0  0  0  0
    4.6047   -0.5156   -3.6952 H   0  0  0  0  0  0  0  0  0  0  0  0
    5.8859   -2.4415    2.8689 H   0  0  0  0  0  0  0  0  0  0  0  0
    5.5272   -0.8940    3.6360 H   0  0  0  0  0  0  0  0  0  0  0  0
    6.1524   -0.9529    2.0041 H   0  0  0  0  0  0  0  0  0  0  0  0
    2.8261    1.2330    3.8708 H   0  0  0  0  0  0  0  0  0  0  0  0
    2.0080   -2.1783    2.6031 H   0  0  0  0  0  0  0  0  0  0  0  0
    2.2824   -1.0623    5.0393 H   0  0  0  0  0  0  0  0  0  0  0  0
    4.3760   -3.4713    4.0468 H   0  0  0  0  0  0  0  0  0  0  0  0
  1  2  1  0
  1 28  1  0
  1 29  1  0
  1 30  1  0
  2 27  1  0
  2  3  1  0
  2  4  1  0
  3 31  1  0
  3 32  1  0
  3 33  1  0
  4  5  1  0
  5 26  1  0
  5  6  2  0
  6  7  1  0
  6 34  1  0
  7 13  1  0
  7  8  1  0
  7 35  1  6
  8  9  1  0
  8 36  1  1
  8 19  1  0
  9 10  1  0
  9 11  1  0
  9 37  1  1
 10 38  1  0
 11 17  1  0
 11 12  1  6
 11 13  1  0
 12 39  1  0
 12 40  1  0
 12 41  1  0
 13 14  1  0
 13 42  1  1
 14 15  1  0
 14 43  1  0
 14 44  1  0
 15 17  1  0
 15 16  1  0
 15 45  1  6
 16 17  1  0
 17 18  1  6
 18 46  1  0
 18 47  1  0
 18 48  1  0
 19 25  1  0
 19 20  1  1
 19 21  1  0
 20 49  1  0
 20 50  1  0
 20 51  1  0
 21 22  2  0
 21 23  1  0
 23 24  2  0
 23 52  1  0
 24 54  1  0
 24 25  1  0
 25 26  1  0
 25 53  1  6
 26 27  1  0
 26 55  1  1
M  END
>  <i_m_ct_stereo_status>  (217) 
1

>  <s_m_source_file>  (217) 
/var/tmp/pbs.5076255.sched01/tmpn8rdt6mw/90ee43ygr2.sdf

>  <i_m_source_file_index>  (217) 
3

>  <i_lp_mmshare_version>  (217) 
48012

>  <i_f3d_flags>  (217) 
0

>  <s_epik_input>  (217) 
W0NIM11DKE8xKShbQ0gzXSlPQyg9W0NIXTIpW0NASF0xQyg9W0NIXVtDSDJdQzM9TylbQ0BAXTMoW0NIM10pW0NASF0oW0NASF00W09IXSlbQ0BIXTJbQ0BIXShbQ0BdNDVbQ0gzXSlbQ0gyXVtDQEhdNltDQEBdNShPNilbQ0gzXQ==

>  <s_epik_cmdline>  (217) 
J2VwaWtfcHl0aG9uJywgJy1waHQnLCAnMi4wJywgJy1waCcsICc3LjAnLCAnLXRuJywgJzgnLCAnLW1hJywgJzIwMCcsICctaW1hZScsICc8aW5maWxlLm1hZT4nLCAnLW9tYWUnLCAnPG91dGZpbGUubWFlPic=

>  <r_lp_tautomer_probability>  (217) 
1

>  <r_epik_Ionization_Penalty>  (217) 
9.34297e-08

>  <r_epik_Ionization_Penalty_Charging>  (217) 
0

>  <r_epik_Ionization_Penalty_Neutral>  (217) 
9.34297e-08

>  <r_epik_State_Penalty>  (217) 
-0

>  <r_epik_Charging_Adjusted_Penalty>  (217) 
0

>  <i_epik_Tot_Q>  (217) 
0

>  <i_epik_Tot_abs_Q>  (217) 
0

>  <s_lp_Force_Field>  (217) 
OPLS3e

>  <r_lp_Energy>  (217) 
24.8255

>  <b_lp_Chiralities_Consistent>  (217) 
1

>  <s_lp_Variant>  (217) 
56:0-2

>  <s_i_glide_gridfile>  (217) 
pfpi4k_grid

>  <i_i_glide_lignum>  (217) 
3

>  <i_i_glide_rotatable_bonds>  (217) 
1

>  <r_i_docking_score>  (217) 
-3.71449

>  <r_i_glide_ligand_efficiency>  (217) 
-0.137574

>  <r_i_glide_ligand_efficiency_sa>  (217) 
-0.412721

>  <r_i_glide_ligand_efficiency_ln>  (217) 
-0.864671

>  <r_i_glide_gscore>  (217) 
-3.71449

>  <r_i_glide_lipo>  (217) 
-0.608671

>  <r_i_glide_hbond>  (217) 
0

>  <r_i_glide_metal>  (217) 
-0

>  <r_i_glide_rewards>  (217) 
-1.39375

>  <r_i_glide_evdw>  (217) 
-22.887

>  <r_i_glide_ecoul>  (217) 
-3.78477

>  <r_i_glide_erotb>  (217) 
0

>  <r_i_glide_esite>  (217) 
0

>  <r_i_glide_emodel>  (217) 
-36.9354

>  <r_i_glide_energy>  (217) 
-26.6717

>  <r_i_glide_einternal>  (217) 
0.763296

>  <r_i_glide_intrahb_reward>  (217) 
-0.5

>  <i_i_glide_confnum>  (217) 
1

>  <i_i_glide_posenum>  (217) 
39

>  <r_i_glide_eff_state_penalty>  (217) 
0

>  <ligand_id>  (217) 
56

>  <original_smiles>  (217) 
CC1(C)OC2=CC3C(C(O)C4(C)C3CC3OC34C)C3(C)C(=O)CC=C3C2O1

>  <smiles>  (217) 
[H]OC1([H])C2([H])C([H])(C([H])=C3OC(C([H])([H])[H])(C([H])([H])[H])OC3([H])C3([H])C([H])=C([H])C(=O)C32C([H])([H])[H])C2([H])C([H])([H])C3([H])OC3(C([H])([H])[H])C12C([H])([H])[H]

$$$$
57:0:0
     RDKit          3D

 62 65  0  0  1  0  0  0  0  0999 V2000
    0.1108    1.7232    1.6632 N   0  0  0  0  0  0  0  0  0  0  0  0
    1.5268    1.5905    2.0465 C   0  0  2  0  0  0  0  0  0  0  0  0
    2.0991    0.2253    1.5710 C   0  0  0  0  0  0  0  0  0  0  0  0
    3.5990   -0.0235    1.8833 C   0  0  0  0  0  0  0  0  0  0  0  0
    4.2965   -0.8584    0.7783 C   0  0  0  0  0  0  0  0  0  0  0  0
    5.7586   -1.1805    1.1496 C   0  0  0  0  0  0  0  0  0  0  0  0
    5.8123   -1.8649    2.4566 N   0  0  0  0  0  0  0  0  0  0  0  0
    5.2569   -1.0339    3.5388 C   0  0  0  0  0  0  0  0  0  0  0  0
    3.7885   -0.7300    3.2483 C   0  0  0  0  0  0  0  0  0  0  0  0
    1.5864    1.8102    3.5695 C   0  0  0  0  0  0  0  0  0  0  0  0
    1.2083    0.8986    4.3012 O   0  0  0  0  0  0  0  0  0  0  0  0
    1.9455    3.0239    4.0487 N   0  0  0  0  0  0  0  0  0  0  0  0
    2.5108    4.1025    3.2546 C   0  0  0  0  0  0  0  0  0  0  0  0
    2.5883    5.3215    4.1632 C   0  0  0  0  0  0  0  0  0  0  0  0
    1.8478    6.5864    3.7858 C   0  0  0  0  0  0  0  0  0  0  0  0
    3.3564    6.5532    3.7493 C   0  0  0  0  0  0  0  0  0  0  0  0
    2.5387    4.7729    5.5543 C   0  0  0  0  0  0  0  0  0  0  0  0
    1.7437    3.4651    5.4394 C   0  0  1  0  0  0  0  0  0  0  0  0
    0.2247    3.6376    5.7153 C   0  0  0  0  0  0  0  0  0  0  0  0
   -0.3184    4.7387    5.7407 O   0  0  0  0  0  0  0  0  0  0  0  0
   -0.4491    2.4974    5.8967 N   0  0  0  0  0  0  0  0  0  0  0  0
   -1.8571    2.3992    6.1967 C   0  0  0  0  0  0  0  0  0  0  0  0
   -2.1589    2.6721    7.6580 C   0  0  0  0  0  0  0  0  0  0  0  0
   -1.1401    2.6704    8.6408 C   0  0  0  0  0  0  0  0  0  0  0  0
   -1.4430    2.9493    9.9795 C   0  0  0  0  0  0  0  0  0  0  0  0
   -2.7703    3.2230   10.3547 C   0  0  0  0  0  0  0  0  0  0  0  0
   -3.7878    3.2126    9.3841 C   0  0  0  0  0  0  0  0  0  0  0  0
   -3.4830    2.9455    8.0407 C   0  0  0  0  0  0  0  0  0  0  0  0
   -0.1782    2.7010    1.7725 H   0  0  0  0  0  0  0  0  0  0  0  0
   -0.4605    1.1234    2.2298 H   0  0  0  0  0  0  0  0  0  0  0  0
    2.0824    2.3556    1.5043 H   0  0  0  0  0  0  0  0  0  0  0  0
    1.4900   -0.5992    1.9557 H   0  0  0  0  0  0  0  0  0  0  0  0
    1.9778    0.2008    0.4968 H   0  0  0  0  0  0  0  0  0  0  0  0
    4.0950    0.9374    1.9035 H   0  0  0  0  0  0  0  0  0  0  0  0
    3.7583   -1.7929    0.6170 H   0  0  0  0  0  0  0  0  0  0  0  0
    4.2779   -0.3290   -0.1774 H   0  0  0  0  0  0  0  0  0  0  0  0
    6.2307   -1.8094    0.3953 H   0  0  0  0  0  0  0  0  0  0  0  0
    6.3398   -0.2597    1.1950 H   0  0  0  0  0  0  0  0  0  0  0  0
    5.2871   -2.7259    2.4002 H   0  0  0  0  0  0  0  0  0  0  0  0
    5.3505   -1.5514    4.4938 H   0  0  0  0  0  0  0  0  0  0  0  0
    5.8211   -0.1034    3.6272 H   0  0  0  0  0  0  0  0  0  0  0  0
    3.4238   -0.1357    4.0817 H   0  0  0  0  0  0  0  0  0  0  0  0
    3.2143   -1.6562    3.2505 H   0  0  0  0  0  0  0  0  0  0  0  0
    3.5116    3.8225    2.9200 H   0  0  0  0  0  0  0  0  0  0  0  0
    1.8784    4.3345    2.3933 H   0  0  0  0  0  0  0  0  0  0  0  0
    1.3037    6.5640    2.8440 H   0  0  0  0  0  0  0  0  0  0  0  0
    1.3806    7.1847    4.5707 H   0  0  0  0  0  0  0  0  0  0  0  0
    3.9007    7.0936    4.5225 H   0  0  0  0  0  0  0  0  0  0  0  0
    3.8474    6.5090    2.7798 H   0  0  0  0  0  0  0  0  0  0  0  0
    3.5587    4.5903    5.8931 H   0  0  0  0  0  0  0  0  0  0  0  0
    2.0519    5.4774    6.2397 H   0  0  0  0  0  0  0  0  0  0  0  0
    2.1827    2.7566    6.1580 H   0  0  0  0  0  0  0  0  0  0  0  0
    0.0781    1.6401    5.8355 H   0  0  0  0  0  0  0  0  0  0  0  0
   -2.4158    3.0790    5.5426 H   0  0  0  0  0  0  0  0  0  0  0  0
   -2.1925    1.3894    5.9418 H   0  0  0  0  0  0  0  0  0  0  0  0
   -0.1105    2.4686    8.3929 H   0  0  0  0  0  0  0  0  0  0  0  0
   -0.6561    2.9421   10.7163 H   0  0  0  0  0  0  0  0  0  0  0  0
   -3.0068    3.4048   11.3912 H   0  0  0  0  0  0  0  0  0  0  0  0
   -4.8120    3.3754    9.6719 H   0  0  0  0  0  0  0  0  0  0  0  0
   -4.2668    2.8971    7.3045 H   0  0  0  0  0  0  0  0  0  0  0  0
    6.7697   -2.0874    2.6822 H   0  0  0  0  0  0  0  0  0  0  0  0
   -0.0355    1.4814    0.6865 H   0  0  0  0  0  0  0  0  0  0  0  0
  1  2  1  0
  1 29  1  0
  1 30  1  0
  1 62  1  0
  2  3  1  0
  2 10  1  0
  2 31  1  6
  3  4  1  0
  3 32  1  0
  3 33  1  0
  4  9  1  0
  4  5  1  0
  4 34  1  0
  5  6  1  0
  5 35  1  0
  5 36  1  0
  6  7  1  0
  6 37  1  0
  6 38  1  0
  7  8  1  0
  7 39  1  0
  7 61  1  0
  8  9  1  0
  8 40  1  0
  8 41  1  0
  9 42  1  0
  9 43  1  0
 10 11  2  0
 10 12  1  0
 12 18  1  0
 12 13  1  0
 13 14  1  0
 13 44  1  0
 13 45  1  0
 14 16  1  0
 14 15  1  0
 14 17  1  0
 15 16  1  0
 15 46  1  0
 15 47  1  0
 16 48  1  0
 16 49  1  0
 17 18  1  0
 17 50  1  0
 17 51  1  0
 18 19  1  0
 18 52  1  1
 19 20  2  0
 19 21  1  0
 21 22  1  0
 21 53  1  0
 22 23  1  0
 22 54  1  0
 22 55  1  0
 23 28  1  0
 23 24  2  0
 24 25  1  0
 24 56  1  0
 25 26  2  0
 25 57  1  0
 26 27  1  0
 26 58  1  0
 27 28  2  0
 27 59  1  0
 28 60  1  0
M  CHG  2   1   1   7   1
M  END
>  <i_m_ct_stereo_status>  (218) 
1

>  <s_m_source_file>  (218) 
/var/tmp/pbs.5076255.sched01/tmpn8rdt6mw/90ee43ygr2.sdf

>  <i_m_source_file_index>  (218) 
4

>  <i_lp_mmshare_version>  (218) 
48012

>  <i_f3d_flags>  (218) 
0

>  <s_epik_input>  (218) 
W0NIMl0xW0NIMl1bTkhdW0NIMl1bQ0gyXVtDSF0xW0NIMl1bQ0BASF0oW05IMl0pQyg9TylOKFtDSDJdQzIzW0NIMl1bQ0gyXTIpW0NAQEhdKFtDSDJdMylDKD1PKVtOSF1bQ0gyXWM0W2NIXVtjSF1bY0hdW2NIXVtjSF00

>  <s_epik_cmdline>  (218) 
J2VwaWtfcHl0aG9uJywgJy1waHQnLCAnMi4wJywgJy1waCcsICc3LjAnLCAnLXRuJywgJzgnLCAnLW1hJywgJzIwMCcsICctaW1hZScsICc8aW5maWxlLm1hZT4nLCAnLW9tYWUnLCAnPG91dGZpbGUubWFlPic=

>  <r_epik_Ionization_Penalty>  (218) 
0.120523

>  <r_epik_Ionization_Penalty_Charging>  (218) 
0.120523

>  <r_epik_Ionization_Penalty_Neutral>  (218) 
6.77933e-08

>  <r_epik_State_Penalty>  (218) 
0.109686

>  <r_epik_Charging_Adjusted_Penalty>  (218) 
0.23021

>  <i_epik_Tot_Q>  (218) 
2

>  <i_epik_Tot_abs_Q>  (218) 
2

>  <s_lp_Force_Field>  (218) 
OPLS3e

>  <r_lp_Energy>  (218) 
35.097

>  <b_lp_Chiralities_Consistent>  (218) 
1

>  <s_lp_Variant>  (218) 
57:0-1

>  <s_i_glide_gridfile>  (218) 
pfpi4k_grid

>  <i_i_glide_lignum>  (218) 
4

>  <i_i_glide_rotatable_bonds>  (218) 
8

>  <r_i_docking_score>  (218) 
-4.11304

>  <r_i_glide_ligand_efficiency>  (218) 
-0.146894

>  <r_i_glide_ligand_efficiency_sa>  (218) 
-0.446057

>  <r_i_glide_ligand_efficiency_ln>  (218) 
-0.94941

>  <r_i_glide_gscore>  (218) 
-4.11304

>  <r_i_glide_lipo>  (218) 
-0.582587

>  <r_i_glide_hbond>  (218) 
-0.277925

>  <r_i_glide_metal>  (218) 
-0

>  <r_i_glide_rewards>  (218) 
-1.27365

>  <r_i_glide_evdw>  (218) 
-23.96

>  <r_i_glide_ecoul>  (218) 
-9.58527

>  <r_i_glide_erotb>  (218) 
0.781668

>  <r_i_glide_esite>  (218) 
-0.124748

>  <r_i_glide_emodel>  (218) 
-47.8268

>  <r_i_glide_energy>  (218) 
-33.5453

>  <r_i_glide_einternal>  (218) 
4.64689

>  <r_i_glide_intrahb_reward>  (218) 
-0.5

>  <i_i_glide_confnum>  (218) 
7

>  <i_i_glide_posenum>  (218) 
2

>  <r_i_glide_eff_state_penalty>  (218) 
0

>  <ligand_id>  (218) 
57

>  <original_smiles>  (218) 
NC(CC1CCNCC1)C(=O)N1CC2(CC2)CC1C(=O)NCc1ccccc1

>  <smiles>  (218) 
[H]c1c([H])c([H])c(C([H])([H])N([H])C(=O)C2([H])N(C(=O)C([H])(C([H])([H])C3([H])C([H])([H])C([H])([H])[N+]([H])([H])C([H])([H])C3([H])[H])[N+]([H])([H])[H])C([H])([H])C3(C2([H])[H])C([H])([H])C3([H])[H])c([H])c1[H]

$$$$
57:0:1
     RDKit          3D

 62 65  0  0  1  0  0  0  0  0999 V2000
    0.7017    0.9453    1.2840 N   0  0  0  0  0  0  0  0  0  0  0  0
    1.0177    0.3961    2.6203 C   0  0  2  0  0  0  0  0  0  0  0  0
    0.8873    1.4882    3.7523 C   0  0  0  0  0  0  0  0  0  0  0  0
    1.9696    2.6298    3.8647 C   0  0  0  0  0  0  0  0  0  0  0  0
    2.0162    3.3005    5.2514 C   0  0  0  0  0  0  0  0  0  0  0  0
    3.0870    4.4158    5.2555 C   0  0  0  0  0  0  0  0  0  0  0  0
    2.8029    5.4116    4.1951 N   0  0  0  0  0  0  0  0  0  0  0  0
    2.8193    4.8071    2.8470 C   0  0  0  0  0  0  0  0  0  0  0  0
    1.7746    3.6972    2.7678 C   0  0  0  0  0  0  0  0  0  0  0  0
    2.4404   -0.1859    2.5348 C   0  0  0  0  0  0  0  0  0  0  0  0
    3.3406    0.6073    2.2725 O   0  0  0  0  0  0  0  0  0  0  0  0
    2.6872   -1.5016    2.7645 N   0  0  0  0  0  0  0  0  0  0  0  0
    1.6684   -2.4212    3.2690 C   0  0  0  0  0  0  0  0  0  0  0  0
    2.4034   -3.7203    3.5907 C   0  0  0  0  0  0  0  0  0  0  0  0
    1.6583   -4.9958    3.9284 C   0  0  0  0  0  0  0  0  0  0  0  0
    2.4102   -4.2507    5.0068 C   0  0  0  0  0  0  0  0  0  0  0  0
    3.6571   -3.6946    2.7734 C   0  0  0  0  0  0  0  0  0  0  0  0
    3.9849   -2.1940    2.5856 C   0  0  1  0  0  0  0  0  0  0  0  0
    4.7783   -1.9329    1.2807 C   0  0  0  0  0  0  0  0  0  0  0  0
    4.9291   -0.7843    0.8449 O   0  0  0  0  0  0  0  0  0  0  0  0
    5.3164   -2.9571    0.6176 N   0  0  0  0  0  0  0  0  0  0  0  0
    6.0173   -2.8129   -0.6714 C   0  0  0  0  0  0  0  0  0  0  0  0
    5.1014   -2.4111   -1.8389 C   0  0  0  0  0  0  0  0  0  0  0  0
    4.5746   -3.4075   -2.6767 C   0  0  0  0  0  0  0  0  0  0  0  0
    3.6910   -3.0704   -3.7262 C   0  0  0  0  0  0  0  0  0  0  0  0
    3.3067   -1.7300   -3.9255 C   0  0  0  0  0  0  0  0  0  0  0  0
    3.8290   -0.7202   -3.1125 C   0  0  0  0  0  0  0  0  0  0  0  0
    4.7388   -1.0611   -2.0883 C   0  0  0  0  0  0  0  0  0  0  0  0
    0.6803    0.2114    0.5744 H   0  0  0  0  0  0  0  0  0  0  0  0
    1.4549    1.5697    1.0535 H   0  0  0  0  0  0  0  0  0  0  0  0
    0.2519   -0.3721    2.8165 H   0  0  0  0  0  0  0  0  0  0  0  0
   -0.1032    1.9479    3.6616 H   0  0  0  0  0  0  0  0  0  0  0  0
    0.8616    0.9503    4.7047 H   0  0  0  0  0  0  0  0  0  0  0  0
    2.9939    2.2513    3.8097 H   0  0  0  0  0  0  0  0  0  0  0  0
    1.0357    3.6849    5.5468 H   0  0  0  0  0  0  0  0  0  0  0  0
    2.2935    2.5374    5.9825 H   0  0  0  0  0  0  0  0  0  0  0  0
    3.1181    4.9013    6.2289 H   0  0  0  0  0  0  0  0  0  0  0  0
    4.0839    3.9961    5.0906 H   0  0  0  0  0  0  0  0  0  0  0  0
    1.8769    5.7860    4.3527 H   0  0  0  0  0  0  0  0  0  0  0  0
    2.6138    5.5657    2.0904 H   0  0  0  0  0  0  0  0  0  0  0  0
    3.8078    4.4029    2.6213 H   0  0  0  0  0  0  0  0  0  0  0  0
    1.8369    3.2611    1.7718 H   0  0  0  0  0  0  0  0  0  0  0  0
    0.7729    4.1217    2.8645 H   0  0  0  0  0  0  0  0  0  0  0  0
    1.1600   -2.0302    4.1577 H   0  0  0  0  0  0  0  0  0  0  0  0
    0.9478   -2.6117    2.4724 H   0  0  0  0  0  0  0  0  0  0  0  0
    0.5706   -4.9534    3.9428 H   0  0  0  0  0  0  0  0  0  0  0  0
    2.0742   -5.9459    3.5909 H   0  0  0  0  0  0  0  0  0  0  0  0
    3.3352   -4.6955    5.3750 H   0  0  0  0  0  0  0  0  0  0  0  0
    1.8362   -3.6895    5.7433 H   0  0  0  0  0  0  0  0  0  0  0  0
    4.4843   -4.1794    3.3008 H   0  0  0  0  0  0  0  0  0  0  0  0
    3.4216   -4.1783    1.8235 H   0  0  0  0  0  0  0  0  0  0  0  0
    4.6593   -1.8974    3.3931 H   0  0  0  0  0  0  0  0  0  0  0  0
    5.3259   -3.9008    1.0224 H   0  0  0  0  0  0  0  0  0  0  0  0
    6.8048   -2.0610   -0.5830 H   0  0  0  0  0  0  0  0  0  0  0  0
    6.5181   -3.7552   -0.9118 H   0  0  0  0  0  0  0  0  0  0  0  0
    4.8237   -4.4426   -2.4989 H   0  0  0  0  0  0  0  0  0  0  0  0
    3.2951   -3.8571   -4.3460 H   0  0  0  0  0  0  0  0  0  0  0  0
    2.6141   -1.4638   -4.7088 H   0  0  0  0  0  0  0  0  0  0  0  0
    3.5228    0.3101   -3.2449 H   0  0  0  0  0  0  0  0  0  0  0  0
    5.1175   -0.2577   -1.4920 H   0  0  0  0  0  0  0  0  0  0  0  0
    3.4751    6.1677    4.2303 H   0  0  0  0  0  0  0  0  0  0  0  0
   -0.1709    1.4451    1.2404 H   0  0  0  0  0  0  0  0  0  0  0  0
  1  2  1  0
  1 29  1  0
  1 30  1  0
  1 62  1  0
  2  3  1  0
  2 10  1  0
  2 31  1  1
  3  4  1  0
  3 32  1  0
  3 33  1  0
  4  9  1  0
  4  5  1  0
  4 34  1  0
  5  6  1  0
  5 35  1  0
  5 36  1  0
  6  7  1  0
  6 37  1  0
  6 38  1  0
  7  8  1  0
  7 39  1  0
  7 61  1  0
  8  9  1  0
  8 40  1  0
  8 41  1  0
  9 42  1  0
  9 43  1  0
 10 11  2  0
 10 12  1  0
 12 18  1  0
 12 13  1  0
 13 14  1  0
 13 44  1  0
 13 45  1  0
 14 16  1  0
 14 15  1  0
 14 17  1  0
 15 16  1  0
 15 46  1  0
 15 47  1  0
 16 48  1  0
 16 49  1  0
 17 18  1  0
 17 50  1  0
 17 51  1  0
 18 19  1  0
 18 52  1  1
 19 20  2  0
 19 21  1  0
 21 22  1  0
 21 53  1  0
 22 23  1  0
 22 54  1  0
 22 55  1  0
 23 28  1  0
 23 24  2  0
 24 25  1  0
 24 56  1  0
 25 26  2  0
 25 57  1  0
 26 27  1  0
 26 58  1  0
 27 28  2  0
 27 59  1  0
 28 60  1  0
M  CHG  2   1   1   7   1
M  END
>  <i_m_ct_stereo_status>  (219) 
1

>  <s_m_source_file>  (219) 
/var/tmp/pbs.5076255.sched01/tmpn8rdt6mw/90ee43ygr2.sdf

>  <i_m_source_file_index>  (219) 
4

>  <i_lp_mmshare_version>  (219) 
48012

>  <i_f3d_flags>  (219) 
0

>  <s_epik_input>  (219) 
W0NIMl0xW0NIMl1bTkhdW0NIMl1bQ0gyXVtDSF0xW0NIMl1bQ0BASF0oW05IMl0pQyg9TylOKFtDSDJdQzIzW0NIMl1bQ0gyXTIpW0NAQEhdKFtDSDJdMylDKD1PKVtOSF1bQ0gyXWM0W2NIXVtjSF1bY0hdW2NIXVtjSF00

>  <s_epik_cmdline>  (219) 
J2VwaWtfcHl0aG9uJywgJy1waHQnLCAnMi4wJywgJy1waCcsICc3LjAnLCAnLXRuJywgJzgnLCAnLW1hJywgJzIwMCcsICctaW1hZScsICc8aW5maWxlLm1hZT4nLCAnLW9tYWUnLCAnPG91dGZpbGUubWFlPic=

>  <r_epik_Ionization_Penalty>  (219) 
0.120523

>  <r_epik_Ionization_Penalty_Charging>  (219) 
0.120523

>  <r_epik_Ionization_Penalty_Neutral>  (219) 
6.77933e-08

>  <r_epik_State_Penalty>  (219) 
0.109686

>  <r_epik_Charging_Adjusted_Penalty>  (219) 
0.23021

>  <i_epik_Tot_Q>  (219) 
2

>  <i_epik_Tot_abs_Q>  (219) 
2

>  <s_lp_Force_Field>  (219) 
OPLS3e

>  <r_lp_Energy>  (219) 
35.097

>  <b_lp_Chiralities_Consistent>  (219) 
1

>  <s_lp_Variant>  (219) 
57:0-1

>  <s_i_glide_gridfile>  (219) 
pfpi4k_grid

>  <i_i_glide_lignum>  (219) 
4

>  <i_i_glide_rotatable_bonds>  (219) 
8

>  <r_i_docking_score>  (219) 
-3.61304

>  <r_i_glide_ligand_efficiency>  (219) 
-0.129037

>  <r_i_glide_ligand_efficiency_sa>  (219) 
-0.391833

>  <r_i_glide_ligand_efficiency_ln>  (219) 
-0.833996

>  <r_i_glide_gscore>  (219) 
-3.61304

>  <r_i_glide_lipo>  (219) 
-0.484269

>  <r_i_glide_hbond>  (219) 
-0.227807

>  <r_i_glide_metal>  (219) 
-0

>  <r_i_glide_rewards>  (219) 
-0.820409

>  <r_i_glide_evdw>  (219) 
-29.4437

>  <r_i_glide_ecoul>  (219) 
-8.51387

>  <r_i_glide_erotb>  (219) 
0.781668

>  <r_i_glide_esite>  (219) 
-0.112958

>  <r_i_glide_emodel>  (219) 
-43.2213

>  <r_i_glide_energy>  (219) 
-37.9576

>  <r_i_glide_einternal>  (219) 
7.29108

>  <r_i_glide_intrahb_reward>  (219) 
-0

>  <i_i_glide_confnum>  (219) 
5

>  <i_i_glide_posenum>  (219) 
23

>  <r_i_glide_eff_state_penalty>  (219) 
0

>  <ligand_id>  (219) 
57

>  <original_smiles>  (219) 
NC(CC1CCNCC1)C(=O)N1CC2(CC2)CC1C(=O)NCc1ccccc1

>  <smiles>  (219) 
[H]c1c([H])c([H])c(C([H])([H])N([H])C(=O)C2([H])N(C(=O)C([H])(C([H])([H])C3([H])C([H])([H])C([H])([H])[N+]([H])([H])C([H])([H])C3([H])[H])[N+]([H])([H])[H])C([H])([H])C3(C2([H])[H])C([H])([H])C3([H])[H])c([H])c1[H]

$$$$
57:0:2
     RDKit          3D

 62 65  0  0  1  0  0  0  0  0999 V2000
    4.0979   -2.7167    4.9944 N   0  0  0  0  0  0  0  0  0  0  0  0
    3.5146   -2.0712    3.8029 C   0  0  2  0  0  0  0  0  0  0  0  0
    2.2997   -1.1712    4.2115 C   0  0  0  0  0  0  0  0  0  0  0  0
    1.8235   -0.1417    3.1544 C   0  0  0  0  0  0  0  0  0  0  0  0
    2.7403    1.1091    3.0919 C   0  0  0  0  0  0  0  0  0  0  0  0
    2.1913    2.1576    2.1154 C   0  0  0  0  0  0  0  0  0  0  0  0
    0.8122    2.5402    2.4854 N   0  0  0  0  0  0  0  0  0  0  0  0
   -0.1020    1.3776    2.4287 C   0  0  0  0  0  0  0  0  0  0  0  0
    0.3697    0.3116    3.4333 C   0  0  0  0  0  0  0  0  0  0  0  0
    3.1665   -3.2063    2.8124 C   0  0  0  0  0  0  0  0  0  0  0  0
    2.0148   -3.6532    2.8071 O   0  0  0  0  0  0  0  0  0  0  0  0
    4.1440   -3.7321    2.0329 N   0  0  0  0  0  0  0  0  0  0  0  0
    5.4854   -3.1692    1.9000 C   0  0  0  0  0  0  0  0  0  0  0  0
    6.1797   -3.9593    0.7909 C   0  0  0  0  0  0  0  0  0  0  0  0
    7.6423   -3.7840    0.4673 C   0  0  0  0  0  0  0  0  0  0  0  0
    6.5861   -3.2559   -0.4789 C   0  0  0  0  0  0  0  0  0  0  0  0
    5.4517   -5.2583    0.7184 C   0  0  0  0  0  0  0  0  0  0  0  0
    4.0258   -4.9526    1.1949 C   0  0  1  0  0  0  0  0  0  0  0  0
    3.5066   -6.1823    1.9703 C   0  0  0  0  0  0  0  0  0  0  0  0
    3.8432   -6.3648    3.1415 O   0  0  0  0  0  0  0  0  0  0  0  0
    2.7518   -7.0517    1.2909 N   0  0  0  0  0  0  0  0  0  0  0  0
    2.0367   -8.1893    1.8693 C   0  0  0  0  0  0  0  0  0  0  0  0
    0.8002   -7.8252    2.7054 C   0  0  0  0  0  0  0  0  0  0  0  0
    0.8916   -6.8675    3.7489 C   0  0  0  0  0  0  0  0  0  0  0  0
   -0.2502   -6.5713    4.5085 C   0  0  0  0  0  0  0  0  0  0  0  0
   -1.4887   -7.2140    4.2674 C   0  0  0  0  0  0  0  0  0  0  0  0
   -1.5833   -8.1856    3.2479 C   0  0  0  0  0  0  0  0  0  0  0  0
   -0.4429   -8.4965    2.4738 C   0  0  0  0  0  0  0  0  0  0  0  0
    4.9626   -3.1737    4.7248 H   0  0  0  0  0  0  0  0  0  0  0  0
    3.4614   -3.4288    5.3331 H   0  0  0  0  0  0  0  0  0  0  0  0
    4.2800   -1.4124    3.3870 H   0  0  0  0  0  0  0  0  0  0  0  0
    1.4658   -1.8124    4.4947 H   0  0  0  0  0  0  0  0  0  0  0  0
    2.5468   -0.6306    5.1240 H   0  0  0  0  0  0  0  0  0  0  0  0
    1.8279   -0.6240    2.1746 H   0  0  0  0  0  0  0  0  0  0  0  0
    2.8269    1.5659    4.0799 H   0  0  0  0  0  0  0  0  0  0  0  0
    3.7530    0.8334    2.7896 H   0  0  0  0  0  0  0  0  0  0  0  0
    2.8111    3.0535    2.0942 H   0  0  0  0  0  0  0  0  0  0  0  0
    2.1987    1.7305    1.1178 H   0  0  0  0  0  0  0  0  0  0  0  0
    0.8031    2.9476    3.3905 H   0  0  0  0  0  0  0  0  0  0  0  0
   -1.1165    1.7073    2.6527 H   0  0  0  0  0  0  0  0  0  0  0  0
   -0.1243    0.9714    1.4159 H   0  0  0  0  0  0  0  0  0  0  0  0
   -0.3084   -0.5436    3.4039 H   0  0  0  0  0  0  0  0  0  0  0  0
    0.3016    0.7209    4.4421 H   0  0  0  0  0  0  0  0  0  0  0  0
    5.4501   -2.1098    1.6495 H   0  0  0  0  0  0  0  0  0  0  0  0
    6.0227   -3.3048    2.8403 H   0  0  0  0  0  0  0  0  0  0  0  0
    8.1913   -3.0626    1.0640 H   0  0  0  0  0  0  0  0  0  0  0  0
    8.2034   -4.6695    0.1634 H   0  0  0  0  0  0  0  0  0  0  0  0
    6.4459   -3.7856   -1.4205 H   0  0  0  0  0  0  0  0  0  0  0  0
    6.4269   -2.1833   -0.5189 H   0  0  0  0  0  0  0  0  0  0  0  0
    5.4641   -5.6822   -0.3004 H   0  0  0  0  0  0  0  0  0  0  0  0
    5.9581   -5.9673    1.3870 H   0  0  0  0  0  0  0  0  0  0  0  0
    3.3742   -4.7207    0.3254 H   0  0  0  0  0  0  0  0  0  0  0  0
    2.6633   -6.9113    0.2919 H   0  0  0  0  0  0  0  0  0  0  0  0
    1.7667   -8.8470    1.0451 H   0  0  0  0  0  0  0  0  0  0  0  0
    2.7270   -8.7711    2.4857 H   0  0  0  0  0  0  0  0  0  0  0  0
    1.8057   -6.3686    3.9879 H   0  0  0  0  0  0  0  0  0  0  0  0
   -0.1626   -5.8411    5.2951 H   0  0  0  0  0  0  0  0  0  0  0  0
   -2.3414   -6.9654    4.8752 H   0  0  0  0  0  0  0  0  0  0  0  0
   -2.5165   -8.7014    3.0737 H   0  0  0  0  0  0  0  0  0  0  0  0
   -0.5341   -9.2601    1.7147 H   0  0  0  0  0  0  0  0  0  0  0  0
    0.4909    3.2452    1.8071 H   0  0  0  0  0  0  0  0  0  0  0  0
    4.2853   -2.0477    5.7268 H   0  0  0  0  0  0  0  0  0  0  0  0
  1  2  1  0
  1 29  1  0
  1 30  1  0
  1 62  1  0
  2  3  1  0
  2 10  1  0
  2 31  1  6
  3  4  1  0
  3 32  1  0
  3 33  1  0
  4  9  1  0
  4  5  1  0
  4 34  1  0
  5  6  1  0
  5 35  1  0
  5 36  1  0
  6  7  1  0
  6 37  1  0
  6 38  1  0
  7  8  1  0
  7 39  1  0
  7 61  1  0
  8  9  1  0
  8 40  1  0
  8 41  1  0
  9 42  1  0
  9 43  1  0
 10 11  2  0
 10 12  1  0
 12 18  1  0
 12 13  1  0
 13 14  1  0
 13 44  1  0
 13 45  1  0
 14 16  1  0
 14 15  1  0
 14 17  1  0
 15 16  1  0
 15 46  1  0
 15 47  1  0
 16 48  1  0
 16 49  1  0
 17 18  1  0
 17 50  1  0
 17 51  1  0
 18 19  1  0
 18 52  1  6
 19 20  2  0
 19 21  1  0
 21 22  1  0
 21 53  1  0
 22 23  1  0
 22 54  1  0
 22 55  1  0
 23 28  1  0
 23 24  2  0
 24 25  1  0
 24 56  1  0
 25 26  2  0
 25 57  1  0
 26 27  1  0
 26 58  1  0
 27 28  2  0
 27 59  1  0
 28 60  1  0
M  CHG  2   1   1   7   1
M  END
>  <i_m_ct_stereo_status>  (220) 
1

>  <s_m_source_file>  (220) 
/var/tmp/pbs.5076255.sched01/tmpn8rdt6mw/90ee43ygr2.sdf

>  <i_m_source_file_index>  (220) 
4

>  <i_lp_mmshare_version>  (220) 
48012

>  <i_f3d_flags>  (220) 
0

>  <s_epik_input>  (220) 
W0NIMl0xW0NIMl1bTkhdW0NIMl1bQ0gyXVtDSF0xW0NIMl1bQ0BASF0oW05IMl0pQyg9TylOKFtDSDJdQzIzW0NIMl1bQ0gyXTIpW0NAQEhdKFtDSDJdMylDKD1PKVtOSF1bQ0gyXWM0W2NIXVtjSF1bY0hdW2NIXVtjSF00

>  <s_epik_cmdline>  (220) 
J2VwaWtfcHl0aG9uJywgJy1waHQnLCAnMi4wJywgJy1waCcsICc3LjAnLCAnLXRuJywgJzgnLCAnLW1hJywgJzIwMCcsICctaW1hZScsICc8aW5maWxlLm1hZT4nLCAnLW9tYWUnLCAnPG91dGZpbGUubWFlPic=

>  <r_epik_Ionization_Penalty>  (220) 
0.120523

>  <r_epik_Ionization_Penalty_Charging>  (220) 
0.120523

>  <r_epik_Ionization_Penalty_Neutral>  (220) 
6.77933e-08

>  <r_epik_State_Penalty>  (220) 
0.109686

>  <r_epik_Charging_Adjusted_Penalty>  (220) 
0.23021

>  <i_epik_Tot_Q>  (220) 
2

>  <i_epik_Tot_abs_Q>  (220) 
2

>  <s_lp_Force_Field>  (220) 
OPLS3e

>  <r_lp_Energy>  (220) 
35.097

>  <b_lp_Chiralities_Consistent>  (220) 
1

>  <s_lp_Variant>  (220) 
57:0-1

>  <s_i_glide_gridfile>  (220) 
pfpi4k_grid

>  <i_i_glide_lignum>  (220) 
4

>  <i_i_glide_rotatable_bonds>  (220) 
8

>  <r_i_docking_score>  (220) 
-3.16367

>  <r_i_glide_ligand_efficiency>  (220) 
-0.112988

>  <r_i_glide_ligand_efficiency_sa>  (220) 
-0.343099

>  <r_i_glide_ligand_efficiency_ln>  (220) 
-0.730268

>  <r_i_glide_gscore>  (220) 
-3.16367

>  <r_i_glide_lipo>  (220) 
-0.526614

>  <r_i_glide_hbond>  (220) 
-0.2

>  <r_i_glide_metal>  (220) 
-0

>  <r_i_glide_rewards>  (220) 
-0.810339

>  <r_i_glide_evdw>  (220) 
-23.2473

>  <r_i_glide_ecoul>  (220) 
-7.64014

>  <r_i_glide_erotb>  (220) 
0.781668

>  <r_i_glide_esite>  (220) 
-0.1

>  <r_i_glide_emodel>  (220) 
-38.485

>  <r_i_glide_energy>  (220) 
-30.8874

>  <r_i_glide_einternal>  (220) 
2.14004

>  <r_i_glide_intrahb_reward>  (220) 
-0

>  <i_i_glide_confnum>  (220) 
6

>  <i_i_glide_posenum>  (220) 
7

>  <r_i_glide_eff_state_penalty>  (220) 
0

>  <ligand_id>  (220) 
57

>  <original_smiles>  (220) 
NC(CC1CCNCC1)C(=O)N1CC2(CC2)CC1C(=O)NCc1ccccc1

>  <smiles>  (220) 
[H]c1c([H])c([H])c(C([H])([H])N([H])C(=O)C2([H])N(C(=O)C([H])(C([H])([H])C3([H])C([H])([H])C([H])([H])[N+]([H])([H])C([H])([H])C3([H])[H])[N+]([H])([H])[H])C([H])([H])C3(C2([H])[H])C([H])([H])C3([H])[H])c([H])c1[H]

$$$$
57:1:0
     RDKit          3D

 61 64  0  0  1  0  0  0  0  0999 V2000
    6.5588   -1.1527    0.6675 N   0  0  0  0  0  0  0  0  0  0  0  0
    5.5901   -2.1872    1.0623 C   0  0  2  0  0  0  0  0  0  0  0  0
    5.4933   -3.2444   -0.0852 C   0  0  0  0  0  0  0  0  0  0  0  0
    4.7199   -2.8280   -1.3705 C   0  0  0  0  0  0  0  0  0  0  0  0
    3.1832   -3.0230   -1.2212 C   0  0  0  0  0  0  0  0  0  0  0  0
    2.4377   -2.6331   -2.4913 C   0  0  0  0  0  0  0  0  0  0  0  0
    2.9061   -3.4481   -3.6141 N   0  0  0  0  0  0  0  0  0  0  0  0
    4.3546   -3.2615   -3.8632 C   0  0  0  0  0  0  0  0  0  0  0  0
    5.1842   -3.6251   -2.6139 C   0  0  0  0  0  0  0  0  0  0  0  0
    4.2260   -1.5583    1.4312 C   0  0  0  0  0  0  0  0  0  0  0  0
    3.9403   -0.4725    0.9298 O   0  0  0  0  0  0  0  0  0  0  0  0
    3.3377   -2.2646    2.1832 N   0  0  0  0  0  0  0  0  0  0  0  0
    3.6189   -3.5280    2.8644 C   0  0  0  0  0  0  0  0  0  0  0  0
    2.2875   -4.0413    3.4088 C   0  0  0  0  0  0  0  0  0  0  0  0
    2.2086   -5.2106    4.3620 C   0  0  0  0  0  0  0  0  0  0  0  0
    1.7225   -5.3734    2.9448 C   0  0  0  0  0  0  0  0  0  0  0  0
    1.4176   -2.8241    3.4763 C   0  0  0  0  0  0  0  0  0  0  0  0
    1.9181   -1.8976    2.3836 C   0  0  1  0  0  0  0  0  0  0  0  0
    1.7179   -0.4263    2.7869 C   0  0  0  0  0  0  0  0  0  0  0  0
    2.1853   -0.0419    3.8509 O   0  0  0  0  0  0  0  0  0  0  0  0
    1.0990    0.3643    1.8969 N   0  0  0  0  0  0  0  0  0  0  0  0
    0.8611    1.8003    2.0313 C   0  0  0  0  0  0  0  0  0  0  0  0
    0.0029    2.1503    3.2329 C   0  0  0  0  0  0  0  0  0  0  0  0
    0.5901    2.3263    4.5040 C   0  0  0  0  0  0  0  0  0  0  0  0
   -0.2142    2.5665    5.6328 C   0  0  0  0  0  0  0  0  0  0  0  0
   -1.6090    2.6817    5.4839 C   0  0  0  0  0  0  0  0  0  0  0  0
   -2.1940    2.5313    4.2103 C   0  0  0  0  0  0  0  0  0  0  0  0
   -1.3925    2.2472    3.0883 C   0  0  0  0  0  0  0  0  0  0  0  0
    6.7257   -0.4969    1.4223 H   0  0  0  0  0  0  0  0  0  0  0  0
    7.4586   -1.5303    0.4112 H   0  0  0  0  0  0  0  0  0  0  0  0
    6.0058   -2.6689    1.9551 H   0  0  0  0  0  0  0  0  0  0  0  0
    6.5169   -3.5211   -0.3468 H   0  0  0  0  0  0  0  0  0  0  0  0
    5.0672   -4.1807    0.2763 H   0  0  0  0  0  0  0  0  0  0  0  0
    4.9484   -1.7792   -1.5716 H   0  0  0  0  0  0  0  0  0  0  0  0
    2.9744   -4.0614   -0.9501 H   0  0  0  0  0  0  0  0  0  0  0  0
    2.7105   -2.4035   -0.4726 H   0  0  0  0  0  0  0  0  0  0  0  0
    1.3708   -2.7719   -2.3463 H   0  0  0  0  0  0  0  0  0  0  0  0
    2.6001   -1.5713   -2.6906 H   0  0  0  0  0  0  0  0  0  0  0  0
    2.7521   -4.4301   -3.3504 H   0  0  0  0  0  0  0  0  0  0  0  0
    4.6559   -3.8701   -4.7180 H   0  0  0  0  0  0  0  0  0  0  0  0
    4.5313   -2.2154   -4.1254 H   0  0  0  0  0  0  0  0  0  0  0  0
    6.2452   -3.4560   -2.8165 H   0  0  0  0  0  0  0  0  0  0  0  0
    5.0766   -4.6928   -2.4255 H   0  0  0  0  0  0  0  0  0  0  0  0
    4.0476   -4.2665    2.1929 H   0  0  0  0  0  0  0  0  0  0  0  0
    4.3070   -3.3501    3.6982 H   0  0  0  0  0  0  0  0  0  0  0  0
    3.1543   -5.6817    4.6284 H   0  0  0  0  0  0  0  0  0  0  0  0
    1.4657   -5.1885    5.1563 H   0  0  0  0  0  0  0  0  0  0  0  0
    0.6472   -5.4701    2.7983 H   0  0  0  0  0  0  0  0  0  0  0  0
    2.3348   -5.9634    2.2618 H   0  0  0  0  0  0  0  0  0  0  0  0
    0.3727   -3.1113    3.3304 H   0  0  0  0  0  0  0  0  0  0  0  0
    1.5373   -2.3902    4.4721 H   0  0  0  0  0  0  0  0  0  0  0  0
    1.3767   -2.1173    1.4640 H   0  0  0  0  0  0  0  0  0  0  0  0
    0.9278   -0.0207    0.9761 H   0  0  0  0  0  0  0  0  0  0  0  0
    1.8013    2.3517    2.0601 H   0  0  0  0  0  0  0  0  0  0  0  0
    0.3570    2.1390    1.1241 H   0  0  0  0  0  0  0  0  0  0  0  0
    1.6585    2.2398    4.6228 H   0  0  0  0  0  0  0  0  0  0  0  0
    0.2523    2.6579    6.6012 H   0  0  0  0  0  0  0  0  0  0  0  0
   -2.2238    2.8859    6.3476 H   0  0  0  0  0  0  0  0  0  0  0  0
   -3.2607    2.6142    4.0825 H   0  0  0  0  0  0  0  0  0  0  0  0
   -1.8440    2.1014    2.1174 H   0  0  0  0  0  0  0  0  0  0  0  0
    2.3430   -3.2377   -4.4260 H   0  0  0  0  0  0  0  0  0  0  0  0
  1  2  1  0
  1 29  1  0
  1 30  1  0
  2  3  1  0
  2 10  1  0
  2 31  1  1
  3  4  1  0
  3 32  1  0
  3 33  1  0
  4  9  1  0
  4  5  1  0
  4 34  1  0
  5  6  1  0
  5 35  1  0
  5 36  1  0
  6  7  1  0
  6 37  1  0
  6 38  1  0
  7  8  1  0
  7 39  1  0
  7 61  1  0
  8  9  1  0
  8 40  1  0
  8 41  1  0
  9 42  1  0
  9 43  1  0
 10 11  2  0
 10 12  1  0
 12 18  1  0
 12 13  1  0
 13 14  1  0
 13 44  1  0
 13 45  1  0
 14 16  1  0
 14 15  1  0
 14 17  1  0
 15 16  1  0
 15 46  1  0
 15 47  1  0
 16 48  1  0
 16 49  1  0
 17 18  1  0
 17 50  1  0
 17 51  1  0
 18 19  1  0
 18 52  1  6
 19 20  2  0
 19 21  1  0
 21 22  1  0
 21 53  1  0
 22 23  1  0
 22 54  1  0
 22 55  1  0
 23 28  1  0
 23 24  2  0
 24 25  1  0
 24 56  1  0
 25 26  2  0
 25 57  1  0
 26 27  1  0
 26 58  1  0
 27 28  2  0
 27 59  1  0
 28 60  1  0
M  CHG  1   7   1
M  END
>  <i_m_ct_stereo_status>  (221) 
1

>  <s_m_source_file>  (221) 
/var/tmp/pbs.5076255.sched01/tmpn8rdt6mw/90ee43ygr2.sdf

>  <i_m_source_file_index>  (221) 
5

>  <i_lp_mmshare_version>  (221) 
48012

>  <i_f3d_flags>  (221) 
0

>  <s_epik_input>  (221) 
W0NIMl0xW0NIMl1bTkhdW0NIMl1bQ0gyXVtDSF0xW0NIMl1bQ0BASF0oW05IMl0pQyg9TylOKFtDSDJdQzIzW0NIMl1bQ0gyXTIpW0NAQEhdKFtDSDJdMylDKD1PKVtOSF1bQ0gyXWM0W2NIXVtjSF1bY0hdW2NIXVtjSF00

>  <s_epik_cmdline>  (221) 
J2VwaWtfcHl0aG9uJywgJy1waHQnLCAnMi4wJywgJy1waCcsICc3LjAnLCAnLXRuJywgJzgnLCAnLW1hJywgJzIwMCcsICctaW1hZScsICc8aW5maWxlLm1hZT4nLCAnLW9tYWUnLCAnPG91dGZpbGUubWFlPic=

>  <r_epik_Ionization_Penalty>  (221) 
1.00472

>  <r_epik_Ionization_Penalty_Charging>  (221) 
0.000243826

>  <r_epik_Ionization_Penalty_Neutral>  (221) 
1.00448

>  <r_epik_State_Penalty>  (221) 
1.05334

>  <r_epik_Charging_Adjusted_Penalty>  (221) 
1.05359

>  <i_epik_Tot_Q>  (221) 
1

>  <i_epik_Tot_abs_Q>  (221) 
1

>  <s_lp_Force_Field>  (221) 
OPLS3e

>  <r_lp_Energy>  (221) 
30.9527

>  <b_lp_Chiralities_Consistent>  (221) 
1

>  <s_lp_Variant>  (221) 
57:0-2

>  <s_i_glide_gridfile>  (221) 
pfpi4k_grid

>  <i_i_glide_lignum>  (221) 
5

>  <i_i_glide_rotatable_bonds>  (221) 
8

>  <r_i_docking_score>  (221) 
-3.6561

>  <r_i_glide_ligand_efficiency>  (221) 
-0.130575

>  <r_i_glide_ligand_efficiency_sa>  (221) 
-0.396503

>  <r_i_glide_ligand_efficiency_ln>  (221) 
-0.843936

>  <r_i_glide_gscore>  (221) 
-3.6561

>  <r_i_glide_lipo>  (221) 
-0.448792

>  <r_i_glide_hbond>  (221) 
-0.31075

>  <r_i_glide_metal>  (221) 
-0

>  <r_i_glide_rewards>  (221) 
-0.780525

>  <r_i_glide_evdw>  (221) 
-30.6773

>  <r_i_glide_ecoul>  (221) 
-8.43666

>  <r_i_glide_erotb>  (221) 
0.785339

>  <r_i_glide_esite>  (221) 
-0.102008

>  <r_i_glide_emodel>  (221) 
-44.8107

>  <r_i_glide_energy>  (221) 
-39.114

>  <r_i_glide_einternal>  (221) 
8.40276

>  <r_i_glide_intrahb_reward>  (221) 
-0

>  <i_i_glide_confnum>  (221) 
9

>  <i_i_glide_posenum>  (221) 
33

>  <r_i_glide_eff_state_penalty>  (221) 
0

>  <ligand_id>  (221) 
57

>  <original_smiles>  (221) 
NC(CC1CCNCC1)C(=O)N1CC2(CC2)CC1C(=O)NCc1ccccc1

>  <smiles>  (221) 
[H]c1c([H])c([H])c(C([H])([H])N([H])C(=O)C2([H])N(C(=O)C([H])(N([H])[H])C([H])([H])C3([H])C([H])([H])C([H])([H])[N+]([H])([H])C([H])([H])C3([H])[H])C([H])([H])C3(C2([H])[H])C([H])([H])C3([H])[H])c([H])c1[H]

$$$$
57:1:1
     RDKit          3D

 61 64  0  0  1  0  0  0  0  0999 V2000
    4.5196   -1.6835    3.0276 N   0  0  0  0  0  0  0  0  0  0  0  0
    3.6568   -1.7017    1.8443 C   0  0  2  0  0  0  0  0  0  0  0  0
    4.4918   -2.0857    0.5931 C   0  0  0  0  0  0  0  0  0  0  0  0
    3.7173   -2.0899   -0.7530 C   0  0  0  0  0  0  0  0  0  0  0  0
    2.8552   -3.3538   -0.9040 C   0  0  0  0  0  0  0  0  0  0  0  0
    2.1135   -3.3595   -2.2527 C   0  0  0  0  0  0  0  0  0  0  0  0
    3.0729   -3.2273   -3.3731 N   0  0  0  0  0  0  0  0  0  0  0  0
    3.8564   -1.9681   -3.2896 C   0  0  0  0  0  0  0  0  0  0  0  0
    4.6480   -1.9189   -1.9692 C   0  0  0  0  0  0  0  0  0  0  0  0
    2.9696   -0.3366    1.6820 C   0  0  0  0  0  0  0  0  0  0  0  0
    3.5417    0.5404    1.0639 O   0  0  0  0  0  0  0  0  0  0  0  0
    1.7450   -0.1243    2.2596 N   0  0  0  0  0  0  0  0  0  0  0  0
    1.0791   -1.0682    3.1438 C   0  0  0  0  0  0  0  0  0  0  0  0
   -0.0981   -0.3242    3.7491 C   0  0  0  0  0  0  0  0  0  0  0  0
   -0.2324   -0.1702    5.2653 C   0  0  0  0  0  0  0  0  0  0  0  0
   -1.1898   -1.0558    4.4979 C   0  0  0  0  0  0  0  0  0  0  0  0
   -0.3122    0.8511    2.8265 C   0  0  0  0  0  0  0  0  0  0  0  0
    1.0507    1.1608    2.2190 C   0  0  1  0  0  0  0  0  0  0  0  0
    1.8139    2.2366    3.0085 C   0  0  0  0  0  0  0  0  0  0  0  0
    2.4128    1.9632    4.0445 O   0  0  0  0  0  0  0  0  0  0  0  0
    1.8222    3.4756    2.4785 N   0  0  0  0  0  0  0  0  0  0  0  0
    2.5578    4.5860    3.0588 C   0  0  0  0  0  0  0  0  0  0  0  0
    1.9885    5.0678    4.3921 C   0  0  0  0  0  0  0  0  0  0  0  0
    2.8405    5.6679    5.3425 C   0  0  0  0  0  0  0  0  0  0  0  0
    2.3193    6.1184    6.5745 C   0  0  0  0  0  0  0  0  0  0  0  0
    0.9514    5.9654    6.8631 C   0  0  0  0  0  0  0  0  0  0  0  0
    0.0980    5.3579    5.9238 C   0  0  0  0  0  0  0  0  0  0  0  0
    0.6124    4.9186    4.6878 C   0  0  0  0  0  0  0  0  0  0  0  0
    3.9951   -1.5843    3.8837 H   0  0  0  0  0  0  0  0  0  0  0  0
    5.0841   -2.5160    3.1255 H   0  0  0  0  0  0  0  0  0  0  0  0
    2.9098   -2.4754    1.9918 H   0  0  0  0  0  0  0  0  0  0  0  0
    5.3574   -1.4203    0.5268 H   0  0  0  0  0  0  0  0  0  0  0  0
    4.9188   -3.0804    0.7555 H   0  0  0  0  0  0  0  0  0  0  0  0
    3.0423   -1.2397   -0.8035 H   0  0  0  0  0  0  0  0  0  0  0  0
    3.4949   -4.2341   -0.8447 H   0  0  0  0  0  0  0  0  0  0  0  0
    2.1331   -3.4348   -0.0902 H   0  0  0  0  0  0  0  0  0  0  0  0
    1.5300   -4.2760   -2.3421 H   0  0  0  0  0  0  0  0  0  0  0  0
    1.4042   -2.5402   -2.3215 H   0  0  0  0  0  0  0  0  0  0  0  0
    3.6955   -4.0218   -3.3151 H   0  0  0  0  0  0  0  0  0  0  0  0
    4.5280   -1.8920   -4.1438 H   0  0  0  0  0  0  0  0  0  0  0  0
    3.1691   -1.1228   -3.3564 H   0  0  0  0  0  0  0  0  0  0  0  0
    5.1681   -0.9620   -1.8998 H   0  0  0  0  0  0  0  0  0  0  0  0
    5.4097   -2.6948   -1.9627 H   0  0  0  0  0  0  0  0  0  0  0  0
    0.7180   -1.9117    2.5567 H   0  0  0  0  0  0  0  0  0  0  0  0
    1.7625   -1.4104    3.9169 H   0  0  0  0  0  0  0  0  0  0  0  0
    0.5236   -0.6584    5.8778 H   0  0  0  0  0  0  0  0  0  0  0  0
   -0.6302    0.7571    5.6701 H   0  0  0  0  0  0  0  0  0  0  0  0
   -2.2086   -0.7176    4.3668 H   0  0  0  0  0  0  0  0  0  0  0  0
   -1.0454   -2.1300    4.5694 H   0  0  0  0  0  0  0  0  0  0  0  0
   -1.0292    0.5509    2.0574 H   0  0  0  0  0  0  0  0  0  0  0  0
   -0.7354    1.6693    3.3928 H   0  0  0  0  0  0  0  0  0  0  0  0
    0.8736    1.4604    1.1940 H   0  0  0  0  0  0  0  0  0  0  0  0
    1.2121    3.6986    1.7005 H   0  0  0  0  0  0  0  0  0  0  0  0
    3.6071    4.3130    3.1612 H   0  0  0  0  0  0  0  0  0  0  0  0
    2.5101    5.4117    2.3520 H   0  0  0  0  0  0  0  0  0  0  0  0
    3.8959    5.7808    5.1241 H   0  0  0  0  0  0  0  0  0  0  0  0
    2.9773    6.5806    7.2936 H   0  0  0  0  0  0  0  0  0  0  0  0
    0.5529    6.3098    7.8057 H   0  0  0  0  0  0  0  0  0  0  0  0
   -0.9543    5.2238    6.1396 H   0  0  0  0  0  0  0  0  0  0  0  0
   -0.0559    4.4547    3.9700 H   0  0  0  0  0  0  0  0  0  0  0  0
    2.5644   -3.2782   -4.2516 H   0  0  0  0  0  0  0  0  0  0  0  0
  1  2  1  0
  1 29  1  0
  1 30  1  0
  2  3  1  0
  2 10  1  0
  2 31  1  1
  3  4  1  0
  3 32  1  0
  3 33  1  0
  4  9  1  0
  4  5  1  0
  4 34  1  0
  5  6  1  0
  5 35  1  0
  5 36  1  0
  6  7  1  0
  6 37  1  0
  6 38  1  0
  7  8  1  0
  7 39  1  0
  7 61  1  0
  8  9  1  0
  8 40  1  0
  8 41  1  0
  9 42  1  0
  9 43  1  0
 10 11  2  0
 10 12  1  0
 12 18  1  0
 12 13  1  0
 13 14  1  0
 13 44  1  0
 13 45  1  0
 14 16  1  0
 14 15  1  0
 14 17  1  0
 15 16  1  0
 15 46  1  0
 15 47  1  0
 16 48  1  0
 16 49  1  0
 17 18  1  0
 17 50  1  0
 17 51  1  0
 18 19  1  0
 18 52  1  6
 19 20  2  0
 19 21  1  0
 21 22  1  0
 21 53  1  0
 22 23  1  0
 22 54  1  0
 22 55  1  0
 23 28  1  0
 23 24  2  0
 24 25  1  0
 24 56  1  0
 25 26  2  0
 25 57  1  0
 26 27  1  0
 26 58  1  0
 27 28  2  0
 27 59  1  0
 28 60  1  0
M  CHG  1   7   1
M  END
>  <i_m_ct_stereo_status>  (222) 
1

>  <s_m_source_file>  (222) 
/var/tmp/pbs.5076255.sched01/tmpn8rdt6mw/90ee43ygr2.sdf

>  <i_m_source_file_index>  (222) 
5

>  <i_lp_mmshare_version>  (222) 
48012

>  <i_f3d_flags>  (222) 
0

>  <s_epik_input>  (222) 
W0NIMl0xW0NIMl1bTkhdW0NIMl1bQ0gyXVtDSF0xW0NIMl1bQ0BASF0oW05IMl0pQyg9TylOKFtDSDJdQzIzW0NIMl1bQ0gyXTIpW0NAQEhdKFtDSDJdMylDKD1PKVtOSF1bQ0gyXWM0W2NIXVtjSF1bY0hdW2NIXVtjSF00

>  <s_epik_cmdline>  (222) 
J2VwaWtfcHl0aG9uJywgJy1waHQnLCAnMi4wJywgJy1waCcsICc3LjAnLCAnLXRuJywgJzgnLCAnLW1hJywgJzIwMCcsICctaW1hZScsICc8aW5maWxlLm1hZT4nLCAnLW9tYWUnLCAnPG91dGZpbGUubWFlPic=

>  <r_epik_Ionization_Penalty>  (222) 
1.00472

>  <r_epik_Ionization_Penalty_Charging>  (222) 
0.000243826

>  <r_epik_Ionization_Penalty_Neutral>  (222) 
1.00448

>  <r_epik_State_Penalty>  (222) 
1.05334

>  <r_epik_Charging_Adjusted_Penalty>  (222) 
1.05359

>  <i_epik_Tot_Q>  (222) 
1

>  <i_epik_Tot_abs_Q>  (222) 
1

>  <s_lp_Force_Field>  (222) 
OPLS3e

>  <r_lp_Energy>  (222) 
30.9527

>  <b_lp_Chiralities_Consistent>  (222) 
1

>  <s_lp_Variant>  (222) 
57:0-2

>  <s_i_glide_gridfile>  (222) 
pfpi4k_grid

>  <i_i_glide_lignum>  (222) 
5

>  <i_i_glide_rotatable_bonds>  (222) 
8

>  <r_i_docking_score>  (222) 
-3.46

>  <r_i_glide_ligand_efficiency>  (222) 
-0.123572

>  <r_i_glide_ligand_efficiency_sa>  (222) 
-0.375236

>  <r_i_glide_ligand_efficiency_ln>  (222) 
-0.79867

>  <r_i_glide_gscore>  (222) 
-3.46

>  <r_i_glide_lipo>  (222) 
-0.443112

>  <r_i_glide_hbond>  (222) 
-0.16

>  <r_i_glide_metal>  (222) 
-0

>  <r_i_glide_rewards>  (222) 
-0.780525

>  <r_i_glide_evdw>  (222) 
-26.5963

>  <r_i_glide_ecoul>  (222) 
-8.83924

>  <r_i_glide_erotb>  (222) 
0.785339

>  <r_i_glide_esite>  (222) 
-0.206004

>  <r_i_glide_emodel>  (222) 
-43.6817

>  <r_i_glide_energy>  (222) 
-35.4356

>  <r_i_glide_einternal>  (222) 
2.8214

>  <r_i_glide_intrahb_reward>  (222) 
-0

>  <i_i_glide_confnum>  (222) 
7

>  <i_i_glide_posenum>  (222) 
28

>  <r_i_glide_eff_state_penalty>  (222) 
0

>  <ligand_id>  (222) 
57

>  <original_smiles>  (222) 
NC(CC1CCNCC1)C(=O)N1CC2(CC2)CC1C(=O)NCc1ccccc1

>  <smiles>  (222) 
[H]c1c([H])c([H])c(C([H])([H])N([H])C(=O)C2([H])N(C(=O)C([H])(N([H])[H])C([H])([H])C3([H])C([H])([H])C([H])([H])[N+]([H])([H])C([H])([H])C3([H])[H])C([H])([H])C3(C2([H])[H])C([H])([H])C3([H])[H])c([H])c1[H]

$$$$
57:1:2
     RDKit          3D

 61 64  0  0  1  0  0  0  0  0999 V2000
    3.6345   -0.0997    4.5213 N   0  0  0  0  0  0  0  0  0  0  0  0
    3.0931   -1.0276    3.5223 C   0  0  2  0  0  0  0  0  0  0  0  0
    3.5765   -0.6155    2.0894 C   0  0  0  0  0  0  0  0  0  0  0  0
    3.7619   -1.7943    1.1075 C   0  0  0  0  0  0  0  0  0  0  0  0
    4.0110   -1.2624   -0.3227 C   0  0  0  0  0  0  0  0  0  0  0  0
    4.1797   -2.4126   -1.3361 C   0  0  0  0  0  0  0  0  0  0  0  0
    2.9968   -3.3000   -1.3089 N   0  0  0  0  0  0  0  0  0  0  0  0
    2.7916   -3.9000    0.0235 C   0  0  0  0  0  0  0  0  0  0  0  0
    2.5858   -2.7999    1.0805 C   0  0  0  0  0  0  0  0  0  0  0  0
    1.5405   -1.0531    3.6259 C   0  0  0  0  0  0  0  0  0  0  0  0
    0.8644   -0.4252    2.8211 O   0  0  0  0  0  0  0  0  0  0  0  0
    0.9408   -1.7952    4.5962 N   0  0  0  0  0  0  0  0  0  0  0  0
    1.6179   -2.8753    5.3089 C   0  0  0  0  0  0  0  0  0  0  0  0
    0.5314   -3.6670    6.0315 C   0  0  0  0  0  0  0  0  0  0  0  0
    0.8501   -4.7376    7.0511 C   0  0  0  0  0  0  0  0  0  0  0  0
    0.2892   -5.1268    5.7039 C   0  0  0  0  0  0  0  0  0  0  0  0
   -0.6038   -2.7242    6.1506 C   0  0  0  0  0  0  0  0  0  0  0  0
   -0.4989   -1.7614    4.9546 C   0  0  1  0  0  0  0  0  0  0  0  0
   -1.1050   -0.3604    5.3056 C   0  0  0  0  0  0  0  0  0  0  0  0
   -1.5346   -0.1340    6.4255 O   0  0  0  0  0  0  0  0  0  0  0  0
   -1.1248    0.5387    4.3168 N   0  0  0  0  0  0  0  0  0  0  0  0
   -1.6276    1.8892    4.2988 C   0  0  0  0  0  0  0  0  0  0  0  0
   -1.3266    2.6805    5.5589 C   0  0  0  0  0  0  0  0  0  0  0  0
   -2.3776    2.9274    6.4657 C   0  0  0  0  0  0  0  0  0  0  0  0
   -2.1295    3.5782    7.6870 C   0  0  0  0  0  0  0  0  0  0  0  0
   -0.8202    3.9946    8.0013 C   0  0  0  0  0  0  0  0  0  0  0  0
    0.2420    3.7482    7.1053 C   0  0  0  0  0  0  0  0  0  0  0  0
   -0.0069    3.0831    5.8844 C   0  0  0  0  0  0  0  0  0  0  0  0
    3.4943   -0.4371    5.4644 H   0  0  0  0  0  0  0  0  0  0  0  0
    4.6241    0.0638    4.4138 H   0  0  0  0  0  0  0  0  0  0  0  0
    3.5337   -2.0114    3.7592 H   0  0  0  0  0  0  0  0  0  0  0  0
    2.9090    0.1143    1.6221 H   0  0  0  0  0  0  0  0  0  0  0  0
    4.5073   -0.0554    2.1541 H   0  0  0  0  0  0  0  0  0  0  0  0
    4.6470   -2.3350    1.4430 H   0  0  0  0  0  0  0  0  0  0  0  0
    3.1628   -0.6573   -0.6215 H   0  0  0  0  0  0  0  0  0  0  0  0
    4.8817   -0.5996   -0.3410 H   0  0  0  0  0  0  0  0  0  0  0  0
    4.3182   -2.0168   -2.3409 H   0  0  0  0  0  0  0  0  0  0  0  0
    5.0739   -2.9888   -1.0922 H   0  0  0  0  0  0  0  0  0  0  0  0
    2.1832   -2.7415   -1.5298 H   0  0  0  0  0  0  0  0  0  0  0  0
    1.9369   -4.5760   -0.0051 H   0  0  0  0  0  0  0  0  0  0  0  0
    3.6592   -4.5064    0.2875 H   0  0  0  0  0  0  0  0  0  0  0  0
    2.4569   -3.2834    2.0497 H   0  0  0  0  0  0  0  0  0  0  0  0
    1.6608   -2.2581    0.8785 H   0  0  0  0  0  0  0  0  0  0  0  0
    2.1622   -3.5426    4.6378 H   0  0  0  0  0  0  0  0  0  0  0  0
    2.3042   -2.4543    6.0432 H   0  0  0  0  0  0  0  0  0  0  0  0
    1.9011   -4.9413    7.2360 H   0  0  0  0  0  0  0  0  0  0  0  0
    0.2006   -4.8531    7.9221 H   0  0  0  0  0  0  0  0  0  0  0  0
   -0.7342   -5.5072    5.6849 H   0  0  0  0  0  0  0  0  0  0  0  0
    0.9633   -5.5976    4.9940 H   0  0  0  0  0  0  0  0  0  0  0  0
   -1.5541   -3.2642    6.1291 H   0  0  0  0  0  0  0  0  0  0  0  0
   -0.4974   -2.2084    7.0980 H   0  0  0  0  0  0  0  0  0  0  0  0
   -1.0599   -2.1940    4.1082 H   0  0  0  0  0  0  0  0  0  0  0  0
   -0.6103    0.2581    3.4725 H   0  0  0  0  0  0  0  0  0  0  0  0
   -1.1786    2.4238    3.4462 H   0  0  0  0  0  0  0  0  0  0  0  0
   -2.7100    1.8672    4.0872 H   0  0  0  0  0  0  0  0  0  0  0  0
   -3.3632    2.5751    6.2286 H   0  0  0  0  0  0  0  0  0  0  0  0
   -2.9418    3.7366    8.3711 H   0  0  0  0  0  0  0  0  0  0  0  0
   -0.6378    4.4981    8.9404 H   0  0  0  0  0  0  0  0  0  0  0  0
    1.2416    4.0568    7.3615 H   0  0  0  0  0  0  0  0  0  0  0  0
    0.8128    2.8671    5.2151 H   0  0  0  0  0  0  0  0  0  0  0  0
    3.0824   -4.0404   -1.9931 H   0  0  0  0  0  0  0  0  0  0  0  0
  1  2  1  0
  1 29  1  0
  1 30  1  0
  2  3  1  0
  2 10  1  0
  2 31  1  1
  3  4  1  0
  3 32  1  0
  3 33  1  0
  4  9  1  0
  4  5  1  0
  4 34  1  0
  5  6  1  0
  5 35  1  0
  5 36  1  0
  6  7  1  0
  6 37  1  0
  6 38  1  0
  7  8  1  0
  7 39  1  0
  7 61  1  0
  8  9  1  0
  8 40  1  0
  8 41  1  0
  9 42  1  0
  9 43  1  0
 10 11  2  0
 10 12  1  0
 12 18  1  0
 12 13  1  0
 13 14  1  0
 13 44  1  0
 13 45  1  0
 14 16  1  0
 14 15  1  0
 14 17  1  0
 15 16  1  0
 15 46  1  0
 15 47  1  0
 16 48  1  0
 16 49  1  0
 17 18  1  0
 17 50  1  0
 17 51  1  0
 18 19  1  0
 18 52  1  6
 19 20  2  0
 19 21  1  0
 21 22  1  0
 21 53  1  0
 22 23  1  0
 22 54  1  0
 22 55  1  0
 23 28  1  0
 23 24  2  0
 24 25  1  0
 24 56  1  0
 25 26  2  0
 25 57  1  0
 26 27  1  0
 26 58  1  0
 27 28  2  0
 27 59  1  0
 28 60  1  0
M  CHG  1   7   1
M  END
>  <i_m_ct_stereo_status>  (223) 
1

>  <s_m_source_file>  (223) 
/var/tmp/pbs.5076255.sched01/tmpn8rdt6mw/90ee43ygr2.sdf

>  <i_m_source_file_index>  (223) 
5

>  <i_lp_mmshare_version>  (223) 
48012

>  <i_f3d_flags>  (223) 
0

>  <s_epik_input>  (223) 
W0NIMl0xW0NIMl1bTkhdW0NIMl1bQ0gyXVtDSF0xW0NIMl1bQ0BASF0oW05IMl0pQyg9TylOKFtDSDJdQzIzW0NIMl1bQ0gyXTIpW0NAQEhdKFtDSDJdMylDKD1PKVtOSF1bQ0gyXWM0W2NIXVtjSF1bY0hdW2NIXVtjSF00

>  <s_epik_cmdline>  (223) 
J2VwaWtfcHl0aG9uJywgJy1waHQnLCAnMi4wJywgJy1waCcsICc3LjAnLCAnLXRuJywgJzgnLCAnLW1hJywgJzIwMCcsICctaW1hZScsICc8aW5maWxlLm1hZT4nLCAnLW9tYWUnLCAnPG91dGZpbGUubWFlPic=

>  <r_epik_Ionization_Penalty>  (223) 
1.00472

>  <r_epik_Ionization_Penalty_Charging>  (223) 
0.000243826

>  <r_epik_Ionization_Penalty_Neutral>  (223) 
1.00448

>  <r_epik_State_Penalty>  (223) 
1.05334

>  <r_epik_Charging_Adjusted_Penalty>  (223) 
1.05359

>  <i_epik_Tot_Q>  (223) 
1

>  <i_epik_Tot_abs_Q>  (223) 
1

>  <s_lp_Force_Field>  (223) 
OPLS3e

>  <r_lp_Energy>  (223) 
30.9527

>  <b_lp_Chiralities_Consistent>  (223) 
1

>  <s_lp_Variant>  (223) 
57:0-2

>  <s_i_glide_gridfile>  (223) 
pfpi4k_grid

>  <i_i_glide_lignum>  (223) 
5

>  <i_i_glide_rotatable_bonds>  (223) 
8

>  <r_i_docking_score>  (223) 
-3.37955

>  <r_i_glide_ligand_efficiency>  (223) 
-0.120698

>  <r_i_glide_ligand_efficiency_sa>  (223) 
-0.366511

>  <r_i_glide_ligand_efficiency_ln>  (223) 
-0.7801

>  <r_i_glide_gscore>  (223) 
-3.37955

>  <r_i_glide_lipo>  (223) 
-0.202182

>  <r_i_glide_hbond>  (223) 
-0.17744

>  <r_i_glide_metal>  (223) 
-0

>  <r_i_glide_rewards>  (223) 
-1.28187

>  <r_i_glide_evdw>  (223) 
-22.4576

>  <r_i_glide_ecoul>  (223) 
-8.7363

>  <r_i_glide_erotb>  (223) 
0.785339

>  <r_i_glide_esite>  (223) 
-0.0700753

>  <r_i_glide_emodel>  (223) 
-42.208

>  <r_i_glide_energy>  (223) 
-31.1939

>  <r_i_glide_einternal>  (223) 
7.0358

>  <r_i_glide_intrahb_reward>  (223) 
-0.5

>  <i_i_glide_confnum>  (223) 
9

>  <i_i_glide_posenum>  (223) 
11

>  <r_i_glide_eff_state_penalty>  (223) 
0

>  <ligand_id>  (223) 
57

>  <original_smiles>  (223) 
NC(CC1CCNCC1)C(=O)N1CC2(CC2)CC1C(=O)NCc1ccccc1

>  <smiles>  (223) 
[H]c1c([H])c([H])c(C([H])([H])N([H])C(=O)C2([H])N(C(=O)C([H])(N([H])[H])C([H])([H])C3([H])C([H])([H])C([H])([H])[N+]([H])([H])C([H])([H])C3([H])[H])C([H])([H])C3(C2([H])[H])C([H])([H])C3([H])[H])c([H])c1[H]

$$$$
59:0:0
     RDKit          3D

 47 50  0  0  1  0  0  0  0  0999 V2000
   -2.9686    3.6885    8.4593 C   0  0  0  0  0  0  0  0  0  0  0  0
   -1.8876    3.1131    7.5174 C   0  0  2  0  0  0  0  0  0  0  0  0
   -2.2068    3.2991    6.0259 C   0  0  0  0  0  0  0  0  0  0  0  0
   -1.4959    2.1706    5.2682 C   0  0  0  0  0  0  0  0  0  0  0  0
   -1.2925    1.0925    6.2916 C   0  0  0  0  0  0  0  0  0  0  0  0
   -0.8609   -0.1079    6.0617 N   0  0  0  0  0  0  0  0  0  0  0  0
   -0.5414   -0.4219    4.8068 N   0  0  0  0  0  0  0  0  0  0  0  0
    0.2196   -1.4712    4.4322 C   0  0  0  0  0  0  0  0  0  0  0  0
    0.1009   -2.6758    5.0486 N   0  0  0  0  0  0  0  0  0  0  0  0
    0.8430   -3.7068    4.6094 C   0  0  0  0  0  0  0  0  0  0  0  0
    1.7265   -3.7504    3.6083 N   0  0  0  0  0  0  0  0  0  0  0  0
    1.8482   -2.5367    2.9899 C   0  0  0  0  0  0  0  0  0  0  0  0
    1.1215   -1.3613    3.3420 C   0  0  0  0  0  0  0  0  0  0  0  0
    1.4829   -0.3269    2.4896 N   0  0  0  0  0  0  0  0  0  0  0  0
    2.3661   -0.8667    1.6874 C   0  0  0  0  0  0  0  0  0  0  0  0
    2.6514   -2.1990    1.9186 N   0  0  0  0  0  0  0  0  0  0  0  0
    3.5915   -3.1048    1.1744 C   0  0  2  0  0  0  0  0  0  0  0  0
    4.8172   -2.4392    1.0256 O   0  0  0  0  0  0  0  0  0  0  0  0
    5.3223   -2.6044   -0.3035 C   0  0  1  0  0  0  0  0  0  0  0  0
    6.8247   -2.9660   -0.3570 C   0  0  0  0  0  0  0  0  0  0  0  0
    4.3868   -3.6274   -0.9657 C   0  0  1  0  0  0  0  0  0  0  0  0
    4.8508   -4.9508   -0.7434 O   0  0  0  0  0  0  0  0  0  0  0  0
    3.0749   -3.3781   -0.2390 C   0  0  1  0  0  0  0  0  0  0  0  0
    2.2289   -4.5092   -0.3291 O   0  0  0  0  0  0  0  0  0  0  0  0
   -1.6476    1.6004    7.6689 C   0  0  0  0  0  0  0  0  0  0  0  0
   -0.6613    0.2991    4.1126 H   0  0  0  0  0  0  0  0  0  0  0  0
   -3.9397    3.2349    8.2783 H   0  0  0  0  0  0  0  0  0  0  0  0
   -3.0854    4.7598    8.3155 H   0  0  0  0  0  0  0  0  0  0  0  0
   -2.7264    3.5328    9.5091 H   0  0  0  0  0  0  0  0  0  0  0  0
   -0.9411    3.6204    7.7162 H   0  0  0  0  0  0  0  0  0  0  0  0
   -3.2867    3.2262    5.8771 H   0  0  0  0  0  0  0  0  0  0  0  0
   -1.8889    4.2792    5.6677 H   0  0  0  0  0  0  0  0  0  0  0  0
   -2.0933    1.8426    4.4186 H   0  0  0  0  0  0  0  0  0  0  0  0
   -0.5309    2.5263    4.9126 H   0  0  0  0  0  0  0  0  0  0  0  0
    0.7090   -4.6525    5.1150 H   0  0  0  0  0  0  0  0  0  0  0  0
    2.8351   -0.3010    0.8980 H   0  0  0  0  0  0  0  0  0  0  0  0
    3.7408   -4.0063    1.7738 H   0  0  0  0  0  0  0  0  0  0  0  0
    5.1801   -1.6456   -0.8046 H   0  0  0  0  0  0  0  0  0  0  0  0
    7.1594   -3.0978   -1.3888 H   0  0  0  0  0  0  0  0  0  0  0  0
    7.0294   -3.9021    0.1620 H   0  0  0  0  0  0  0  0  0  0  0  0
    7.4554   -2.2049    0.1048 H   0  0  0  0  0  0  0  0  0  0  0  0
    4.3024   -3.4578   -2.0433 H   0  0  0  0  0  0  0  0  0  0  0  0
    4.3115   -5.5455   -1.2518 H   0  0  0  0  0  0  0  0  0  0  0  0
    2.6146   -2.4720   -0.6341 H   0  0  0  0  0  0  0  0  0  0  0  0
    2.2567   -4.8255   -1.2290 H   0  0  0  0  0  0  0  0  0  0  0  0
   -0.8588    1.3859    8.3953 H   0  0  0  0  0  0  0  0  0  0  0  0
   -2.5670    1.1262    8.0058 H   0  0  0  0  0  0  0  0  0  0  0  0
  1  2  1  0
  1 27  1  0
  1 28  1  0
  1 29  1  0
  2 25  1  0
  2  3  1  0
  2 30  1  1
  3  4  1  0
  3 31  1  0
  3 32  1  0
  4  5  1  0
  4 33  1  0
  4 34  1  0
  5  6  2  3
  5 25  1  0
  6  7  1  0
  7  8  1  0
  7 26  1  0
  8 13  1  0
  8  9  2  0
  9 10  1  0
 10 35  1  0
 10 11  2  0
 11 12  1  0
 12 16  1  0
 12 13  2  0
 13 14  1  0
 14 15  2  0
 15 36  1  0
 15 16  1  0
 16 17  1  0
 17 23  1  0
 17 18  1  0
 17 37  1  1
 18 19  1  0
 19 20  1  0
 19 21  1  0
 19 38  1  6
 20 39  1  0
 20 40  1  0
 20 41  1  0
 21 22  1  0
 21 23  1  0
 21 42  1  6
 22 43  1  0
 23 24  1  0
 23 44  1  6
 24 45  1  0
 25 46  1  0
 25 47  1  0
M  END
>  <i_m_ct_stereo_status>  (224) 
1

>  <s_m_source_file>  (224) 
/var/tmp/pbs.5076255.sched01/tmpn8rdt6mw/90ee43ygr2.sdf

>  <i_m_source_file_index>  (224) 
7

>  <i_lp_mmshare_version>  (224) 
48012

>  <i_f3d_flags>  (224) 
0

>  <s_epik_input>  (224) 
W0NIM11bQ0BASF0xW0NIMl1bQ0gyXS9DKFtDSDJdMSk9TlxOPWMoXFtuSF1bY0hdbjIpYyhjMjMpbltjSF1uM1tDQEBIXTRPW0NAQEhdKFtDSDNdKVtDQEBIXShbT0hdKVtDQEhdNFtPSF0=

>  <s_epik_cmdline>  (224) 
J2VwaWtfcHl0aG9uJywgJy1waHQnLCAnMi4wJywgJy1waCcsICc3LjAnLCAnLXRuJywgJzgnLCAnLW1hJywgJzIwMCcsICctaW1hZScsICc8aW5maWxlLm1hZT4nLCAnLW9tYWUnLCAnPG91dGZpbGUubWFlPic=

>  <r_lp_tautomer_probability>  (224) 
1

>  <r_epik_Ionization_Penalty>  (224) 
0.00525096

>  <r_epik_Ionization_Penalty_Charging>  (224) 
0

>  <r_epik_Ionization_Penalty_Neutral>  (224) 
0.00525096

>  <r_epik_State_Penalty>  (224) 
-0

>  <r_epik_Charging_Adjusted_Penalty>  (224) 
0

>  <i_epik_Tot_Q>  (224) 
0

>  <i_epik_Tot_abs_Q>  (224) 
0

>  <s_epik_Chemistry_Notes>  (224) 
This compound has an imine and may undergo hydrolysis. This compound contains an acetal/aminal-like group ( X-CH(R)-Y where X, Y are N, S, or O) that may be acid/base labile, releasing an aldehyde.

>  <s_lp_Force_Field>  (224) 
OPLS3e

>  <r_lp_Energy>  (224) 
26.9499

>  <b_lp_Chiralities_Consistent>  (224) 
1

>  <s_lp_Variant>  (224) 
59:0-1

>  <s_i_glide_gridfile>  (224) 
pfpi4k_grid

>  <i_i_glide_lignum>  (224) 
7

>  <i_i_glide_rotatable_bonds>  (224) 
5

>  <r_i_docking_score>  (224) 
-3.55973

>  <r_i_glide_ligand_efficiency>  (224) 
-0.142389

>  <r_i_glide_ligand_efficiency_sa>  (224) 
-0.416349

>  <r_i_glide_ligand_efficiency_ln>  (224) 
-0.843763

>  <r_i_glide_gscore>  (224) 
-3.55973

>  <r_i_glide_lipo>  (224) 
-0.260911

>  <r_i_glide_hbond>  (224) 
0

>  <r_i_glide_metal>  (224) 
-0

>  <r_i_glide_rewards>  (224) 
-1.06218

>  <r_i_glide_evdw>  (224) 
-28.5442

>  <r_i_glide_ecoul>  (224) 
-7.55272

>  <r_i_glide_erotb>  (224) 
0.475357

>  <r_i_glide_esite>  (224) 
-0.15188

>  <r_i_glide_emodel>  (224) 
-43.4984

>  <r_i_glide_energy>  (224) 
-36.0969

>  <r_i_glide_einternal>  (224) 
2.45608

>  <r_i_glide_intrahb_reward>  (224) 
-0

>  <i_i_glide_confnum>  (224) 
4

>  <i_i_glide_posenum>  (224) 
3

>  <r_i_glide_eff_state_penalty>  (224) 
0

>  <ligand_id>  (224) 
59

>  <original_smiles>  (224) 
CC1CCC(=NN=c2[nH]cnc3c2ncn3C2OC(C)C(O)C2O)C1

>  <smiles>  (224) 
[H]OC1([H])C([H])(n2c([H])nc3c(N([H])N=C4C([H])([H])C([H])([H])C([H])(C([H])([H])[H])C4([H])[H])nc([H])nc32)OC([H])(C([H])([H])[H])C1([H])O[H]

$$$$
59:0:1
     RDKit          3D

 47 50  0  0  1  0  0  0  0  0999 V2000
    3.5773   -9.8481    2.4556 C   0  0  0  0  0  0  0  0  0  0  0  0
    2.8315   -8.5436    2.1158 C   0  0  2  0  0  0  0  0  0  0  0  0
    3.7608   -7.4067    1.6848 C   0  0  0  0  0  0  0  0  0  0  0  0
    3.0434   -6.0915    2.0337 C   0  0  0  0  0  0  0  0  0  0  0  0
    2.0753   -6.4576    3.1235 C   0  0  0  0  0  0  0  0  0  0  0  0
    1.3820   -5.6358    3.8337 N   0  0  0  0  0  0  0  0  0  0  0  0
    1.4347   -4.3340    3.5380 N   0  0  0  0  0  0  0  0  0  0  0  0
    0.8818   -3.3361    4.2654 C   0  0  0  0  0  0  0  0  0  0  0  0
    0.2298   -3.5959    5.4197 N   0  0  0  0  0  0  0  0  0  0  0  0
   -0.3328   -2.5920    6.0935 C   0  0  0  0  0  0  0  0  0  0  0  0
   -0.3799   -1.2945    5.7927 N   0  0  0  0  0  0  0  0  0  0  0  0
    0.2884   -1.0134    4.6369 C   0  0  0  0  0  0  0  0  0  0  0  0
    0.9598   -1.9814    3.8276 C   0  0  0  0  0  0  0  0  0  0  0  0
    1.5386   -1.3536    2.7429 N   0  0  0  0  0  0  0  0  0  0  0  0
    1.2340   -0.0932    2.9022 C   0  0  0  0  0  0  0  0  0  0  0  0
    0.4637    0.2088    4.0058 N   0  0  0  0  0  0  0  0  0  0  0  0
    0.0653    1.5749    4.5081 C   0  0  2  0  0  0  0  0  0  0  0  0
   -1.1186    1.4873    5.2527 O   0  0  0  0  0  0  0  0  0  0  0  0
   -2.0125    2.5415    4.9010 C   0  0  1  0  0  0  0  0  0  0  0  0
   -2.6562    3.1378    6.1667 C   0  0  0  0  0  0  0  0  0  0  0  0
   -1.2118    3.5023    4.0155 C   0  0  1  0  0  0  0  0  0  0  0  0
   -0.5573    4.4738    4.8217 O   0  0  0  0  0  0  0  0  0  0  0  0
   -0.2332    2.5429    3.3465 C   0  0  1  0  0  0  0  0  0  0  0  0
    0.8940    3.2600    2.8830 O   0  0  0  0  0  0  0  0  0  0  0  0
    2.0119   -7.9527    3.2800 C   0  0  0  0  0  0  0  0  0  0  0  0
    1.9684   -4.0550    2.7311 H   0  0  0  0  0  0  0  0  0  0  0  0
    4.3005   -9.7055    3.2543 H   0  0  0  0  0  0  0  0  0  0  0  0
    4.1318  -10.2189    1.5980 H   0  0  0  0  0  0  0  0  0  0  0  0
    2.8989  -10.6472    2.7546 H   0  0  0  0  0  0  0  0  0  0  0  0
    2.1436   -8.7350    1.2907 H   0  0  0  0  0  0  0  0  0  0  0  0
    4.6931   -7.4789    2.2438 H   0  0  0  0  0  0  0  0  0  0  0  0
    4.0263   -7.4748    0.6287 H   0  0  0  0  0  0  0  0  0  0  0  0
    3.7697   -5.3436    2.3598 H   0  0  0  0  0  0  0  0  0  0  0  0
    2.5158   -5.7221    1.1511 H   0  0  0  0  0  0  0  0  0  0  0  0
   -0.8317   -2.8612    7.0013 H   0  0  0  0  0  0  0  0  0  0  0  0
    1.5989    0.6571    2.2166 H   0  0  0  0  0  0  0  0  0  0  0  0
    0.8818    1.8959    5.1519 H   0  0  0  0  0  0  0  0  0  0  0  0
   -2.7762    2.0972    4.2634 H   0  0  0  0  0  0  0  0  0  0  0  0
   -3.3379    3.9309    5.8799 H   0  0  0  0  0  0  0  0  0  0  0  0
   -1.9172    3.5635    6.8463 H   0  0  0  0  0  0  0  0  0  0  0  0
   -3.2332    2.4039    6.7345 H   0  0  0  0  0  0  0  0  0  0  0  0
   -1.8482    4.0222    3.2954 H   0  0  0  0  0  0  0  0  0  0  0  0
    0.0868    4.0211    5.3446 H   0  0  0  0  0  0  0  0  0  0  0  0
   -0.7321    1.9933    2.5426 H   0  0  0  0  0  0  0  0  0  0  0  0
    0.6532    3.7019    2.0414 H   0  0  0  0  0  0  0  0  0  0  0  0
    0.9827   -8.3215    3.2748 H   0  0  0  0  0  0  0  0  0  0  0  0
    2.4562   -8.2323    4.2324 H   0  0  0  0  0  0  0  0  0  0  0  0
  1  2  1  0
  1 27  1  0
  1 28  1  0
  1 29  1  0
  2 25  1  0
  2  3  1  0
  2 30  1  6
  3  4  1  0
  3 31  1  0
  3 32  1  0
  4  5  1  0
  4 33  1  0
  4 34  1  0
  5  6  2  3
  5 25  1  0
  6  7  1  0
  7  8  1  0
  7 26  1  0
  8 13  1  0
  8  9  2  0
  9 10  1  0
 10 35  1  0
 10 11  2  0
 11 12  1  0
 12 16  1  0
 12 13  2  0
 13 14  1  0
 14 15  2  0
 15 36  1  0
 15 16  1  0
 16 17  1  0
 17 23  1  0
 17 18  1  0
 17 37  1  1
 18 19  1  0
 19 20  1  0
 19 21  1  0
 19 38  1  6
 20 39  1  0
 20 40  1  0
 20 41  1  0
 21 22  1  0
 21 23  1  0
 21 42  1  6
 22 43  1  0
 23 24  1  0
 23 44  1  6
 24 45  1  0
 25 46  1  0
 25 47  1  0
M  END
>  <i_m_ct_stereo_status>  (225) 
1

>  <s_m_source_file>  (225) 
/var/tmp/pbs.5076255.sched01/tmpn8rdt6mw/90ee43ygr2.sdf

>  <i_m_source_file_index>  (225) 
7

>  <i_lp_mmshare_version>  (225) 
48012

>  <i_f3d_flags>  (225) 
0

>  <s_epik_input>  (225) 
W0NIM11bQ0BASF0xW0NIMl1bQ0gyXS9DKFtDSDJdMSk9TlxOPWMoXFtuSF1bY0hdbjIpYyhjMjMpbltjSF1uM1tDQEBIXTRPW0NAQEhdKFtDSDNdKVtDQEBIXShbT0hdKVtDQEhdNFtPSF0=

>  <s_epik_cmdline>  (225) 
J2VwaWtfcHl0aG9uJywgJy1waHQnLCAnMi4wJywgJy1waCcsICc3LjAnLCAnLXRuJywgJzgnLCAnLW1hJywgJzIwMCcsICctaW1hZScsICc8aW5maWxlLm1hZT4nLCAnLW9tYWUnLCAnPG91dGZpbGUubWFlPic=

>  <r_lp_tautomer_probability>  (225) 
1

>  <r_epik_Ionization_Penalty>  (225) 
0.00525096

>  <r_epik_Ionization_Penalty_Charging>  (225) 
0

>  <r_epik_Ionization_Penalty_Neutral>  (225) 
0.00525096

>  <r_epik_State_Penalty>  (225) 
-0

>  <r_epik_Charging_Adjusted_Penalty>  (225) 
0

>  <i_epik_Tot_Q>  (225) 
0

>  <i_epik_Tot_abs_Q>  (225) 
0

>  <s_epik_Chemistry_Notes>  (225) 
This compound has an imine and may undergo hydrolysis. This compound contains an acetal/aminal-like group ( X-CH(R)-Y where X, Y are N, S, or O) that may be acid/base labile, releasing an aldehyde.

>  <s_lp_Force_Field>  (225) 
OPLS3e

>  <r_lp_Energy>  (225) 
26.9499

>  <b_lp_Chiralities_Consistent>  (225) 
1

>  <s_lp_Variant>  (225) 
59:0-1

>  <s_i_glide_gridfile>  (225) 
pfpi4k_grid

>  <i_i_glide_lignum>  (225) 
7

>  <i_i_glide_rotatable_bonds>  (225) 
5

>  <r_i_docking_score>  (225) 
-3.10215

>  <r_i_glide_ligand_efficiency>  (225) 
-0.124086

>  <r_i_glide_ligand_efficiency_sa>  (225) 
-0.362829

>  <r_i_glide_ligand_efficiency_ln>  (225) 
-0.735302

>  <r_i_glide_gscore>  (225) 
-3.10215

>  <r_i_glide_lipo>  (225) 
-0.209514

>  <r_i_glide_hbond>  (225) 
0

>  <r_i_glide_metal>  (225) 
-0

>  <r_i_glide_rewards>  (225) 
-1.04738

>  <r_i_glide_evdw>  (225) 
-23.3803

>  <r_i_glide_ecoul>  (225) 
-7.01398

>  <r_i_glide_erotb>  (225) 
0.475357

>  <r_i_glide_esite>  (225) 
-0.0994963

>  <r_i_glide_emodel>  (225) 
-37.2158

>  <r_i_glide_energy>  (225) 
-30.3943

>  <r_i_glide_einternal>  (225) 
1.71156

>  <r_i_glide_intrahb_reward>  (225) 
-0

>  <i_i_glide_confnum>  (225) 
5

>  <i_i_glide_posenum>  (225) 
15

>  <r_i_glide_eff_state_penalty>  (225) 
0

>  <ligand_id>  (225) 
59

>  <original_smiles>  (225) 
CC1CCC(=NN=c2[nH]cnc3c2ncn3C2OC(C)C(O)C2O)C1

>  <smiles>  (225) 
[H]OC1([H])C([H])(n2c([H])nc3c(N([H])N=C4C([H])([H])C([H])([H])C([H])(C([H])([H])[H])C4([H])[H])nc([H])nc32)OC([H])(C([H])([H])[H])C1([H])O[H]

$$$$
59:0:2
     RDKit          3D

 47 50  0  0  1  0  0  0  0  0999 V2000
    2.0473  -10.0853    2.8468 C   0  0  0  0  0  0  0  0  0  0  0  0
    2.3014   -8.9076    1.8771 C   0  0  2  0  0  0  0  0  0  0  0  0
    3.7933   -8.5968    1.6634 C   0  0  0  0  0  0  0  0  0  0  0  0
    3.8942   -7.1166    1.2648 C   0  0  0  0  0  0  0  0  0  0  0  0
    2.6525   -6.5154    1.7917 C   0  0  0  0  0  0  0  0  0  0  0  0
    2.3830   -5.2591    1.8306 N   0  0  0  0  0  0  0  0  0  0  0  0
    3.2167   -4.3824    1.2858 N   0  0  0  0  0  0  0  0  0  0  0  0
    3.0946   -3.0673    1.4794 C   0  0  0  0  0  0  0  0  0  0  0  0
    3.8834   -2.2665    0.7224 N   0  0  0  0  0  0  0  0  0  0  0  0
    3.8171   -0.9355    0.8590 C   0  0  0  0  0  0  0  0  0  0  0  0
    3.0352   -0.2058    1.6656 N   0  0  0  0  0  0  0  0  0  0  0  0
    2.2260   -1.0029    2.4224 C   0  0  0  0  0  0  0  0  0  0  0  0
    2.2173   -2.4322    2.4155 C   0  0  0  0  0  0  0  0  0  0  0  0
    1.3232   -2.8711    3.3812 N   0  0  0  0  0  0  0  0  0  0  0  0
    0.7609   -1.7908    3.8532 C   0  0  0  0  0  0  0  0  0  0  0  0
    1.2291   -0.6028    3.3191 N   0  0  0  0  0  0  0  0  0  0  0  0
    0.8168    0.7773    3.6644 C   0  0  2  0  0  0  0  0  0  0  0  0
   -0.1637    0.7097    4.6549 O   0  0  0  0  0  0  0  0  0  0  0  0
   -1.2688    1.5503    4.3336 C   0  0  1  0  0  0  0  0  0  0  0  0
   -1.7869    2.3164    5.5706 C   0  0  0  0  0  0  0  0  0  0  0  0
   -0.7907    2.4111    3.1561 C   0  0  1  0  0  0  0  0  0  0  0  0
   -0.1563    3.5997    3.6251 O   0  0  0  0  0  0  0  0  0  0  0  0
    0.1606    1.4483    2.4703 C   0  0  1  0  0  0  0  0  0  0  0  0
    1.0802    2.1303    1.6952 O   0  0  0  0  0  0  0  0  0  0  0  0
    1.6902   -7.5566    2.3044 C   0  0  0  0  0  0  0  0  0  0  0  0
    3.9821   -4.7120    0.7422 H   0  0  0  0  0  0  0  0  0  0  0  0
    2.4676   -9.8920    3.8268 H   0  0  0  0  0  0  0  0  0  0  0  0
    2.5107  -10.9962    2.4813 H   0  0  0  0  0  0  0  0  0  0  0  0
    0.9875  -10.2920    2.9700 H   0  0  0  0  0  0  0  0  0  0  0  0
    1.8915   -9.1544    0.8924 H   0  0  0  0  0  0  0  0  0  0  0  0
    4.3244   -8.7637    2.6066 H   0  0  0  0  0  0  0  0  0  0  0  0
    4.2376   -9.2625    0.9125 H   0  0  0  0  0  0  0  0  0  0  0  0
    4.7804   -6.6671    1.7033 H   0  0  0  0  0  0  0  0  0  0  0  0
    3.9254   -7.0159    0.1814 H   0  0  0  0  0  0  0  0  0  0  0  0
    4.4180   -0.3664    0.1738 H   0  0  0  0  0  0  0  0  0  0  0  0
    0.0036   -1.8442    4.6157 H   0  0  0  0  0  0  0  0  0  0  0  0
    1.7071    1.2805    4.0458 H   0  0  0  0  0  0  0  0  0  0  0  0
   -2.0620    0.8950    3.9672 H   0  0  0  0  0  0  0  0  0  0  0  0
   -2.6095    2.9772    5.2904 H   0  0  0  0  0  0  0  0  0  0  0  0
   -1.0069    2.9339    6.0124 H   0  0  0  0  0  0  0  0  0  0  0  0
   -2.1491    1.6478    6.3553 H   0  0  0  0  0  0  0  0  0  0  0  0
   -1.6124    2.6967    2.4962 H   0  0  0  0  0  0  0  0  0  0  0  0
    0.2217    4.0456    2.8792 H   0  0  0  0  0  0  0  0  0  0  0  0
   -0.3782    0.7064    1.8914 H   0  0  0  0  0  0  0  0  0  0  0  0
    0.6540    2.8600    1.2579 H   0  0  0  0  0  0  0  0  0  0  0  0
    0.6835   -7.4276    1.8898 H   0  0  0  0  0  0  0  0  0  0  0  0
    1.6151   -7.4990    3.3908 H   0  0  0  0  0  0  0  0  0  0  0  0
  1  2  1  0
  1 27  1  0
  1 28  1  0
  1 29  1  0
  2 25  1  0
  2  3  1  0
  2 30  1  6
  3  4  1  0
  3 31  1  0
  3 32  1  0
  4  5  1  0
  4 33  1  0
  4 34  1  0
  5  6  2  3
  5 25  1  0
  6  7  1  0
  7  8  1  0
  7 26  1  0
  8 13  1  0
  8  9  2  0
  9 10  1  0
 10 35  1  0
 10 11  2  0
 11 12  1  0
 12 16  1  0
 12 13  2  0
 13 14  1  0
 14 15  2  0
 15 36  1  0
 15 16  1  0
 16 17  1  0
 17 23  1  0
 17 18  1  0
 17 37  1  1
 18 19  1  0
 19 20  1  0
 19 21  1  0
 19 38  1  6
 20 39  1  0
 20 40  1  0
 20 41  1  0
 21 22  1  0
 21 23  1  0
 21 42  1  6
 22 43  1  0
 23 24  1  0
 23 44  1  6
 24 45  1  0
 25 46  1  0
 25 47  1  0
M  END
>  <i_m_ct_stereo_status>  (226) 
1

>  <s_m_source_file>  (226) 
/var/tmp/pbs.5076255.sched01/tmpn8rdt6mw/90ee43ygr2.sdf

>  <i_m_source_file_index>  (226) 
7

>  <i_lp_mmshare_version>  (226) 
48012

>  <i_f3d_flags>  (226) 
0

>  <s_epik_input>  (226) 
W0NIM11bQ0BASF0xW0NIMl1bQ0gyXS9DKFtDSDJdMSk9TlxOPWMoXFtuSF1bY0hdbjIpYyhjMjMpbltjSF1uM1tDQEBIXTRPW0NAQEhdKFtDSDNdKVtDQEBIXShbT0hdKVtDQEhdNFtPSF0=

>  <s_epik_cmdline>  (226) 
J2VwaWtfcHl0aG9uJywgJy1waHQnLCAnMi4wJywgJy1waCcsICc3LjAnLCAnLXRuJywgJzgnLCAnLW1hJywgJzIwMCcsICctaW1hZScsICc8aW5maWxlLm1hZT4nLCAnLW9tYWUnLCAnPG91dGZpbGUubWFlPic=

>  <r_lp_tautomer_probability>  (226) 
1

>  <r_epik_Ionization_Penalty>  (226) 
0.00525096

>  <r_epik_Ionization_Penalty_Charging>  (226) 
0

>  <r_epik_Ionization_Penalty_Neutral>  (226) 
0.00525096

>  <r_epik_State_Penalty>  (226) 
-0

>  <r_epik_Charging_Adjusted_Penalty>  (226) 
0

>  <i_epik_Tot_Q>  (226) 
0

>  <i_epik_Tot_abs_Q>  (226) 
0

>  <s_epik_Chemistry_Notes>  (226) 
This compound has an imine and may undergo hydrolysis. This compound contains an acetal/aminal-like group ( X-CH(R)-Y where X, Y are N, S, or O) that may be acid/base labile, releasing an aldehyde.

>  <s_lp_Force_Field>  (226) 
OPLS3e

>  <r_lp_Energy>  (226) 
26.9499

>  <b_lp_Chiralities_Consistent>  (226) 
1

>  <s_lp_Variant>  (226) 
59:0-1

>  <s_i_glide_gridfile>  (226) 
pfpi4k_grid

>  <i_i_glide_lignum>  (226) 
7

>  <i_i_glide_rotatable_bonds>  (226) 
5

>  <r_i_docking_score>  (226) 
-3.09976

>  <r_i_glide_ligand_efficiency>  (226) 
-0.12399

>  <r_i_glide_ligand_efficiency_sa>  (226) 
-0.36255

>  <r_i_glide_ligand_efficiency_ln>  (226) 
-0.734735

>  <r_i_glide_gscore>  (226) 
-3.09976

>  <r_i_glide_lipo>  (226) 
-0.164561

>  <r_i_glide_hbond>  (226) 
0

>  <r_i_glide_metal>  (226) 
-0

>  <r_i_glide_rewards>  (226) 
-1.05526

>  <r_i_glide_evdw>  (226) 
-28.1717

>  <r_i_glide_ecoul>  (226) 
-5.87182

>  <r_i_glide_erotb>  (226) 
0.475357

>  <r_i_glide_esite>  (226) 
-0.0659396

>  <r_i_glide_emodel>  (226) 
-39.3758

>  <r_i_glide_energy>  (226) 
-34.0435

>  <r_i_glide_einternal>  (226) 
3.75381

>  <r_i_glide_intrahb_reward>  (226) 
-0

>  <i_i_glide_confnum>  (226) 
2

>  <i_i_glide_posenum>  (226) 
23

>  <r_i_glide_eff_state_penalty>  (226) 
0

>  <ligand_id>  (226) 
59

>  <original_smiles>  (226) 
CC1CCC(=NN=c2[nH]cnc3c2ncn3C2OC(C)C(O)C2O)C1

>  <smiles>  (226) 
[H]OC1([H])C([H])(n2c([H])nc3c(N([H])N=C4C([H])([H])C([H])([H])C([H])(C([H])([H])[H])C4([H])[H])nc([H])nc32)OC([H])(C([H])([H])[H])C1([H])O[H]

$$$$
59:1:0
     RDKit          3D

 47 50  0  0  1  0  0  0  0  0999 V2000
    3.0561   -1.3505   -4.2672 C   0  0  0  0  0  0  0  0  0  0  0  0
    3.2630   -1.3920   -2.7630 C   0  0  2  0  0  0  0  0  0  0  0  0
    4.5216   -0.6646   -2.3337 C   0  0  0  0  0  0  0  0  0  0  0  0
    4.9550   -1.2855   -1.0070 C   0  0  0  0  0  0  0  0  0  0  0  0
    4.3389   -2.6586   -1.0191 C   0  0  0  0  0  0  0  0  0  0  0  0
    4.6327   -3.5789   -0.1734 N   0  0  0  0  0  0  0  0  0  0  0  0
    4.0740   -4.7801   -0.3205 N   0  0  0  0  0  0  0  0  0  0  0  0
    4.2044   -5.7753    0.5718 C   0  0  0  0  0  0  0  0  0  0  0  0
    5.4599   -6.1518    0.8991 N   0  0  0  0  0  0  0  0  0  0  0  0
    5.6148   -7.2320    1.6644 C   0  0  0  0  0  0  0  0  0  0  0  0
    4.6785   -7.9993    2.2132 N   0  0  0  0  0  0  0  0  0  0  0  0
    3.4085   -7.5746    1.9676 C   0  0  0  0  0  0  0  0  0  0  0  0
    3.0823   -6.4726    1.1305 C   0  0  0  0  0  0  0  0  0  0  0  0
    1.6950   -6.3870    1.0169 N   0  0  0  0  0  0  0  0  0  0  0  0
    1.2543   -7.3411    1.7989 C   0  0  0  0  0  0  0  0  0  0  0  0
    2.2154   -8.0918    2.4314 N   0  0  0  0  0  0  0  0  0  0  0  0
    1.9910   -9.2651    3.3728 C   0  0  2  0  0  0  0  0  0  0  0  0
    1.0038   -8.8841    4.2864 O   0  0  0  0  0  0  0  0  0  0  0  0
    1.3702   -9.2420    5.6264 C   0  0  1  0  0  0  0  0  0  0  0  0
    0.2012   -9.8218    6.4258 C   0  0  0  0  0  0  0  0  0  0  0  0
    2.5704  -10.1755    5.4780 C   0  0  1  0  0  0  0  0  0  0  0  0
    2.1626  -11.5186    5.2770 O   0  0  0  0  0  0  0  0  0  0  0  0
    3.2139   -9.6396    4.2220 C   0  0  1  0  0  0  0  0  0  0  0  0
    4.0434  -10.6386    3.6452 O   0  0  0  0  0  0  0  0  0  0  0  0
    3.3786   -2.8022   -2.1761 C   0  0  0  0  0  0  0  0  0  0  0  0
    3.4722   -4.9443   -1.1403 H   0  0  0  0  0  0  0  0  0  0  0  0
    3.8860   -1.8250   -4.7840 H   0  0  0  0  0  0  0  0  0  0  0  0
    2.9428   -0.3379   -4.6616 H   0  0  0  0  0  0  0  0  0  0  0  0
    2.1488   -1.9013   -4.4947 H   0  0  0  0  0  0  0  0  0  0  0  0
    2.4292   -0.8757   -2.3027 H   0  0  0  0  0  0  0  0  0  0  0  0
    5.2830   -0.8250   -3.0770 H   0  0  0  0  0  0  0  0  0  0  0  0
    4.3493    0.4013   -2.3027 H   0  0  0  0  0  0  0  0  0  0  0  0
    6.0383   -1.3408   -0.9230 H   0  0  0  0  0  0  0  0  0  0  0  0
    4.5669   -0.7119   -0.1704 H   0  0  0  0  0  0  0  0  0  0  0  0
    6.6258   -7.5327    1.9200 H   0  0  0  0  0  0  0  0  0  0  0  0
    0.2007   -7.5639    1.9404 H   0  0  0  0  0  0  0  0  0  0  0  0
    1.5920  -10.0669    2.7574 H   0  0  0  0  0  0  0  0  0  0  0  0
    1.6951   -8.3174    6.1105 H   0  0  0  0  0  0  0  0  0  0  0  0
    0.5093  -10.1239    7.4243 H   0  0  0  0  0  0  0  0  0  0  0  0
   -0.1774  -10.7182    5.9370 H   0  0  0  0  0  0  0  0  0  0  0  0
   -0.6419   -9.1303    6.5123 H   0  0  0  0  0  0  0  0  0  0  0  0
    3.2463  -10.1107    6.3288 H   0  0  0  0  0  0  0  0  0  0  0  0
    1.8323  -11.8437    6.1322 H   0  0  0  0  0  0  0  0  0  0  0  0
    3.7324   -8.7321    4.5162 H   0  0  0  0  0  0  0  0  0  0  0  0
    3.4923  -11.3218    3.2979 H   0  0  0  0  0  0  0  0  0  0  0  0
    2.4013   -3.1731   -1.8570 H   0  0  0  0  0  0  0  0  0  0  0  0
    3.8011   -3.4891   -2.9140 H   0  0  0  0  0  0  0  0  0  0  0  0
  1  2  1  0
  1 27  1  0
  1 28  1  0
  1 29  1  0
  2 25  1  0
  2  3  1  0
  2 30  1  1
  3  4  1  0
  3 31  1  0
  3 32  1  0
  4  5  1  0
  4 33  1  0
  4 34  1  0
  5  6  2  3
  5 25  1  0
  6  7  1  0
  7  8  1  0
  7 26  1  0
  8 13  1  0
  8  9  2  0
  9 10  1  0
 10 35  1  0
 10 11  2  0
 11 12  1  0
 12 16  1  0
 12 13  2  0
 13 14  1  0
 14 15  2  0
 15 36  1  0
 15 16  1  0
 16 17  1  0
 17 23  1  0
 17 18  1  0
 17 37  1  6
 18 19  1  0
 19 20  1  0
 19 21  1  0
 19 38  1  1
 20 39  1  0
 20 40  1  0
 20 41  1  0
 21 22  1  0
 21 23  1  0
 21 42  1  1
 22 43  1  0
 23 24  1  0
 23 44  1  1
 24 45  1  0
 25 46  1  0
 25 47  1  0
M  END
>  <i_m_ct_stereo_status>  (227) 
1

>  <s_m_source_file>  (227) 
/var/tmp/pbs.5076255.sched01/tmpn8rdt6mw/90ee43ygr2.sdf

>  <i_m_source_file_index>  (227) 
8

>  <i_lp_mmshare_version>  (227) 
48012

>  <i_f3d_flags>  (227) 
0

>  <s_epik_input>  (227) 
W0NIM11bQ0BASF0xW0NIMl1bQ0gyXS9DKFtDSDJdMSk9TlxOPWMoXFtuSF1bY0hdbjIpYyhjMjMpbltjSF1uM1tDQEBIXTRPW0NAQEhdKFtDSDNdKVtDQEBIXShbT0hdKVtDQEhdNFtPSF0=

>  <s_epik_cmdline>  (227) 
J2VwaWtfcHl0aG9uJywgJy1waHQnLCAnMi4wJywgJy1waCcsICc3LjAnLCAnLXRuJywgJzgnLCAnLW1hJywgJzIwMCcsICctaW1hZScsICc8aW5maWxlLm1hZT4nLCAnLW9tYWUnLCAnPG91dGZpbGUubWFlPic=

>  <r_lp_tautomer_probability>  (227) 
1

>  <r_epik_Ionization_Penalty>  (227) 
0.00525096

>  <r_epik_Ionization_Penalty_Charging>  (227) 
0

>  <r_epik_Ionization_Penalty_Neutral>  (227) 
0.00525096

>  <r_epik_State_Penalty>  (227) 
-0

>  <r_epik_Charging_Adjusted_Penalty>  (227) 
0

>  <i_epik_Tot_Q>  (227) 
0

>  <i_epik_Tot_abs_Q>  (227) 
0

>  <s_epik_Chemistry_Notes>  (227) 
This compound has an imine and may undergo hydrolysis. This compound contains an acetal/aminal-like group ( X-CH(R)-Y where X, Y are N, S, or O) that may be acid/base labile, releasing an aldehyde.

>  <s_lp_Force_Field>  (227) 
OPLS3e

>  <r_lp_Energy>  (227) 
27.3906

>  <b_lp_Chiralities_Consistent>  (227) 
1

>  <s_lp_Variant>  (227) 
59:0-2

>  <s_i_glide_gridfile>  (227) 
pfpi4k_grid

>  <i_i_glide_lignum>  (227) 
8

>  <i_i_glide_rotatable_bonds>  (227) 
5

>  <r_i_docking_score>  (227) 
-3.9072

>  <r_i_glide_ligand_efficiency>  (227) 
-0.156288

>  <r_i_glide_ligand_efficiency_sa>  (227) 
-0.456988

>  <r_i_glide_ligand_efficiency_ln>  (227) 
-0.926123

>  <r_i_glide_gscore>  (227) 
-3.9072

>  <r_i_glide_lipo>  (227) 
-0.108636

>  <r_i_glide_hbond>  (227) 
-0.291613

>  <r_i_glide_metal>  (227) 
-0

>  <r_i_glide_rewards>  (227) 
-1.17248

>  <r_i_glide_evdw>  (227) 
-27.5965

>  <r_i_glide_ecoul>  (227) 
-8.84202

>  <r_i_glide_erotb>  (227) 
0.475357

>  <r_i_glide_esite>  (227) 
-0.103701

>  <r_i_glide_emodel>  (227) 
-42.2604

>  <r_i_glide_energy>  (227) 
-36.4385

>  <r_i_glide_einternal>  (227) 
7.79383

>  <r_i_glide_intrahb_reward>  (227) 
-0

>  <i_i_glide_confnum>  (227) 
4

>  <i_i_glide_posenum>  (227) 
21

>  <r_i_glide_eff_state_penalty>  (227) 
0

>  <ligand_id>  (227) 
59

>  <original_smiles>  (227) 
CC1CCC(=NN=c2[nH]cnc3c2ncn3C2OC(C)C(O)C2O)C1

>  <smiles>  (227) 
[H]OC1([H])C([H])(n2c([H])nc3c(N([H])N=C4C([H])([H])C([H])([H])C([H])(C([H])([H])[H])C4([H])[H])nc([H])nc32)OC([H])(C([H])([H])[H])C1([H])O[H]

$$$$
59:1:1
     RDKit          3D

 47 50  0  0  1  0  0  0  0  0999 V2000
    3.0775   -3.0304   -3.9127 C   0  0  0  0  0  0  0  0  0  0  0  0
    4.1352   -2.3515   -3.0314 C   0  0  2  0  0  0  0  0  0  0  0  0
    5.2341   -3.3152   -2.5631 C   0  0  0  0  0  0  0  0  0  0  0  0
    5.7502   -2.7482   -1.2303 C   0  0  0  0  0  0  0  0  0  0  0  0
    4.6266   -1.8871   -0.7075 C   0  0  0  0  0  0  0  0  0  0  0  0
    4.6004   -1.3870    0.4873 N   0  0  0  0  0  0  0  0  0  0  0  0
    3.5196   -0.6944    0.8667 N   0  0  0  0  0  0  0  0  0  0  0  0
    3.3026   -0.1751    2.1018 C   0  0  0  0  0  0  0  0  0  0  0  0
    4.2001   -0.3347    3.1109 N   0  0  0  0  0  0  0  0  0  0  0  0
    3.9106    0.1571    4.3292 C   0  0  0  0  0  0  0  0  0  0  0  0
    2.8289    0.8247    4.7400 N   0  0  0  0  0  0  0  0  0  0  0  0
    1.9343    1.0111    3.7239 C   0  0  0  0  0  0  0  0  0  0  0  0
    2.1161    0.5412    2.3906 C   0  0  0  0  0  0  0  0  0  0  0  0
    1.0241    0.9054    1.6295 N   0  0  0  0  0  0  0  0  0  0  0  0
    0.2599    1.5708    2.4443 C   0  0  0  0  0  0  0  0  0  0  0  0
    0.7136    1.6671    3.7481 N   0  0  0  0  0  0  0  0  0  0  0  0
    0.1138    2.4115    4.9074 C   0  0  2  0  0  0  0  0  0  0  0  0
   -0.1158    1.5134    5.9602 O   0  0  0  0  0  0  0  0  0  0  0  0
   -1.3940    1.7512    6.5629 C   0  0  1  0  0  0  0  0  0  0  0  0
   -1.3271    1.7556    8.1036 C   0  0  0  0  0  0  0  0  0  0  0  0
   -1.9022    3.0564    5.9370 C   0  0  1  0  0  0  0  0  0  0  0  0
   -1.4301    4.1520    6.6953 O   0  0  0  0  0  0  0  0  0  0  0  0
   -1.2598    3.0056    4.5625 C   0  0  1  0  0  0  0  0  0  0  0  0
   -1.2102    4.2811    3.9385 O   0  0  0  0  0  0  0  0  0  0  0  0
    3.5545   -1.7375   -1.7497 C   0  0  0  0  0  0  0  0  0  0  0  0
    2.7690   -0.5998    0.1920 H   0  0  0  0  0  0  0  0  0  0  0  0
    2.5801   -3.8490   -3.3836 H   0  0  0  0  0  0  0  0  0  0  0  0
    3.5356   -3.4532   -4.7981 H   0  0  0  0  0  0  0  0  0  0  0  0
    2.3090   -2.3272   -4.2262 H   0  0  0  0  0  0  0  0  0  0  0  0
    4.6228   -1.5613   -3.6035 H   0  0  0  0  0  0  0  0  0  0  0  0
    4.8143   -4.3089   -2.4009 H   0  0  0  0  0  0  0  0  0  0  0  0
    6.0312   -3.4315   -3.3015 H   0  0  0  0  0  0  0  0  0  0  0  0
    6.0096   -3.5509   -0.5366 H   0  0  0  0  0  0  0  0  0  0  0  0
    6.6417   -2.1459   -1.4061 H   0  0  0  0  0  0  0  0  0  0  0  0
    4.6461   -0.0235    5.0985 H   0  0  0  0  0  0  0  0  0  0  0  0
   -0.6428    2.0217    2.0703 H   0  0  0  0  0  0  0  0  0  0  0  0
    0.8642    3.1475    5.2080 H   0  0  0  0  0  0  0  0  0  0  0  0
   -2.0472    0.9406    6.2354 H   0  0  0  0  0  0  0  0  0  0  0  0
   -2.3081    1.9659    8.5325 H   0  0  0  0  0  0  0  0  0  0  0  0
   -0.6461    2.5207    8.4746 H   0  0  0  0  0  0  0  0  0  0  0  0
   -0.9714    0.8072    8.5022 H   0  0  0  0  0  0  0  0  0  0  0  0
   -2.9945    3.0986    5.8889 H   0  0  0  0  0  0  0  0  0  0  0  0
   -0.4875    4.0967    6.7484 H   0  0  0  0  0  0  0  0  0  0  0  0
   -1.8442    2.3006    3.9752 H   0  0  0  0  0  0  0  0  0  0  0  0
   -0.7217    4.2182    3.1233 H   0  0  0  0  0  0  0  0  0  0  0  0
    3.2721   -0.6979   -1.9118 H   0  0  0  0  0  0  0  0  0  0  0  0
    2.6710   -2.2915   -1.4362 H   0  0  0  0  0  0  0  0  0  0  0  0
  1  2  1  0
  1 27  1  0
  1 28  1  0
  1 29  1  0
  2 25  1  0
  2  3  1  0
  2 30  1  6
  3  4  1  0
  3 31  1  0
  3 32  1  0
  4  5  1  0
  4 33  1  0
  4 34  1  0
  5  6  2  3
  5 25  1  0
  6  7  1  0
  7  8  1  0
  7 26  1  0
  8 13  1  0
  8  9  2  0
  9 10  1  0
 10 35  1  0
 10 11  2  0
 11 12  1  0
 12 16  1  0
 12 13  2  0
 13 14  1  0
 14 15  2  0
 15 36  1  0
 15 16  1  0
 16 17  1  0
 17 23  1  0
 17 18  1  0
 17 37  1  1
 18 19  1  0
 19 20  1  0
 19 21  1  0
 19 38  1  1
 20 39  1  0
 20 40  1  0
 20 41  1  0
 21 22  1  0
 21 23  1  0
 21 42  1  6
 22 43  1  0
 23 24  1  0
 23 44  1  6
 24 45  1  0
 25 46  1  0
 25 47  1  0
M  END
>  <i_m_ct_stereo_status>  (228) 
1

>  <s_m_source_file>  (228) 
/var/tmp/pbs.5076255.sched01/tmpn8rdt6mw/90ee43ygr2.sdf

>  <i_m_source_file_index>  (228) 
8

>  <i_lp_mmshare_version>  (228) 
48012

>  <i_f3d_flags>  (228) 
0

>  <s_epik_input>  (228) 
W0NIM11bQ0BASF0xW0NIMl1bQ0gyXS9DKFtDSDJdMSk9TlxOPWMoXFtuSF1bY0hdbjIpYyhjMjMpbltjSF1uM1tDQEBIXTRPW0NAQEhdKFtDSDNdKVtDQEBIXShbT0hdKVtDQEhdNFtPSF0=

>  <s_epik_cmdline>  (228) 
J2VwaWtfcHl0aG9uJywgJy1waHQnLCAnMi4wJywgJy1waCcsICc3LjAnLCAnLXRuJywgJzgnLCAnLW1hJywgJzIwMCcsICctaW1hZScsICc8aW5maWxlLm1hZT4nLCAnLW9tYWUnLCAnPG91dGZpbGUubWFlPic=

>  <r_lp_tautomer_probability>  (228) 
1

>  <r_epik_Ionization_Penalty>  (228) 
0.00525096

>  <r_epik_Ionization_Penalty_Charging>  (228) 
0

>  <r_epik_Ionization_Penalty_Neutral>  (228) 
0.00525096

>  <r_epik_State_Penalty>  (228) 
-0

>  <r_epik_Charging_Adjusted_Penalty>  (228) 
0

>  <i_epik_Tot_Q>  (228) 
0

>  <i_epik_Tot_abs_Q>  (228) 
0

>  <s_epik_Chemistry_Notes>  (228) 
This compound has an imine and may undergo hydrolysis. This compound contains an acetal/aminal-like group ( X-CH(R)-Y where X, Y are N, S, or O) that may be acid/base labile, releasing an aldehyde.

>  <s_lp_Force_Field>  (228) 
OPLS3e

>  <r_lp_Energy>  (228) 
27.3906

>  <b_lp_Chiralities_Consistent>  (228) 
1

>  <s_lp_Variant>  (228) 
59:0-2

>  <s_i_glide_gridfile>  (228) 
pfpi4k_grid

>  <i_i_glide_lignum>  (228) 
8

>  <i_i_glide_rotatable_bonds>  (228) 
5

>  <r_i_docking_score>  (228) 
-3.77994

>  <r_i_glide_ligand_efficiency>  (228) 
-0.151198

>  <r_i_glide_ligand_efficiency_sa>  (228) 
-0.442104

>  <r_i_glide_ligand_efficiency_ln>  (228) 
-0.895959

>  <r_i_glide_gscore>  (228) 
-3.77994

>  <r_i_glide_lipo>  (228) 
-0.517742

>  <r_i_glide_hbond>  (228) 
-0.0521067

>  <r_i_glide_metal>  (228) 
-0

>  <r_i_glide_rewards>  (228) 
-1.05175

>  <r_i_glide_evdw>  (228) 
-34.648

>  <r_i_glide_ecoul>  (228) 
-4.95882

>  <r_i_glide_erotb>  (228) 
0.475357

>  <r_i_glide_esite>  (228) 
-0.157477

>  <r_i_glide_emodel>  (228) 
-48.5932

>  <r_i_glide_energy>  (228) 
-39.6068

>  <r_i_glide_einternal>  (228) 
1.53889

>  <r_i_glide_intrahb_reward>  (228) 
-0

>  <i_i_glide_confnum>  (228) 
4

>  <i_i_glide_posenum>  (228) 
31

>  <r_i_glide_eff_state_penalty>  (228) 
0

>  <ligand_id>  (228) 
59

>  <original_smiles>  (228) 
CC1CCC(=NN=c2[nH]cnc3c2ncn3C2OC(C)C(O)C2O)C1

>  <smiles>  (228) 
[H]OC1([H])C([H])(n2c([H])nc3c(N([H])N=C4C([H])([H])C([H])([H])C([H])(C([H])([H])[H])C4([H])[H])nc([H])nc32)OC([H])(C([H])([H])[H])C1([H])O[H]

$$$$
59:1:2
     RDKit          3D

 47 50  0  0  1  0  0  0  0  0999 V2000
    3.5672   -2.7773   -3.9000 C   0  0  0  0  0  0  0  0  0  0  0  0
    4.3179   -2.4944   -2.5868 C   0  0  2  0  0  0  0  0  0  0  0  0
    5.1295   -3.6903   -2.0818 C   0  0  0  0  0  0  0  0  0  0  0  0
    5.2163   -3.5336   -0.5514 C   0  0  0  0  0  0  0  0  0  0  0  0
    4.0478   -2.6610   -0.1827 C   0  0  0  0  0  0  0  0  0  0  0  0
    3.6694   -2.4627    1.0272 N   0  0  0  0  0  0  0  0  0  0  0  0
    2.5757   -1.7304    1.2438 N   0  0  0  0  0  0  0  0  0  0  0  0
    2.1602   -1.3425    2.4593 C   0  0  0  0  0  0  0  0  0  0  0  0
    2.2345   -2.2015    3.5158 N   0  0  0  0  0  0  0  0  0  0  0  0
    1.7276   -1.8521    4.7025 C   0  0  0  0  0  0  0  0  0  0  0  0
    1.1224   -0.7259    5.0622 N   0  0  0  0  0  0  0  0  0  0  0  0
    1.0601    0.1601    4.0290 C   0  0  0  0  0  0  0  0  0  0  0  0
    1.5559   -0.0772    2.7060 C   0  0  0  0  0  0  0  0  0  0  0  0
    1.3117    1.0550    1.9331 N   0  0  0  0  0  0  0  0  0  0  0  0
    0.7504    1.8969    2.7607 C   0  0  0  0  0  0  0  0  0  0  0  0
    0.5153    1.4397    4.0435 N   0  0  0  0  0  0  0  0  0  0  0  0
   -0.0244    2.2531    5.1901 C   0  0  2  0  0  0  0  0  0  0  0  0
   -0.3867    1.4137    6.2520 O   0  0  0  0  0  0  0  0  0  0  0  0
   -1.6544    1.7759    6.7870 C   0  0  1  0  0  0  0  0  0  0  0  0
   -1.6201    1.7336    8.3250 C   0  0  0  0  0  0  0  0  0  0  0  0
   -1.9808    3.1374    6.1544 C   0  0  1  0  0  0  0  0  0  0  0  0
   -1.4139    4.1766    6.9431 O   0  0  0  0  0  0  0  0  0  0  0  0
   -1.2994    3.0148    4.7895 C   0  0  1  0  0  0  0  0  0  0  0  0
   -1.0907    4.3101    4.2376 O   0  0  0  0  0  0  0  0  0  0  0  0
    3.4095   -2.1196   -1.4128 C   0  0  0  0  0  0  0  0  0  0  0  0
    2.0981   -1.3279    0.4404 H   0  0  0  0  0  0  0  0  0  0  0  0
    2.8702   -3.6058   -3.7823 H   0  0  0  0  0  0  0  0  0  0  0  0
    4.2546   -3.0476   -4.6976 H   0  0  0  0  0  0  0  0  0  0  0  0
    2.9946   -1.9085   -4.2212 H   0  0  0  0  0  0  0  0  0  0  0  0
    5.0246   -1.6751   -2.7391 H   0  0  0  0  0  0  0  0  0  0  0  0
    4.6124   -4.6193   -2.3225 H   0  0  0  0  0  0  0  0  0  0  0  0
    6.1122   -3.7560   -2.5538 H   0  0  0  0  0  0  0  0  0  0  0  0
    5.1804   -4.5092   -0.0607 H   0  0  0  0  0  0  0  0  0  0  0  0
    6.1584   -3.0519   -0.2867 H   0  0  0  0  0  0  0  0  0  0  0  0
    1.7923   -2.5766    5.4909 H   0  0  0  0  0  0  0  0  0  0  0  0
    0.5270    2.9034    2.4715 H   0  0  0  0  0  0  0  0  0  0  0  0
    0.8016    2.8890    5.5036 H   0  0  0  0  0  0  0  0  0  0  0  0
   -2.3690    1.0445    6.4049 H   0  0  0  0  0  0  0  0  0  0  0  0
   -2.5813    2.0308    8.7432 H   0  0  0  0  0  0  0  0  0  0  0  0
   -0.8542    2.3904    8.7330 H   0  0  0  0  0  0  0  0  0  0  0  0
   -1.3768    0.7359    8.6857 H   0  0  0  0  0  0  0  0  0  0  0  0
   -3.0639    3.3052    6.0832 H   0  0  0  0  0  0  0  0  0  0  0  0
   -0.4889    3.9882    7.0659 H   0  0  0  0  0  0  0  0  0  0  0  0
   -1.8981    2.3880    4.1247 H   0  0  0  0  0  0  0  0  0  0  0  0
   -0.6027    4.2434    3.4269 H   0  0  0  0  0  0  0  0  0  0  0  0
    3.2572   -1.0413   -1.3601 H   0  0  0  0  0  0  0  0  0  0  0  0
    2.4285   -2.5915   -1.5387 H   0  0  0  0  0  0  0  0  0  0  0  0
  1  2  1  0
  1 27  1  0
  1 28  1  0
  1 29  1  0
  2 25  1  0
  2  3  1  0
  2 30  1  6
  3  4  1  0
  3 31  1  0
  3 32  1  0
  4  5  1  0
  4 33  1  0
  4 34  1  0
  5  6  2  3
  5 25  1  0
  6  7  1  0
  7  8  1  0
  7 26  1  0
  8 13  1  0
  8  9  2  0
  9 10  1  0
 10 35  1  0
 10 11  2  0
 11 12  1  0
 12 16  1  0
 12 13  2  0
 13 14  1  0
 14 15  2  0
 15 36  1  0
 15 16  1  0
 16 17  1  0
 17 23  1  0
 17 18  1  0
 17 37  1  1
 18 19  1  0
 19 20  1  0
 19 21  1  0
 19 38  1  6
 20 39  1  0
 20 40  1  0
 20 41  1  0
 21 22  1  0
 21 23  1  0
 21 42  1  6
 22 43  1  0
 23 24  1  0
 23 44  1  6
 24 45  1  0
 25 46  1  0
 25 47  1  0
M  END
>  <i_m_ct_stereo_status>  (229) 
1

>  <s_m_source_file>  (229) 
/var/tmp/pbs.5076255.sched01/tmpn8rdt6mw/90ee43ygr2.sdf

>  <i_m_source_file_index>  (229) 
8

>  <i_lp_mmshare_version>  (229) 
48012

>  <i_f3d_flags>  (229) 
0

>  <s_epik_input>  (229) 
W0NIM11bQ0BASF0xW0NIMl1bQ0gyXS9DKFtDSDJdMSk9TlxOPWMoXFtuSF1bY0hdbjIpYyhjMjMpbltjSF1uM1tDQEBIXTRPW0NAQEhdKFtDSDNdKVtDQEBIXShbT0hdKVtDQEhdNFtPSF0=

>  <s_epik_cmdline>  (229) 
J2VwaWtfcHl0aG9uJywgJy1waHQnLCAnMi4wJywgJy1waCcsICc3LjAnLCAnLXRuJywgJzgnLCAnLW1hJywgJzIwMCcsICctaW1hZScsICc8aW5maWxlLm1hZT4nLCAnLW9tYWUnLCAnPG91dGZpbGUubWFlPic=

>  <r_lp_tautomer_probability>  (229) 
1

>  <r_epik_Ionization_Penalty>  (229) 
0.00525096

>  <r_epik_Ionization_Penalty_Charging>  (229) 
0

>  <r_epik_Ionization_Penalty_Neutral>  (229) 
0.00525096

>  <r_epik_State_Penalty>  (229) 
-0

>  <r_epik_Charging_Adjusted_Penalty>  (229) 
0

>  <i_epik_Tot_Q>  (229) 
0

>  <i_epik_Tot_abs_Q>  (229) 
0

>  <s_epik_Chemistry_Notes>  (229) 
This compound has an imine and may undergo hydrolysis. This compound contains an acetal/aminal-like group ( X-CH(R)-Y where X, Y are N, S, or O) that may be acid/base labile, releasing an aldehyde.

>  <s_lp_Force_Field>  (229) 
OPLS3e

>  <r_lp_Energy>  (229) 
27.3906

>  <b_lp_Chiralities_Consistent>  (229) 
1

>  <s_lp_Variant>  (229) 
59:0-2

>  <s_i_glide_gridfile>  (229) 
pfpi4k_grid

>  <i_i_glide_lignum>  (229) 
8

>  <i_i_glide_rotatable_bonds>  (229) 
5

>  <r_i_docking_score>  (229) 
-3.62646

>  <r_i_glide_ligand_efficiency>  (229) 
-0.145058

>  <r_i_glide_ligand_efficiency_sa>  (229) 
-0.424153

>  <r_i_glide_ligand_efficiency_ln>  (229) 
-0.859579

>  <r_i_glide_gscore>  (229) 
-3.62646

>  <r_i_glide_lipo>  (229) 
-0.349129

>  <r_i_glide_hbond>  (229) 
-0.16

>  <r_i_glide_metal>  (229) 
-0

>  <r_i_glide_rewards>  (229) 
-1.04738

>  <r_i_glide_evdw>  (229) 
-28.2241

>  <r_i_glide_ecoul>  (229) 
-6.52303

>  <r_i_glide_erotb>  (229) 
0.475357

>  <r_i_glide_esite>  (229) 
-0.155648

>  <r_i_glide_emodel>  (229) 
-42.2396

>  <r_i_glide_energy>  (229) 
-34.7471

>  <r_i_glide_einternal>  (229) 
3.66253

>  <r_i_glide_intrahb_reward>  (229) 
-0

>  <i_i_glide_confnum>  (229) 
5

>  <i_i_glide_posenum>  (229) 
15

>  <r_i_glide_eff_state_penalty>  (229) 
0

>  <ligand_id>  (229) 
59

>  <original_smiles>  (229) 
CC1CCC(=NN=c2[nH]cnc3c2ncn3C2OC(C)C(O)C2O)C1

>  <smiles>  (229) 
[H]OC1([H])C([H])(n2c([H])nc3c(N([H])N=C4C([H])([H])C([H])([H])C([H])(C([H])([H])[H])C4([H])[H])nc([H])nc32)OC([H])(C([H])([H])[H])C1([H])O[H]

$$$$
60:0:0
     RDKit          3D

 58 62  0  0  1  0  0  0  0  0999 V2000
    3.2804   -9.3745    1.2517 C   0  0  0  0  0  0  0  0  0  0  0  0
    3.2079   -8.1663    2.1836 C   0  0  0  0  0  0  0  0  0  0  0  0
    2.6996   -8.1267    3.4676 C   0  0  0  0  0  0  0  0  0  0  0  0
    3.0060   -6.8690    4.2314 C   0  0  0  0  0  0  0  0  0  0  0  0
    2.5383   -6.4560    5.4320 C   0  0  0  0  0  0  0  0  0  0  0  0
    1.4833   -6.9714    6.3768 C   0  0  1  0  0  0  0  0  0  0  0  0
    0.1020   -6.3364    6.0291 C   0  0  1  0  0  0  0  0  0  0  0  0
    0.0450   -4.8128    6.0924 C   0  0  0  0  0  0  0  0  0  0  0  0
    0.6234   -3.8584    5.2027 C   0  0  0  0  0  0  0  0  0  0  0  0
    0.2986   -2.6164    5.6737 C   0  0  0  0  0  0  0  0  0  0  0  0
   -0.4556   -2.7171    6.7972 O   0  0  0  0  0  0  0  0  0  0  0  0
   -0.5941   -4.0490    7.0382 C   0  0  0  0  0  0  0  0  0  0  0  0
   -0.5191   -6.9416    4.7452 C   0  0  1  0  0  0  0  0  0  0  0  0
    0.0683   -6.4549    3.5507 O   0  0  0  0  0  0  0  0  0  0  0  0
   -0.4393   -8.4838    4.7977 C   0  0  1  0  0  0  0  0  0  0  0  0
   -1.1076   -9.0545    3.6881 O   0  0  0  0  0  0  0  0  0  0  0  0
    0.9330   -9.1360    5.2366 C   0  0  2  0  0  0  0  0  0  0  0  0
    1.4607   -8.5091    6.5624 C   0  0  2  0  0  0  0  0  0  0  0  0
    0.5264   -8.8792    7.7552 C   0  0  0  0  0  0  0  0  0  0  0  0
    2.8424   -9.0809    7.0334 C   0  0  0  0  0  0  0  0  0  0  0  0
    3.8752   -9.4421    5.9596 C   0  0  0  0  0  0  0  0  0  0  0  0
    3.2185  -10.1990    4.8038 C   0  0  1  0  0  0  0  0  0  0  0  0
    2.8477  -11.4856    5.2735 O   0  0  0  0  0  0  0  0  0  0  0  0
    2.0475   -9.4039    4.1449 C   0  0  2  0  0  0  0  0  0  0  0  0
    1.3696  -10.3926    3.1407 C   0  0  0  0  0  0  0  0  0  0  0  0
    3.9574   -5.9062    3.6949 C   0  0  0  0  0  0  0  0  0  0  0  0
    4.3724   -5.9404    2.4340 C   0  0  0  0  0  0  0  0  0  0  0  0
    3.9153   -6.9994    1.4837 C   0  0  0  0  0  0  0  0  0  0  0  0
    3.9561   -9.2107    0.4109 H   0  0  0  0  0  0  0  0  0  0  0  0
    2.3169   -9.6000    0.7994 H   0  0  0  0  0  0  0  0  0  0  0  0
    3.6934  -10.2505    1.7504 H   0  0  0  0  0  0  0  0  0  0  0  0
    2.9046   -5.5102    5.8069 H   0  0  0  0  0  0  0  0  0  0  0  0
    1.7720   -6.5587    7.3443 H   0  0  0  0  0  0  0  0  0  0  0  0
   -0.5725   -6.6092    6.8355 H   0  0  0  0  0  0  0  0  0  0  0  0
    1.2129   -4.0496    4.3186 H   0  0  0  0  0  0  0  0  0  0  0  0
    0.5162   -1.6122    5.3443 H   0  0  0  0  0  0  0  0  0  0  0  0
   -1.1752   -4.2809    7.9172 H   0  0  0  0  0  0  0  0  0  0  0  0
   -1.5702   -6.6484    4.7080 H   0  0  0  0  0  0  0  0  0  0  0  0
    0.9328   -6.8380    3.4840 H   0  0  0  0  0  0  0  0  0  0  0  0
   -1.1292   -8.7569    5.5913 H   0  0  0  0  0  0  0  0  0  0  0  0
   -1.4735   -9.8841    3.9897 H   0  0  0  0  0  0  0  0  0  0  0  0
    0.6346  -10.1362    5.5526 H   0  0  0  0  0  0  0  0  0  0  0  0
    0.4997   -9.9594    7.9080 H   0  0  0  0  0  0  0  0  0  0  0  0
   -0.5104   -8.5803    7.6413 H   0  0  0  0  0  0  0  0  0  0  0  0
    0.8830   -8.4365    8.6880 H   0  0  0  0  0  0  0  0  0  0  0  0
    3.3095   -8.3965    7.7423 H   0  0  0  0  0  0  0  0  0  0  0  0
    2.6854   -9.9998    7.6019 H   0  0  0  0  0  0  0  0  0  0  0  0
    4.4100   -8.5625    5.6070 H   0  0  0  0  0  0  0  0  0  0  0  0
    4.6550  -10.0639    6.4052 H   0  0  0  0  0  0  0  0  0  0  0  0
    3.9868  -10.3810    4.0526 H   0  0  0  0  0  0  0  0  0  0  0  0
    2.2500  -11.4231    6.0105 H   0  0  0  0  0  0  0  0  0  0  0  0
    0.6401  -11.0438    3.6220 H   0  0  0  0  0  0  0  0  0  0  0  0
    2.0560  -11.1042    2.6912 H   0  0  0  0  0  0  0  0  0  0  0  0
    0.8322   -9.8746    2.3480 H   0  0  0  0  0  0  0  0  0  0  0  0
    4.3485   -5.1133    4.3201 H   0  0  0  0  0  0  0  0  0  0  0  0
    5.0587   -5.1971    2.0564 H   0  0  0  0  0  0  0  0  0  0  0  0
    4.8224   -7.3467    0.9848 H   0  0  0  0  0  0  0  0  0  0  0  0
    3.2669   -6.5667    0.7217 H   0  0  0  0  0  0  0  0  0  0  0  0
  1  2  1  0
  1 29  1  0
  1 30  1  0
  1 31  1  0
  2 28  1  0
  2  3  2  0
  3 24  1  0
  3  4  1  0
  4  5  2  0
  4 26  1  0
  5  6  1  0
  5 32  1  0
  6 18  1  0
  6  7  1  0
  6 33  1  1
  7  8  1  0
  7 13  1  0
  7 34  1  1
  8 12  2  0
  8  9  1  0
  9 10  2  0
  9 35  1  0
 10 11  1  0
 10 36  1  0
 11 12  1  0
 12 37  1  0
 13 14  1  0
 13 15  1  0
 13 38  1  6
 14 39  1  0
 15 16  1  0
 15 17  1  0
 15 40  1  1
 16 41  1  0
 17 24  1  0
 17 18  1  0
 17 42  1  1
 18 19  1  1
 18 20  1  0
 19 43  1  0
 19 44  1  0
 19 45  1  0
 20 21  1  0
 20 46  1  0
 20 47  1  0
 21 22  1  0
 21 48  1  0
 21 49  1  0
 22 23  1  0
 22 24  1  0
 22 50  1  6
 23 51  1  0
 24 25  1  6
 25 52  1  0
 25 53  1  0
 25 54  1  0
 26 27  2  0
 26 55  1  0
 27 28  1  0
 27 56  1  0
 28 57  1  0
 28 58  1  0
M  END
>  <i_m_ct_stereo_status>  (230) 
1

>  <s_m_source_file>  (230) 
/var/tmp/pbs.5076255.sched01/tmpn8rdt6mw/90ee43ygr2.sdf

>  <i_m_source_file_index>  (230) 
9

>  <i_lp_mmshare_version>  (230) 
48012

>  <i_f3d_flags>  (230) 
0

>  <s_epik_input>  (230) 
W0NIM11bQ0BdMTJbQ0BIXTNbQ0hdPUM0Qyg9QyhbQ0gzXSlbQ0gyXVtDSF09W0NIXTQpW0NAQF0oW0NIM10pKFtDQEhdKFtPSF0pW0NIMl1bQ0gyXTIpW0NIXTFbQ0BIXShbT0hdKVtDQEhdKFtPSF0pW0NAQEhdM2M1W2NIXVtjSF1vW2NIXTU=

>  <s_epik_cmdline>  (230) 
J2VwaWtfcHl0aG9uJywgJy1waHQnLCAnMi4wJywgJy1waCcsICc3LjAnLCAnLXRuJywgJzgnLCAnLW1hJywgJzIwMCcsICctaW1hZScsICc8aW5maWxlLm1hZT4nLCAnLW9tYWUnLCAnPG91dGZpbGUubWFlPic=

>  <r_lp_tautomer_probability>  (230) 
1

>  <r_epik_Ionization_Penalty>  (230) 
5.5659e-07

>  <r_epik_Ionization_Penalty_Charging>  (230) 
0

>  <r_epik_Ionization_Penalty_Neutral>  (230) 
5.5659e-07

>  <r_epik_State_Penalty>  (230) 
-0

>  <r_epik_Charging_Adjusted_Penalty>  (230) 
0

>  <i_epik_Tot_Q>  (230) 
0

>  <i_epik_Tot_abs_Q>  (230) 
0

>  <s_lp_Force_Field>  (230) 
OPLS3e

>  <r_lp_Energy>  (230) 
78.2718

>  <b_lp_Chiralities_Consistent>  (230) 
1

>  <s_lp_Variant>  (230) 
60:0-1

>  <s_i_glide_gridfile>  (230) 
pfpi4k_grid

>  <i_i_glide_lignum>  (230) 
9

>  <i_i_glide_rotatable_bonds>  (230) 
4

>  <r_i_docking_score>  (230) 
-3.10514

>  <r_i_glide_ligand_efficiency>  (230) 
-0.110898

>  <r_i_glide_ligand_efficiency_sa>  (230) 
-0.336751

>  <r_i_glide_ligand_efficiency_ln>  (230) 
-0.716758

>  <r_i_glide_gscore>  (230) 
-3.10514

>  <r_i_glide_lipo>  (230) 
-0.200842

>  <r_i_glide_hbond>  (230) 
-0.126663

>  <r_i_glide_metal>  (230) 
-0

>  <r_i_glide_rewards>  (230) 
-0.801187

>  <r_i_glide_evdw>  (230) 
-25.0642

>  <r_i_glide_ecoul>  (230) 
-5.70663

>  <r_i_glide_erotb>  (230) 
0.132755

>  <r_i_glide_esite>  (230) 
0

>  <r_i_glide_emodel>  (230) 
-37.4223

>  <r_i_glide_energy>  (230) 
-30.7708

>  <r_i_glide_einternal>  (230) 
0.861307

>  <r_i_glide_intrahb_reward>  (230) 
-0

>  <i_i_glide_confnum>  (230) 
4

>  <i_i_glide_posenum>  (230) 
10

>  <r_i_glide_eff_state_penalty>  (230) 
0

>  <ligand_id>  (230) 
60

>  <original_smiles>  (230) 
CC1=C2C(=CC3C(c4ccoc4)C(O)C(O)C4C3(C)CCC(O)C24C)C=CC1

>  <smiles>  (230) 
[H]OC1([H])C([H])(O[H])C2([H])C3(C([H])([H])[H])C4=C(C([H])([H])[H])C([H])([H])C([H])=C([H])C4=C([H])C([H])(C1([H])c1c([H])oc([H])c1[H])C2(C([H])([H])[H])C([H])([H])C([H])([H])C3([H])O[H]

$$$$
60:0:1
     RDKit          3D

 58 62  0  0  1  0  0  0  0  0999 V2000
    6.8101   -5.3995    1.9382 C   0  0  0  0  0  0  0  0  0  0  0  0
    5.4678   -5.4721    2.6686 C   0  0  0  0  0  0  0  0  0  0  0  0
    4.8704   -6.5791    3.2350 C   0  0  0  0  0  0  0  0  0  0  0  0
    3.6743   -6.2794    4.0886 C   0  0  0  0  0  0  0  0  0  0  0  0
    2.8003   -7.1368    4.6524 C   0  0  0  0  0  0  0  0  0  0  0  0
    2.5595   -8.6246    4.5568 C   0  0  1  0  0  0  0  0  0  0  0  0
    1.5462   -8.9418    3.4101 C   0  0  1  0  0  0  0  0  0  0  0  0
    0.1898   -8.2567    3.5180 C   0  0  0  0  0  0  0  0  0  0  0  0
   -0.3961   -7.6397    4.6708 C   0  0  0  0  0  0  0  0  0  0  0  0
   -1.6167   -7.1832    4.2920 C   0  0  0  0  0  0  0  0  0  0  0  0
   -1.8750   -7.4998    3.0023 O   0  0  0  0  0  0  0  0  0  0  0  0
   -0.7795   -8.1662    2.5616 C   0  0  0  0  0  0  0  0  0  0  0  0
    2.1943   -8.7738    2.0234 C   0  0  1  0  0  0  0  0  0  0  0  0
    2.3135   -7.4149    1.6520 O   0  0  0  0  0  0  0  0  0  0  0  0
    3.5625   -9.4748    1.9992 C   0  0  1  0  0  0  0  0  0  0  0  0
    4.1023   -9.4616    0.7066 O   0  0  0  0  0  0  0  0  0  0  0  0
    4.5586   -9.2562    3.1985 C   0  0  2  0  0  0  0  0  0  0  0  0
    3.8436   -9.4898    4.5565 C   0  0  2  0  0  0  0  0  0  0  0  0
    3.4534  -10.9871    4.7307 C   0  0  0  0  0  0  0  0  0  0  0  0
    4.7555   -9.2367    5.8035 C   0  0  0  0  0  0  0  0  0  0  0  0
    5.7717   -8.0925    5.7264 C   0  0  0  0  0  0  0  0  0  0  0  0
    6.5026   -8.0977    4.3867 C   0  0  1  0  0  0  0  0  0  0  0  0
    7.3399   -9.2420    4.3527 O   0  0  0  0  0  0  0  0  0  0  0  0
    5.5354   -8.0129    3.1696 C   0  0  2  0  0  0  0  0  0  0  0  0
    6.4228   -8.2518    1.9017 C   0  0  0  0  0  0  0  0  0  0  0  0
    3.3537   -4.9068    4.4460 C   0  0  0  0  0  0  0  0  0  0  0  0
    3.9027   -3.8678    3.8323 C   0  0  0  0  0  0  0  0  0  0  0  0
    4.9148   -4.0478    2.7480 C   0  0  0  0  0  0  0  0  0  0  0  0
    7.1603   -4.3723    1.8196 H   0  0  0  0  0  0  0  0  0  0  0  0
    6.7572   -5.8050    0.9297 H   0  0  0  0  0  0  0  0  0  0  0  0
    7.5942   -5.8817    2.5133 H   0  0  0  0  0  0  0  0  0  0  0  0
    2.0369   -6.6964    5.2635 H   0  0  0  0  0  0  0  0  0  0  0  0
    2.0463   -8.8727    5.4835 H   0  0  0  0  0  0  0  0  0  0  0  0
    1.2681   -9.9941    3.4955 H   0  0  0  0  0  0  0  0  0  0  0  0
    0.0059   -7.5297    5.6664 H   0  0  0  0  0  0  0  0  0  0  0  0
   -2.4104   -6.6623    4.8148 H   0  0  0  0  0  0  0  0  0  0  0  0
   -0.8639   -8.5088    1.5316 H   0  0  0  0  0  0  0  0  0  0  0  0
    1.5552   -9.2525    1.2774 H   0  0  0  0  0  0  0  0  0  0  0  0
    3.0153   -7.0368    2.1698 H   0  0  0  0  0  0  0  0  0  0  0  0
    3.3080  -10.5284    2.0645 H   0  0  0  0  0  0  0  0  0  0  0  0
    4.2011  -10.3910    0.4878 H   0  0  0  0  0  0  0  0  0  0  0  0
    5.2283  -10.1201    3.1265 H   0  0  0  0  0  0  0  0  0  0  0  0
    4.3384  -11.6248    4.7353 H   0  0  0  0  0  0  0  0  0  0  0  0
    2.8107  -11.3940    3.9567 H   0  0  0  0  0  0  0  0  0  0  0  0
    2.9422  -11.1633    5.6797 H   0  0  0  0  0  0  0  0  0  0  0  0
    4.1344   -9.0647    6.6741 H   0  0  0  0  0  0  0  0  0  0  0  0
    5.3270  -10.1462    6.0417 H   0  0  0  0  0  0  0  0  0  0  0  0
    5.3033   -7.1224    5.9151 H   0  0  0  0  0  0  0  0  0  0  0  0
    6.4922   -8.1993    6.5388 H   0  0  0  0  0  0  0  0  0  0  0  0
    7.1786   -7.2450    4.3698 H   0  0  0  0  0  0  0  0  0  0  0  0
    6.7935  -10.0184    4.3850 H   0  0  0  0  0  0  0  0  0  0  0  0
    6.5636   -9.3104    1.6823 H   0  0  0  0  0  0  0  0  0  0  0  0
    7.4448   -7.8878    1.9915 H   0  0  0  0  0  0  0  0  0  0  0  0
    5.9720   -7.8270    1.0094 H   0  0  0  0  0  0  0  0  0  0  0  0
    2.6291   -4.6964    5.2228 H   0  0  0  0  0  0  0  0  0  0  0  0
    3.6231   -2.8569    4.0822 H   0  0  0  0  0  0  0  0  0  0  0  0
    5.7059   -3.3447    2.9913 H   0  0  0  0  0  0  0  0  0  0  0  0
    4.4931   -3.7442    1.7919 H   0  0  0  0  0  0  0  0  0  0  0  0
  1  2  1  0
  1 29  1  0
  1 30  1  0
  1 31  1  0
  2 28  1  0
  2  3  2  0
  3 24  1  0
  3  4  1  0
  4  5  2  0
  4 26  1  0
  5  6  1  0
  5 32  1  0
  6 18  1  0
  6  7  1  0
  6 33  1  1
  7  8  1  0
  7 13  1  0
  7 34  1  1
  8 12  2  0
  8  9  1  0
  9 10  2  0
  9 35  1  0
 10 11  1  0
 10 36  1  0
 11 12  1  0
 12 37  1  0
 13 14  1  0
 13 15  1  0
 13 38  1  6
 14 39  1  0
 15 16  1  0
 15 17  1  0
 15 40  1  1
 16 41  1  0
 17 24  1  0
 17 18  1  0
 17 42  1  6
 18 19  1  6
 18 20  1  0
 19 43  1  0
 19 44  1  0
 19 45  1  0
 20 21  1  0
 20 46  1  0
 20 47  1  0
 21 22  1  0
 21 48  1  0
 21 49  1  0
 22 23  1  0
 22 24  1  0
 22 50  1  1
 23 51  1  0
 24 25  1  6
 25 52  1  0
 25 53  1  0
 25 54  1  0
 26 27  2  0
 26 55  1  0
 27 28  1  0
 27 56  1  0
 28 57  1  0
 28 58  1  0
M  END
>  <i_m_ct_stereo_status>  (231) 
1

>  <s_m_source_file>  (231) 
/var/tmp/pbs.5076255.sched01/tmpn8rdt6mw/90ee43ygr2.sdf

>  <i_m_source_file_index>  (231) 
9

>  <i_lp_mmshare_version>  (231) 
48012

>  <i_f3d_flags>  (231) 
0

>  <s_epik_input>  (231) 
W0NIM11bQ0BdMTJbQ0BIXTNbQ0hdPUM0Qyg9QyhbQ0gzXSlbQ0gyXVtDSF09W0NIXTQpW0NAQF0oW0NIM10pKFtDQEhdKFtPSF0pW0NIMl1bQ0gyXTIpW0NIXTFbQ0BIXShbT0hdKVtDQEhdKFtPSF0pW0NAQEhdM2M1W2NIXVtjSF1vW2NIXTU=

>  <s_epik_cmdline>  (231) 
J2VwaWtfcHl0aG9uJywgJy1waHQnLCAnMi4wJywgJy1waCcsICc3LjAnLCAnLXRuJywgJzgnLCAnLW1hJywgJzIwMCcsICctaW1hZScsICc8aW5maWxlLm1hZT4nLCAnLW9tYWUnLCAnPG91dGZpbGUubWFlPic=

>  <r_lp_tautomer_probability>  (231) 
1

>  <r_epik_Ionization_Penalty>  (231) 
5.5659e-07

>  <r_epik_Ionization_Penalty_Charging>  (231) 
0

>  <r_epik_Ionization_Penalty_Neutral>  (231) 
5.5659e-07

>  <r_epik_State_Penalty>  (231) 
-0

>  <r_epik_Charging_Adjusted_Penalty>  (231) 
0

>  <i_epik_Tot_Q>  (231) 
0

>  <i_epik_Tot_abs_Q>  (231) 
0

>  <s_lp_Force_Field>  (231) 
OPLS3e

>  <r_lp_Energy>  (231) 
78.2718

>  <b_lp_Chiralities_Consistent>  (231) 
1

>  <s_lp_Variant>  (231) 
60:0-1

>  <s_i_glide_gridfile>  (231) 
pfpi4k_grid

>  <i_i_glide_lignum>  (231) 
9

>  <i_i_glide_rotatable_bonds>  (231) 
4

>  <r_i_docking_score>  (231) 
-2.99679

>  <r_i_glide_ligand_efficiency>  (231) 
-0.107028

>  <r_i_glide_ligand_efficiency_sa>  (231) 
-0.325001

>  <r_i_glide_ligand_efficiency_ln>  (231) 
-0.691748

>  <r_i_glide_gscore>  (231) 
-2.99679

>  <r_i_glide_lipo>  (231) 
-0.189746

>  <r_i_glide_hbond>  (231) 
-0.00858625

>  <r_i_glide_metal>  (231) 
-0

>  <r_i_glide_rewards>  (231) 
-0.801187

>  <r_i_glide_evdw>  (231) 
-23.2624

>  <r_i_glide_ecoul>  (231) 
-6.44608

>  <r_i_glide_erotb>  (231) 
0.132755

>  <r_i_glide_esite>  (231) 
0

>  <r_i_glide_emodel>  (231) 
-35.5911

>  <r_i_glide_energy>  (231) 
-29.7085

>  <r_i_glide_einternal>  (231) 
1.66347

>  <r_i_glide_intrahb_reward>  (231) 
-0

>  <i_i_glide_confnum>  (231) 
3

>  <i_i_glide_posenum>  (231) 
17

>  <r_i_glide_eff_state_penalty>  (231) 
0

>  <ligand_id>  (231) 
60

>  <original_smiles>  (231) 
CC1=C2C(=CC3C(c4ccoc4)C(O)C(O)C4C3(C)CCC(O)C24C)C=CC1

>  <smiles>  (231) 
[H]OC1([H])C([H])(O[H])C2([H])C3(C([H])([H])[H])C4=C(C([H])([H])[H])C([H])([H])C([H])=C([H])C4=C([H])C([H])(C1([H])c1c([H])oc([H])c1[H])C2(C([H])([H])[H])C([H])([H])C([H])([H])C3([H])O[H]

$$$$
60:0:2
     RDKit          3D

 58 62  0  0  1  0  0  0  0  0999 V2000
    3.1925   -9.4400    1.1755 C   0  0  0  0  0  0  0  0  0  0  0  0
    3.1373   -8.2060    2.0726 C   0  0  0  0  0  0  0  0  0  0  0  0
    2.6549   -8.1330    3.3661 C   0  0  0  0  0  0  0  0  0  0  0  0
    2.9769   -6.8541    4.0870 C   0  0  0  0  0  0  0  0  0  0  0  0
    2.5325   -6.4077    5.2863 C   0  0  0  0  0  0  0  0  0  0  0  0
    1.4935   -6.8955    6.2623 C   0  0  1  0  0  0  0  0  0  0  0  0
    0.1091   -6.2658    5.9191 C   0  0  1  0  0  0  0  0  0  0  0  0
    0.0777   -4.7408    5.9213 C   0  0  0  0  0  0  0  0  0  0  0  0
   -0.5197   -3.8897    6.8988 C   0  0  0  0  0  0  0  0  0  0  0  0
   -0.3115   -2.6023    6.4870 C   0  0  0  0  0  0  0  0  0  0  0  0
    0.3706   -2.5782    5.3177 O   0  0  0  0  0  0  0  0  0  0  0  0
    0.6044   -3.8746    4.9938 C   0  0  0  0  0  0  0  0  0  0  0  0
   -0.5385   -6.9144    4.6688 C   0  0  1  0  0  0  0  0  0  0  0  0
    0.0265   -6.4616    3.4491 O   0  0  0  0  0  0  0  0  0  0  0  0
   -0.4574   -8.4540    4.7648 C   0  0  1  0  0  0  0  0  0  0  0  0
   -1.1445   -9.0568    3.6823 O   0  0  0  0  0  0  0  0  0  0  0  0
    0.9234   -9.0922    5.1971 C   0  0  2  0  0  0  0  0  0  0  0  0
    1.4764   -8.4272    6.4936 C   0  0  2  0  0  0  0  0  0  0  0  0
    0.5662   -8.7631    7.7147 C   0  0  0  0  0  0  0  0  0  0  0  0
    2.8673   -8.9830    6.9546 C   0  0  0  0  0  0  0  0  0  0  0  0
    3.8804   -9.3741    5.8722 C   0  0  0  0  0  0  0  0  0  0  0  0
    3.2016  -10.1670    4.7531 C   0  0  1  0  0  0  0  0  0  0  0  0
    2.8408  -11.4402    5.2687 O   0  0  0  0  0  0  0  0  0  0  0  0
    2.0179   -9.3906    4.0928 C   0  0  2  0  0  0  0  0  0  0  0  0
    1.3216  -10.4078    3.1305 C   0  0  0  0  0  0  0  0  0  0  0  0
    3.9145   -5.9044    3.5061 C   0  0  0  0  0  0  0  0  0  0  0  0
    4.3048   -5.9739    2.2373 C   0  0  0  0  0  0  0  0  0  0  0  0
    3.8307   -7.0602    1.3278 C   0  0  0  0  0  0  0  0  0  0  0  0
    3.8522   -9.3034    0.3179 H   0  0  0  0  0  0  0  0  0  0  0  0
    2.2214   -9.6825    0.7498 H   0  0  0  0  0  0  0  0  0  0  0  0
    3.6194  -10.2917    1.6994 H   0  0  0  0  0  0  0  0  0  0  0  0
    2.9045   -5.4512    5.6261 H   0  0  0  0  0  0  0  0  0  0  0  0
    1.7987   -6.4549    7.2126 H   0  0  0  0  0  0  0  0  0  0  0  0
   -0.5532   -6.4983    6.7495 H   0  0  0  0  0  0  0  0  0  0  0  0
   -1.0407   -4.1794    7.8023 H   0  0  0  0  0  0  0  0  0  0  0  0
   -0.5608   -1.6285    6.8813 H   0  0  0  0  0  0  0  0  0  0  0  0
    1.1482   -4.0066    4.0735 H   0  0  0  0  0  0  0  0  0  0  0  0
   -1.5900   -6.6224    4.6436 H   0  0  0  0  0  0  0  0  0  0  0  0
    0.9043   -6.8129    3.3967 H   0  0  0  0  0  0  0  0  0  0  0  0
   -1.1326   -8.7035    5.5786 H   0  0  0  0  0  0  0  0  0  0  0  0
   -1.4945   -9.8852    4.0062 H   0  0  0  0  0  0  0  0  0  0  0  0
    0.6325  -10.0832    5.5477 H   0  0  0  0  0  0  0  0  0  0  0  0
    0.5428   -9.8388    7.8991 H   0  0  0  0  0  0  0  0  0  0  0  0
   -0.4712   -8.4628    7.6123 H   0  0  0  0  0  0  0  0  0  0  0  0
    0.9403   -8.2931    8.6277 H   0  0  0  0  0  0  0  0  0  0  0  0
    3.3470   -8.2773    7.6347 H   0  0  0  0  0  0  0  0  0  0  0  0
    2.7236   -9.8850    7.5521 H   0  0  0  0  0  0  0  0  0  0  0  0
    4.4072   -8.5055    5.4820 H   0  0  0  0  0  0  0  0  0  0  0  0
    4.6692   -9.9818    6.3208 H   0  0  0  0  0  0  0  0  0  0  0  0
    3.9551  -10.3711    3.9937 H   0  0  0  0  0  0  0  0  0  0  0  0
    2.2447  -11.3553    6.0035 H   0  0  0  0  0  0  0  0  0  0  0  0
    0.6008  -11.0446    3.6432 H   0  0  0  0  0  0  0  0  0  0  0  0
    2.0002  -11.1313    2.6885 H   0  0  0  0  0  0  0  0  0  0  0  0
    0.7694   -9.9123    2.3335 H   0  0  0  0  0  0  0  0  0  0  0  0
    4.3160   -5.0938    4.0992 H   0  0  0  0  0  0  0  0  0  0  0  0
    4.9828   -5.2410    1.8268 H   0  0  0  0  0  0  0  0  0  0  0  0
    4.7284   -7.4213    0.8205 H   0  0  0  0  0  0  0  0  0  0  0  0
    3.1681   -6.6488    0.5655 H   0  0  0  0  0  0  0  0  0  0  0  0
  1  2  1  0
  1 29  1  0
  1 30  1  0
  1 31  1  0
  2 28  1  0
  2  3  2  0
  3 24  1  0
  3  4  1  0
  4  5  2  0
  4 26  1  0
  5  6  1  0
  5 32  1  0
  6 18  1  0
  6  7  1  0
  6 33  1  1
  7  8  1  0
  7 13  1  0
  7 34  1  1
  8 12  2  0
  8  9  1  0
  9 10  2  0
  9 35  1  0
 10 11  1  0
 10 36  1  0
 11 12  1  0
 12 37  1  0
 13 14  1  0
 13 15  1  0
 13 38  1  6
 14 39  1  0
 15 16  1  0
 15 17  1  0
 15 40  1  1
 16 41  1  0
 17 24  1  0
 17 18  1  0
 17 42  1  1
 18 19  1  1
 18 20  1  0
 19 43  1  0
 19 44  1  0
 19 45  1  0
 20 21  1  0
 20 46  1  0
 20 47  1  0
 21 22  1  0
 21 48  1  0
 21 49  1  0
 22 23  1  0
 22 24  1  0
 22 50  1  6
 23 51  1  0
 24 25  1  6
 25 52  1  0
 25 53  1  0
 25 54  1  0
 26 27  2  0
 26 55  1  0
 27 28  1  0
 27 56  1  0
 28 57  1  0
 28 58  1  0
M  END
>  <i_m_ct_stereo_status>  (232) 
1

>  <s_m_source_file>  (232) 
/var/tmp/pbs.5076255.sched01/tmpn8rdt6mw/90ee43ygr2.sdf

>  <i_m_source_file_index>  (232) 
9

>  <i_lp_mmshare_version>  (232) 
48012

>  <i_f3d_flags>  (232) 
0

>  <s_epik_input>  (232) 
W0NIM11bQ0BdMTJbQ0BIXTNbQ0hdPUM0Qyg9QyhbQ0gzXSlbQ0gyXVtDSF09W0NIXTQpW0NAQF0oW0NIM10pKFtDQEhdKFtPSF0pW0NIMl1bQ0gyXTIpW0NIXTFbQ0BIXShbT0hdKVtDQEhdKFtPSF0pW0NAQEhdM2M1W2NIXVtjSF1vW2NIXTU=

>  <s_epik_cmdline>  (232) 
J2VwaWtfcHl0aG9uJywgJy1waHQnLCAnMi4wJywgJy1waCcsICc3LjAnLCAnLXRuJywgJzgnLCAnLW1hJywgJzIwMCcsICctaW1hZScsICc8aW5maWxlLm1hZT4nLCAnLW9tYWUnLCAnPG91dGZpbGUubWFlPic=

>  <r_lp_tautomer_probability>  (232) 
1

>  <r_epik_Ionization_Penalty>  (232) 
5.5659e-07

>  <r_epik_Ionization_Penalty_Charging>  (232) 
0

>  <r_epik_Ionization_Penalty_Neutral>  (232) 
5.5659e-07

>  <r_epik_State_Penalty>  (232) 
-0

>  <r_epik_Charging_Adjusted_Penalty>  (232) 
0

>  <i_epik_Tot_Q>  (232) 
0

>  <i_epik_Tot_abs_Q>  (232) 
0

>  <s_lp_Force_Field>  (232) 
OPLS3e

>  <r_lp_Energy>  (232) 
78.2718

>  <b_lp_Chiralities_Consistent>  (232) 
1

>  <s_lp_Variant>  (232) 
60:0-1

>  <s_i_glide_gridfile>  (232) 
pfpi4k_grid

>  <i_i_glide_lignum>  (232) 
9

>  <i_i_glide_rotatable_bonds>  (232) 
4

>  <r_i_docking_score>  (232) 
-2.95622

>  <r_i_glide_ligand_efficiency>  (232) 
-0.105579

>  <r_i_glide_ligand_efficiency_sa>  (232) 
-0.320601

>  <r_i_glide_ligand_efficiency_ln>  (232) 
-0.682382

>  <r_i_glide_gscore>  (232) 
-2.95622

>  <r_i_glide_lipo>  (232) 
-0.225625

>  <r_i_glide_hbond>  (232) 
-0.107939

>  <r_i_glide_metal>  (232) 
-0

>  <r_i_glide_rewards>  (232) 
-0.801187

>  <r_i_glide_evdw>  (232) 
-24.9215

>  <r_i_glide_ecoul>  (232) 
-4.72099

>  <r_i_glide_erotb>  (232) 
0.132755

>  <r_i_glide_esite>  (232) 
0

>  <r_i_glide_emodel>  (232) 
-35.9423

>  <r_i_glide_energy>  (232) 
-29.6425

>  <r_i_glide_einternal>  (232) 
0.832064

>  <r_i_glide_intrahb_reward>  (232) 
-0

>  <i_i_glide_confnum>  (232) 
4

>  <i_i_glide_posenum>  (232) 
12

>  <r_i_glide_eff_state_penalty>  (232) 
0

>  <ligand_id>  (232) 
60

>  <original_smiles>  (232) 
CC1=C2C(=CC3C(c4ccoc4)C(O)C(O)C4C3(C)CCC(O)C24C)C=CC1

>  <smiles>  (232) 
[H]OC1([H])C([H])(O[H])C2([H])C3(C([H])([H])[H])C4=C(C([H])([H])[H])C([H])([H])C([H])=C([H])C4=C([H])C([H])(C1([H])c1c([H])oc([H])c1[H])C2(C([H])([H])[H])C([H])([H])C([H])([H])C3([H])O[H]

$$$$
60:1:0
     RDKit          3D

 58 62  0  0  1  0  0  0  0  0999 V2000
    8.3116   -5.6728    1.2784 C   0  0  0  0  0  0  0  0  0  0  0  0
    6.7874   -5.5599    1.3340 C   0  0  0  0  0  0  0  0  0  0  0  0
    5.8916   -6.3968    1.9623 C   0  0  0  0  0  0  0  0  0  0  0  0
    4.4386   -5.9753    1.8650 C   0  0  0  0  0  0  0  0  0  0  0  0
    3.3638   -6.3709    2.6148 C   0  0  0  0  0  0  0  0  0  0  0  0
    3.1971   -7.2598    3.8745 C   0  0  1  0  0  0  0  0  0  0  0  0
    2.3086   -8.5549    3.6724 C   0  0  1  0  0  0  0  0  0  0  0  0
    0.8851   -8.2965    3.1540 C   0  0  0  0  0  0  0  0  0  0  0  0
   -0.1212   -9.2783    2.8803 C   0  0  0  0  0  0  0  0  0  0  0  0
   -1.2412   -8.6094    2.4769 C   0  0  0  0  0  0  0  0  0  0  0  0
   -1.0327   -7.2694    2.5002 O   0  0  0  0  0  0  0  0  0  0  0  0
    0.2379   -7.0998    2.9450 C   0  0  0  0  0  0  0  0  0  0  0  0
    3.0434   -9.8151    3.0168 C   0  0  1  0  0  0  0  0  0  0  0  0
    2.8728   -9.7341    1.6104 O   0  0  0  0  0  0  0  0  0  0  0  0
    4.5985   -9.9089    3.3185 C   0  0  1  0  0  0  0  0  0  0  0  0
    5.2611  -10.8435    2.4857 O   0  0  0  0  0  0  0  0  0  0  0  0
    5.1597   -8.4525    3.3284 C   0  0  1  0  0  0  0  0  0  0  0  0
    4.5508   -7.6261    4.4977 C   0  0  2  0  0  0  0  0  0  0  0  0
    4.4232   -8.3983    5.8484 C   0  0  0  0  0  0  0  0  0  0  0  0
    5.3706   -6.3557    4.8964 C   0  0  0  0  0  0  0  0  0  0  0  0
    6.8892   -6.5952    4.9298 C   0  0  0  0  0  0  0  0  0  0  0  0
    7.4049   -7.5197    3.8011 C   0  0  1  0  0  0  0  0  0  0  0  0
    7.7891   -8.7553    4.3856 O   0  0  0  0  0  0  0  0  0  0  0  0
    6.3708   -7.7528    2.6452 C   0  0  2  0  0  0  0  0  0  0  0  0
    6.9277   -8.6724    1.5322 C   0  0  0  0  0  0  0  0  0  0  0  0
    4.0462   -5.0421    0.8223 C   0  0  0  0  0  0  0  0  0  0  0  0
    4.9318   -4.2566    0.2166 C   0  0  0  0  0  0  0  0  0  0  0  0
    6.3876   -4.2976    0.5620 C   0  0  0  0  0  0  0  0  0  0  0  0
    8.7509   -4.9113    1.9254 H   0  0  0  0  0  0  0  0  0  0  0  0
    8.6593   -5.4918    0.2590 H   0  0  0  0  0  0  0  0  0  0  0  0
    8.7418   -6.6266    1.5535 H   0  0  0  0  0  0  0  0  0  0  0  0
    2.4391   -5.9077    2.3404 H   0  0  0  0  0  0  0  0  0  0  0  0
    2.6742   -6.6301    4.6027 H   0  0  0  0  0  0  0  0  0  0  0  0
    2.0570   -8.8892    4.6793 H   0  0  0  0  0  0  0  0  0  0  0  0
   -0.0502  -10.3543    2.9658 H   0  0  0  0  0  0  0  0  0  0  0  0
   -2.2314   -8.9096    2.1730 H   0  0  0  0  0  0  0  0  0  0  0  0
    0.4904   -6.0641    3.0681 H   0  0  0  0  0  0  0  0  0  0  0  0
    2.5527  -10.7307    3.3601 H   0  0  0  0  0  0  0  0  0  0  0  0
    3.1578  -10.5510    1.2171 H   0  0  0  0  0  0  0  0  0  0  0  0
    4.7354  -10.3605    4.2960 H   0  0  0  0  0  0  0  0  0  0  0  0
    4.6811  -11.2320    1.8408 H   0  0  0  0  0  0  0  0  0  0  0  0
    4.6358   -8.3268    2.3972 H   0  0  0  0  0  0  0  0  0  0  0  0
    5.4033   -8.7121    6.2146 H   0  0  0  0  0  0  0  0  0  0  0  0
    3.8048   -9.2926    5.8290 H   0  0  0  0  0  0  0  0  0  0  0  0
    3.9779   -7.7754    6.6278 H   0  0  0  0  0  0  0  0  0  0  0  0
    5.1687   -5.4912    4.2733 H   0  0  0  0  0  0  0  0  0  0  0  0
    5.0648   -5.9895    5.8819 H   0  0  0  0  0  0  0  0  0  0  0  0
    7.3738   -5.6213    4.8326 H   0  0  0  0  0  0  0  0  0  0  0  0
    7.1979   -6.9677    5.9047 H   0  0  0  0  0  0  0  0  0  0  0  0
    8.3396   -7.0944    3.4653 H   0  0  0  0  0  0  0  0  0  0  0  0
    7.0153   -9.1898    4.6895 H   0  0  0  0  0  0  0  0  0  0  0  0
    7.3643   -9.5719    1.9595 H   0  0  0  0  0  0  0  0  0  0  0  0
    7.6886   -8.2304    0.8988 H   0  0  0  0  0  0  0  0  0  0  0  0
    6.1343   -8.9815    0.8478 H   0  0  0  0  0  0  0  0  0  0  0  0
    3.0124   -4.9599    0.5296 H   0  0  0  0  0  0  0  0  0  0  0  0
    4.6104   -3.5483   -0.5359 H   0  0  0  0  0  0  0  0  0  0  0  0
    6.6538   -3.4022    1.1273 H   0  0  0  0  0  0  0  0  0  0  0  0
    6.9182   -4.2570   -0.3920 H   0  0  0  0  0  0  0  0  0  0  0  0
  1  2  1  0
  1 29  1  0
  1 30  1  0
  1 31  1  0
  2 28  1  0
  2  3  2  0
  3 24  1  0
  3  4  1  0
  4  5  2  0
  4 26  1  0
  5  6  1  0
  5 32  1  0
  6 18  1  0
  6  7  1  0
  6 33  1  1
  7  8  1  0
  7 13  1  0
  7 34  1  1
  8 12  2  0
  8  9  1  0
  9 10  2  0
  9 35  1  0
 10 11  1  0
 10 36  1  0
 11 12  1  0
 12 37  1  0
 13 14  1  0
 13 15  1  0
 13 38  1  1
 14 39  1  0
 15 16  1  0
 15 17  1  0
 15 40  1  1
 16 41  1  0
 17 24  1  0
 17 18  1  0
 17 42  1  6
 18 19  1  1
 18 20  1  0
 19 43  1  0
 19 44  1  0
 19 45  1  0
 20 21  1  0
 20 46  1  0
 20 47  1  0
 21 22  1  0
 21 48  1  0
 21 49  1  0
 22 23  1  0
 22 24  1  0
 22 50  1  6
 23 51  1  0
 24 25  1  6
 25 52  1  0
 25 53  1  0
 25 54  1  0
 26 27  2  0
 26 55  1  0
 27 28  1  0
 27 56  1  0
 28 57  1  0
 28 58  1  0
M  END
>  <i_m_ct_stereo_status>  (233) 
1

>  <s_m_source_file>  (233) 
/var/tmp/pbs.5076255.sched01/tmpn8rdt6mw/90ee43ygr2.sdf

>  <i_m_source_file_index>  (233) 
10

>  <i_lp_mmshare_version>  (233) 
48012

>  <i_f3d_flags>  (233) 
0

>  <s_epik_input>  (233) 
W0NIM11bQ0BdMTJbQ0BIXTNbQ0hdPUM0Qyg9QyhbQ0gzXSlbQ0gyXVtDSF09W0NIXTQpW0NAQF0oW0NIM10pKFtDQEhdKFtPSF0pW0NIMl1bQ0gyXTIpW0NIXTFbQ0BIXShbT0hdKVtDQEhdKFtPSF0pW0NAQEhdM2M1W2NIXVtjSF1vW2NIXTU=

>  <s_epik_cmdline>  (233) 
J2VwaWtfcHl0aG9uJywgJy1waHQnLCAnMi4wJywgJy1waCcsICc3LjAnLCAnLXRuJywgJzgnLCAnLW1hJywgJzIwMCcsICctaW1hZScsICc8aW5maWxlLm1hZT4nLCAnLW9tYWUnLCAnPG91dGZpbGUubWFlPic=

>  <r_lp_tautomer_probability>  (233) 
1

>  <r_epik_Ionization_Penalty>  (233) 
5.5659e-07

>  <r_epik_Ionization_Penalty_Charging>  (233) 
0

>  <r_epik_Ionization_Penalty_Neutral>  (233) 
5.5659e-07

>  <r_epik_State_Penalty>  (233) 
-0

>  <r_epik_Charging_Adjusted_Penalty>  (233) 
0

>  <i_epik_Tot_Q>  (233) 
0

>  <i_epik_Tot_abs_Q>  (233) 
0

>  <s_lp_Force_Field>  (233) 
OPLS3e

>  <r_lp_Energy>  (233) 
116.304

>  <b_lp_Chiralities_Consistent>  (233) 
1

>  <s_lp_Variant>  (233) 
60:0-2

>  <s_i_glide_gridfile>  (233) 
pfpi4k_grid

>  <i_i_glide_lignum>  (233) 
10

>  <i_i_glide_rotatable_bonds>  (233) 
4

>  <r_i_docking_score>  (233) 
-3.52424

>  <r_i_glide_ligand_efficiency>  (233) 
-0.125866

>  <r_i_glide_ligand_efficiency_sa>  (233) 
-0.382202

>  <r_i_glide_ligand_efficiency_ln>  (233) 
-0.813498

>  <r_i_glide_gscore>  (233) 
-3.52424

>  <r_i_glide_lipo>  (233) 
-0.525872

>  <r_i_glide_hbond>  (233) 
-0.116237

>  <r_i_glide_metal>  (233) 
-0

>  <r_i_glide_rewards>  (233) 
-0.801187

>  <r_i_glide_evdw>  (233) 
-27.0313

>  <r_i_glide_ecoul>  (233) 
-5.74754

>  <r_i_glide_erotb>  (233) 
0.132755

>  <r_i_glide_esite>  (233) 
0

>  <r_i_glide_emodel>  (233) 
-39.4003

>  <r_i_glide_energy>  (233) 
-32.7789

>  <r_i_glide_einternal>  (233) 
2.32362

>  <r_i_glide_intrahb_reward>  (233) 
-0

>  <i_i_glide_confnum>  (233) 
3

>  <i_i_glide_posenum>  (233) 
39

>  <r_i_glide_eff_state_penalty>  (233) 
0

>  <ligand_id>  (233) 
60

>  <original_smiles>  (233) 
CC1=C2C(=CC3C(c4ccoc4)C(O)C(O)C4C3(C)CCC(O)C24C)C=CC1

>  <smiles>  (233) 
[H]OC1([H])C([H])(O[H])C2([H])C3(C([H])([H])[H])C4=C(C([H])([H])[H])C([H])([H])C([H])=C([H])C4=C([H])C([H])(C1([H])c1c([H])oc([H])c1[H])C2(C([H])([H])[H])C([H])([H])C([H])([H])C3([H])O[H]

$$$$
60:1:1
     RDKit          3D

 58 62  0  0  1  0  0  0  0  0999 V2000
    8.2840   -5.6442    1.2624 C   0  0  0  0  0  0  0  0  0  0  0  0
    6.7608   -5.5333    1.3200 C   0  0  0  0  0  0  0  0  0  0  0  0
    5.8709   -6.3779    1.9511 C   0  0  0  0  0  0  0  0  0  0  0  0
    4.4103   -5.9718    1.8531 C   0  0  0  0  0  0  0  0  0  0  0  0
    3.3361   -6.3625    2.6106 C   0  0  0  0  0  0  0  0  0  0  0  0
    3.1778   -7.2502    3.8719 C   0  0  1  0  0  0  0  0  0  0  0  0
    2.2993   -8.5565    3.6694 C   0  0  1  0  0  0  0  0  0  0  0  0
    0.8758   -8.3071    3.1604 C   0  0  0  0  0  0  0  0  0  0  0  0
   -0.1207   -9.2881    2.8805 C   0  0  0  0  0  0  0  0  0  0  0  0
   -1.2466   -8.6222    2.4784 C   0  0  0  0  0  0  0  0  0  0  0  0
   -1.0485   -7.2837    2.5110 O   0  0  0  0  0  0  0  0  0  0  0  0
    0.2240   -7.1119    2.9517 C   0  0  0  0  0  0  0  0  0  0  0  0
    3.0364   -9.8152    3.0258 C   0  0  1  0  0  0  0  0  0  0  0  0
    2.8539   -9.7777    1.6153 O   0  0  0  0  0  0  0  0  0  0  0  0
    4.5960   -9.8972    3.3193 C   0  0  1  0  0  0  0  0  0  0  0  0
    5.2679  -10.8352    2.4846 O   0  0  0  0  0  0  0  0  0  0  0  0
    5.1476   -8.4339    3.3214 C   0  0  1  0  0  0  0  0  0  0  0  0
    4.5379   -7.6021    4.4934 C   0  0  2  0  0  0  0  0  0  0  0  0
    4.4179   -8.3754    5.8462 C   0  0  0  0  0  0  0  0  0  0  0  0
    5.3531   -6.3272    4.8929 C   0  0  0  0  0  0  0  0  0  0  0  0
    6.8714   -6.5504    4.9151 C   0  0  0  0  0  0  0  0  0  0  0  0
    7.3882   -7.4794    3.7929 C   0  0  1  0  0  0  0  0  0  0  0  0
    7.7678   -8.7062    4.3894 O   0  0  0  0  0  0  0  0  0  0  0  0
    6.3574   -7.7290    2.6365 C   0  0  2  0  0  0  0  0  0  0  0  0
    6.9277   -8.6533    1.5291 C   0  0  0  0  0  0  0  0  0  0  0  0
    4.0120   -5.0379    0.8157 C   0  0  0  0  0  0  0  0  0  0  0  0
    4.8900   -4.2482    0.2014 C   0  0  0  0  0  0  0  0  0  0  0  0
    6.3505   -4.2804    0.5399 C   0  0  0  0  0  0  0  0  0  0  0  0
    8.7211   -4.8774    1.9051 H   0  0  0  0  0  0  0  0  0  0  0  0
    8.6294   -5.4623    0.2427 H   0  0  0  0  0  0  0  0  0  0  0  0
    8.7217   -6.5918    1.5367 H   0  0  0  0  0  0  0  0  0  0  0  0
    2.3995   -5.9140    2.3382 H   0  0  0  0  0  0  0  0  0  0  0  0
    2.6559   -6.6259    4.5983 H   0  0  0  0  0  0  0  0  0  0  0  0
    2.0583   -8.8854    4.6792 H   0  0  0  0  0  0  0  0  0  0  0  0
   -0.0394  -10.3626    2.9560 H   0  0  0  0  0  0  0  0  0  0  0  0
   -2.2353   -8.9333    2.1679 H   0  0  0  0  0  0  0  0  0  0  0  0
    0.4909   -6.0699    3.0715 H   0  0  0  0  0  0  0  0  0  0  0  0
    2.5620  -10.7315    3.3878 H   0  0  0  0  0  0  0  0  0  0  0  0
    3.1841  -10.5851    1.2351 H   0  0  0  0  0  0  0  0  0  0  0  0
    4.7503  -10.3407    4.2981 H   0  0  0  0  0  0  0  0  0  0  0  0
    4.6675  -11.2324    1.8636 H   0  0  0  0  0  0  0  0  0  0  0  0
    4.6190   -8.3175    2.3898 H   0  0  0  0  0  0  0  0  0  0  0  0
    5.4016   -8.6831    6.2058 H   0  0  0  0  0  0  0  0  0  0  0  0
    3.8064   -9.2739    5.8282 H   0  0  0  0  0  0  0  0  0  0  0  0
    3.9721   -7.7534    6.6246 H   0  0  0  0  0  0  0  0  0  0  0  0
    5.1464   -5.4688    4.2558 H   0  0  0  0  0  0  0  0  0  0  0  0
    5.0422   -5.9585    5.8679 H   0  0  0  0  0  0  0  0  0  0  0  0
    7.3519   -5.5774    4.8179 H   0  0  0  0  0  0  0  0  0  0  0  0
    7.1794   -6.9202    5.8954 H   0  0  0  0  0  0  0  0  0  0  0  0
    8.3259   -7.0579    3.4521 H   0  0  0  0  0  0  0  0  0  0  0  0
    8.4848   -8.5293    4.9816 H   0  0  0  0  0  0  0  0  0  0  0  0
    7.3881   -9.5417    1.9567 H   0  0  0  0  0  0  0  0  0  0  0  0
    7.6747   -8.2000    0.8885 H   0  0  0  0  0  0  0  0  0  0  0  0
    6.1363   -8.9791    0.8514 H   0  0  0  0  0  0  0  0  0  0  0  0
    2.9750   -4.9615    0.5197 H   0  0  0  0  0  0  0  0  0  0  0  0
    4.5626   -3.5473   -0.5522 H   0  0  0  0  0  0  0  0  0  0  0  0
    6.6150   -3.3827    1.0987 H   0  0  0  0  0  0  0  0  0  0  0  0
    6.8769   -4.2547   -0.4127 H   0  0  0  0  0  0  0  0  0  0  0  0
  1  2  1  0
  1 29  1  0
  1 30  1  0
  1 31  1  0
  2 28  1  0
  2  3  2  0
  3 24  1  0
  3  4  1  0
  4  5  2  0
  4 26  1  0
  5  6  1  0
  5 32  1  0
  6 18  1  0
  6  7  1  0
  6 33  1  1
  7  8  1  0
  7 13  1  0
  7 34  1  1
  8 12  2  0
  8  9  1  0
  9 10  2  0
  9 35  1  0
 10 11  1  0
 10 36  1  0
 11 12  1  0
 12 37  1  0
 13 14  1  0
 13 15  1  0
 13 38  1  1
 14 39  1  0
 15 16  1  0
 15 17  1  0
 15 40  1  1
 16 41  1  0
 17 24  1  0
 17 18  1  0
 17 42  1  6
 18 19  1  1
 18 20  1  0
 19 43  1  0
 19 44  1  0
 19 45  1  0
 20 21  1  0
 20 46  1  0
 20 47  1  0
 21 22  1  0
 21 48  1  0
 21 49  1  0
 22 23  1  0
 22 24  1  0
 22 50  1  6
 23 51  1  0
 24 25  1  6
 25 52  1  0
 25 53  1  0
 25 54  1  0
 26 27  2  0
 26 55  1  0
 27 28  1  0
 27 56  1  0
 28 57  1  0
 28 58  1  0
M  END
>  <i_m_ct_stereo_status>  (234) 
1

>  <s_m_source_file>  (234) 
/var/tmp/pbs.5076255.sched01/tmpn8rdt6mw/90ee43ygr2.sdf

>  <i_m_source_file_index>  (234) 
10

>  <i_lp_mmshare_version>  (234) 
48012

>  <i_f3d_flags>  (234) 
0

>  <s_epik_input>  (234) 
W0NIM11bQ0BdMTJbQ0BIXTNbQ0hdPUM0Qyg9QyhbQ0gzXSlbQ0gyXVtDSF09W0NIXTQpW0NAQF0oW0NIM10pKFtDQEhdKFtPSF0pW0NIMl1bQ0gyXTIpW0NIXTFbQ0BIXShbT0hdKVtDQEhdKFtPSF0pW0NAQEhdM2M1W2NIXVtjSF1vW2NIXTU=

>  <s_epik_cmdline>  (234) 
J2VwaWtfcHl0aG9uJywgJy1waHQnLCAnMi4wJywgJy1waCcsICc3LjAnLCAnLXRuJywgJzgnLCAnLW1hJywgJzIwMCcsICctaW1hZScsICc8aW5maWxlLm1hZT4nLCAnLW9tYWUnLCAnPG91dGZpbGUubWFlPic=

>  <r_lp_tautomer_probability>  (234) 
1

>  <r_epik_Ionization_Penalty>  (234) 
5.5659e-07

>  <r_epik_Ionization_Penalty_Charging>  (234) 
0

>  <r_epik_Ionization_Penalty_Neutral>  (234) 
5.5659e-07

>  <r_epik_State_Penalty>  (234) 
-0

>  <r_epik_Charging_Adjusted_Penalty>  (234) 
0

>  <i_epik_Tot_Q>  (234) 
0

>  <i_epik_Tot_abs_Q>  (234) 
0

>  <s_lp_Force_Field>  (234) 
OPLS3e

>  <r_lp_Energy>  (234) 
116.304

>  <b_lp_Chiralities_Consistent>  (234) 
1

>  <s_lp_Variant>  (234) 
60:0-2

>  <s_i_glide_gridfile>  (234) 
pfpi4k_grid

>  <i_i_glide_lignum>  (234) 
10

>  <i_i_glide_rotatable_bonds>  (234) 
4

>  <r_i_docking_score>  (234) 
-3.50732

>  <r_i_glide_ligand_efficiency>  (234) 
-0.125262

>  <r_i_glide_ligand_efficiency_sa>  (234) 
-0.380368

>  <r_i_glide_ligand_efficiency_ln>  (234) 
-0.809593

>  <r_i_glide_gscore>  (234) 
-3.50732

>  <r_i_glide_lipo>  (234) 
-0.527308

>  <r_i_glide_hbond>  (234) 
-0.111971

>  <r_i_glide_metal>  (234) 
-0

>  <r_i_glide_rewards>  (234) 
-0.801187

>  <r_i_glide_evdw>  (234) 
-27.0662

>  <r_i_glide_ecoul>  (234) 
-5.64203

>  <r_i_glide_erotb>  (234) 
0.132755

>  <r_i_glide_esite>  (234) 
0

>  <r_i_glide_emodel>  (234) 
-39.2053

>  <r_i_glide_energy>  (234) 
-32.7082

>  <r_i_glide_einternal>  (234) 
2.63749

>  <r_i_glide_intrahb_reward>  (234) 
-0

>  <i_i_glide_confnum>  (234) 
3

>  <i_i_glide_posenum>  (234) 
1

>  <r_i_glide_eff_state_penalty>  (234) 
0

>  <ligand_id>  (234) 
60

>  <original_smiles>  (234) 
CC1=C2C(=CC3C(c4ccoc4)C(O)C(O)C4C3(C)CCC(O)C24C)C=CC1

>  <smiles>  (234) 
[H]OC1([H])C([H])(O[H])C2([H])C3(C([H])([H])[H])C4=C(C([H])([H])[H])C([H])([H])C([H])=C([H])C4=C([H])C([H])(C1([H])c1c([H])oc([H])c1[H])C2(C([H])([H])[H])C([H])([H])C([H])([H])C3([H])O[H]

$$$$
60:1:2
     RDKit          3D

 58 62  0  0  1  0  0  0  0  0999 V2000
    8.5782   -5.1138    1.3725 C   0  0  0  0  0  0  0  0  0  0  0  0
    7.0480   -5.0411    1.3543 C   0  0  0  0  0  0  0  0  0  0  0  0
    6.1479   -5.9237    1.9088 C   0  0  0  0  0  0  0  0  0  0  0  0
    4.6803   -5.5459    1.7550 C   0  0  0  0  0  0  0  0  0  0  0  0
    3.5783   -5.9848    2.4473 C   0  0  0  0  0  0  0  0  0  0  0  0
    3.3839   -6.9370    3.6531 C   0  0  1  0  0  0  0  0  0  0  0  0
    2.5630   -8.2605    3.3421 C   0  0  1  0  0  0  0  0  0  0  0  0
    1.1619   -8.0276    2.7763 C   0  0  0  0  0  0  0  0  0  0  0  0
   -0.0663   -8.5273    3.3050 C   0  0  0  0  0  0  0  0  0  0  0  0
   -1.0685   -8.0606    2.5008 C   0  0  0  0  0  0  0  0  0  0  0  0
   -0.5658   -7.2870    1.5087 O   0  0  0  0  0  0  0  0  0  0  0  0
    0.7835   -7.3110    1.6667 C   0  0  0  0  0  0  0  0  0  0  0  0
    3.3557   -9.4752    2.6935 C   0  0  1  0  0  0  0  0  0  0  0  0
    3.2197   -9.4556    1.2742 O   0  0  0  0  0  0  0  0  0  0  0  0
    4.8962   -9.5251    3.0617 C   0  0  1  0  0  0  0  0  0  0  0  0
    5.5960  -10.3724    2.1650 O   0  0  0  0  0  0  0  0  0  0  0  0
    5.4069   -8.0474    3.1597 C   0  0  1  0  0  0  0  0  0  0  0  0
    4.7195   -7.2778    4.3297 C   0  0  2  0  0  0  0  0  0  0  0  0
    4.5527   -8.1040    5.6444 C   0  0  0  0  0  0  0  0  0  0  0  0
    5.4810   -6.0005    4.8185 C   0  0  0  0  0  0  0  0  0  0  0  0
    7.0021   -6.1912    4.9182 C   0  0  0  0  0  0  0  0  0  0  0  0
    7.6020   -7.0628    3.7917 C   0  0  1  0  0  0  0  0  0  0  0  0
    7.9991   -8.3021    4.3560 O   0  0  0  0  0  0  0  0  0  0  0  0
    6.6363   -7.2868    2.5744 C   0  0  2  0  0  0  0  0  0  0  0  0
    7.2906   -8.1545    1.4754 C   0  0  0  0  0  0  0  0  0  0  0  0
    4.3135   -4.5795    0.7323 C   0  0  0  0  0  0  0  0  0  0  0  0
    5.2052   -3.7539    0.1918 C   0  0  0  0  0  0  0  0  0  0  0  0
    6.6504   -3.7680    0.5979 C   0  0  0  0  0  0  0  0  0  0  0  0
    8.9655   -4.3652    2.0653 H   0  0  0  0  0  0  0  0  0  0  0  0
    8.9768   -4.8808    0.3831 H   0  0  0  0  0  0  0  0  0  0  0  0
    9.0262   -6.0612    1.6390 H   0  0  0  0  0  0  0  0  0  0  0  0
    2.6339   -5.5355    2.1859 H   0  0  0  0  0  0  0  0  0  0  0  0
    2.7990   -6.3593    4.3709 H   0  0  0  0  0  0  0  0  0  0  0  0
    2.2943   -8.6335    4.3281 H   0  0  0  0  0  0  0  0  0  0  0  0
   -0.2155   -9.1583    4.1697 H   0  0  0  0  0  0  0  0  0  0  0  0
   -2.1418   -8.1844    2.4979 H   0  0  0  0  0  0  0  0  0  0  0  0
    1.3208   -6.7646    0.9072 H   0  0  0  0  0  0  0  0  0  0  0  0
    2.8795  -10.4051    3.0116 H   0  0  0  0  0  0  0  0  0  0  0  0
    3.4753  -10.3063    0.9295 H   0  0  0  0  0  0  0  0  0  0  0  0
    5.0155  -10.0214    4.0218 H   0  0  0  0  0  0  0  0  0  0  0  0
    5.0120  -11.0553    1.8457 H   0  0  0  0  0  0  0  0  0  0  0  0
    4.9214   -7.9056    2.2070 H   0  0  0  0  0  0  0  0  0  0  0  0
    5.5220   -8.3962    6.0477 H   0  0  0  0  0  0  0  0  0  0  0  0
    3.9675   -9.0155    5.5612 H   0  0  0  0  0  0  0  0  0  0  0  0
    4.0488   -7.5204    6.4174 H   0  0  0  0  0  0  0  0  0  0  0  0
    5.2911   -5.1229    4.2025 H   0  0  0  0  0  0  0  0  0  0  0  0
    5.1072   -5.6704    5.7872 H   0  0  0  0  0  0  0  0  0  0  0  0
    7.4640   -5.2042    4.8863 H   0  0  0  0  0  0  0  0  0  0  0  0
    7.2700   -6.5914    5.8973 H   0  0  0  0  0  0  0  0  0  0  0  0
    8.5422   -6.6032    3.5174 H   0  0  0  0  0  0  0  0  0  0  0  0
    7.2190   -8.7698    4.6220 H   0  0  0  0  0  0  0  0  0  0  0  0
    7.7506   -9.0317    1.9175 H   0  0  0  0  0  0  0  0  0  0  0  0
    8.0468   -7.6681    0.8709 H   0  0  0  0  0  0  0  0  0  0  0  0
    6.5341   -8.5034    0.7761 H   0  0  0  0  0  0  0  0  0  0  0  0
    3.2908   -4.5200    0.3816 H   0  0  0  0  0  0  0  0  0  0  0  0
    4.9058   -3.0349   -0.5555 H   0  0  0  0  0  0  0  0  0  0  0  0
    6.8672   -2.8881    1.2039 H   0  0  0  0  0  0  0  0  0  0  0  0
    7.2287   -3.6930   -0.3243 H   0  0  0  0  0  0  0  0  0  0  0  0
  1  2  1  0
  1 29  1  0
  1 30  1  0
  1 31  1  0
  2 28  1  0
  2  3  2  0
  3 24  1  0
  3  4  1  0
  4  5  2  0
  4 26  1  0
  5  6  1  0
  5 32  1  0
  6 18  1  0
  6  7  1  0
  6 33  1  1
  7  8  1  0
  7 13  1  0
  7 34  1  1
  8 12  2  0
  8  9  1  0
  9 10  2  0
  9 35  1  0
 10 11  1  0
 10 36  1  0
 11 12  1  0
 12 37  1  0
 13 14  1  0
 13 15  1  0
 13 38  1  1
 14 39  1  0
 15 16  1  0
 15 17  1  0
 15 40  1  1
 16 41  1  0
 17 24  1  0
 17 18  1  0
 17 42  1  6
 18 19  1  1
 18 20  1  0
 19 43  1  0
 19 44  1  0
 19 45  1  0
 20 21  1  0
 20 46  1  0
 20 47  1  0
 21 22  1  0
 21 48  1  0
 21 49  1  0
 22 23  1  0
 22 24  1  0
 22 50  1  6
 23 51  1  0
 24 25  1  6
 25 52  1  0
 25 53  1  0
 25 54  1  0
 26 27  2  0
 26 55  1  0
 27 28  1  0
 27 56  1  0
 28 57  1  0
 28 58  1  0
M  END
>  <i_m_ct_stereo_status>  (235) 
1

>  <s_m_source_file>  (235) 
/var/tmp/pbs.5076255.sched01/tmpn8rdt6mw/90ee43ygr2.sdf

>  <i_m_source_file_index>  (235) 
10

>  <i_lp_mmshare_version>  (235) 
48012

>  <i_f3d_flags>  (235) 
0

>  <s_epik_input>  (235) 
W0NIM11bQ0BdMTJbQ0BIXTNbQ0hdPUM0Qyg9QyhbQ0gzXSlbQ0gyXVtDSF09W0NIXTQpW0NAQF0oW0NIM10pKFtDQEhdKFtPSF0pW0NIMl1bQ0gyXTIpW0NIXTFbQ0BIXShbT0hdKVtDQEhdKFtPSF0pW0NAQEhdM2M1W2NIXVtjSF1vW2NIXTU=

>  <s_epik_cmdline>  (235) 
J2VwaWtfcHl0aG9uJywgJy1waHQnLCAnMi4wJywgJy1waCcsICc3LjAnLCAnLXRuJywgJzgnLCAnLW1hJywgJzIwMCcsICctaW1hZScsICc8aW5maWxlLm1hZT4nLCAnLW9tYWUnLCAnPG91dGZpbGUubWFlPic=

>  <r_lp_tautomer_probability>  (235) 
1

>  <r_epik_Ionization_Penalty>  (235) 
5.5659e-07

>  <r_epik_Ionization_Penalty_Charging>  (235) 
0

>  <r_epik_Ionization_Penalty_Neutral>  (235) 
5.5659e-07

>  <r_epik_State_Penalty>  (235) 
-0

>  <r_epik_Charging_Adjusted_Penalty>  (235) 
0

>  <i_epik_Tot_Q>  (235) 
0

>  <i_epik_Tot_abs_Q>  (235) 
0

>  <s_lp_Force_Field>  (235) 
OPLS3e

>  <r_lp_Energy>  (235) 
116.304

>  <b_lp_Chiralities_Consistent>  (235) 
1

>  <s_lp_Variant>  (235) 
60:0-2

>  <s_i_glide_gridfile>  (235) 
pfpi4k_grid

>  <i_i_glide_lignum>  (235) 
10

>  <i_i_glide_rotatable_bonds>  (235) 
4

>  <r_i_docking_score>  (235) 
-3.24432

>  <r_i_glide_ligand_efficiency>  (235) 
-0.115868

>  <r_i_glide_ligand_efficiency_sa>  (235) 
-0.351845

>  <r_i_glide_ligand_efficiency_ln>  (235) 
-0.748884

>  <r_i_glide_gscore>  (235) 
-3.24432

>  <r_i_glide_lipo>  (235) 
-0.493763

>  <r_i_glide_hbond>  (235) 
0

>  <r_i_glide_metal>  (235) 
-0

>  <r_i_glide_rewards>  (235) 
-0.801187

>  <r_i_glide_evdw>  (235) 
-26.7489

>  <r_i_glide_ecoul>  (235) 
-4.9645

>  <r_i_glide_erotb>  (235) 
0.132755

>  <r_i_glide_esite>  (235) 
0

>  <r_i_glide_emodel>  (235) 
-37.9289

>  <r_i_glide_energy>  (235) 
-31.7134

>  <r_i_glide_einternal>  (235) 
1.84257

>  <r_i_glide_intrahb_reward>  (235) 
-0

>  <i_i_glide_confnum>  (235) 
4

>  <i_i_glide_posenum>  (235) 
37

>  <r_i_glide_eff_state_penalty>  (235) 
0

>  <ligand_id>  (235) 
60

>  <original_smiles>  (235) 
CC1=C2C(=CC3C(c4ccoc4)C(O)C(O)C4C3(C)CCC(O)C24C)C=CC1

>  <smiles>  (235) 
[H]OC1([H])C([H])(O[H])C2([H])C3(C([H])([H])[H])C4=C(C([H])([H])[H])C([H])([H])C([H])=C([H])C4=C([H])C([H])(C1([H])c1c([H])oc([H])c1[H])C2(C([H])([H])[H])C([H])([H])C([H])([H])C3([H])O[H]

$$$$
61:0:0
     RDKit          3D

 61 64  0  0  1  0  0  0  0  0999 V2000
    3.8697   -0.9438   -2.5623 C   0  0  0  0  0  0  0  0  0  0  0  0
    4.0402   -1.9415   -1.4340 C   0  0  0  0  0  0  0  0  0  0  0  0
    4.7022   -1.6407   -0.2987 C   0  0  0  0  0  0  0  0  0  0  0  0
    4.9580   -2.5988    0.8679 C   0  0  1  0  0  0  0  0  0  0  0  0
    4.5748   -1.9910    2.2364 C   0  0  1  0  0  0  0  0  0  0  0  0
    4.7904   -0.4647    2.3392 C   0  0  0  0  0  0  0  0  0  0  0  0
    3.2013   -2.4072    2.7844 C   0  0  1  0  0  0  0  0  0  0  0  0
    2.1398   -2.2497    1.8747 O   0  0  0  0  0  0  0  0  0  0  0  0
    3.1944   -3.7360    3.5847 C   0  0  1  0  0  0  0  0  0  0  0  0
    1.9119   -3.6872    4.4783 C   0  0  0  0  0  0  0  0  0  0  0  0
    3.5268   -5.1732    2.9250 C   0  0  2  0  0  0  0  0  0  0  0  0
    2.1636   -5.8071    2.5137 C   0  0  0  0  0  0  0  0  0  0  0  0
    1.4819   -5.4598    1.5552 O   0  0  0  0  0  0  0  0  0  0  0  0
    1.7778   -6.8482    3.4550 C   0  0  0  0  0  0  0  0  0  0  0  0
    0.5750   -7.4491    3.3935 O   0  0  0  0  0  0  0  0  0  0  0  0
    2.7477   -7.0510    4.3409 C   0  0  0  0  0  0  0  0  0  0  0  0
    3.9718   -6.1819    4.1253 C   0  0  2  0  0  0  0  0  0  0  0  0
    4.3991   -5.5747    5.4990 C   0  0  0  0  0  0  0  0  0  0  0  0
    5.1333   -7.1290    3.7721 C   0  0  0  0  0  0  0  0  0  0  0  0
    6.3679   -6.3861    3.2356 C   0  0  0  0  0  0  0  0  0  0  0  0
    6.0334   -5.1809    2.3309 C   0  0  1  0  0  0  0  0  0  0  0  0
    7.0839   -5.0846    1.3820 O   0  0  0  0  0  0  0  0  0  0  0  0
    4.6013   -5.2038    1.6857 C   0  0  1  0  0  0  0  0  0  0  0  0
    4.5494   -6.5375    0.8231 C   0  0  0  0  0  0  0  0  0  0  0  0
    4.4945   -4.0611    0.5662 C   0  0  1  0  0  0  0  0  0  0  0  0
    3.2675   -4.1181   -0.3832 C   0  0  0  0  0  0  0  0  0  0  0  0
    3.4566   -3.3131   -1.6742 C   0  0  0  0  0  0  0  0  0  0  0  0
    4.2567   -1.3433   -3.5002 H   0  0  0  0  0  0  0  0  0  0  0  0
    4.3900   -0.0114   -2.3451 H   0  0  0  0  0  0  0  0  0  0  0  0
    2.8133   -0.7083   -2.6969 H   0  0  0  0  0  0  0  0  0  0  0  0
    5.1261   -0.6513   -0.2096 H   0  0  0  0  0  0  0  0  0  0  0  0
    6.0449   -2.6342    0.8870 H   0  0  0  0  0  0  0  0  0  0  0  0
    5.3083   -2.3632    2.9471 H   0  0  0  0  0  0  0  0  0  0  0  0
    4.0615    0.0944    1.7496 H   0  0  0  0  0  0  0  0  0  0  0  0
    5.7915   -0.1908    2.0045 H   0  0  0  0  0  0  0  0  0  0  0  0
    4.7008   -0.1252    3.3709 H   0  0  0  0  0  0  0  0  0  0  0  0
    2.9739   -1.6443    3.5300 H   0  0  0  0  0  0  0  0  0  0  0  0
    2.2242   -1.4191    1.4255 H   0  0  0  0  0  0  0  0  0  0  0  0
    4.0102   -3.5299    4.2709 H   0  0  0  0  0  0  0  0  0  0  0  0
    1.0026   -3.5863    3.8822 H   0  0  0  0  0  0  0  0  0  0  0  0
    1.9413   -2.8329    5.1544 H   0  0  0  0  0  0  0  0  0  0  0  0
    1.7705   -4.5604    5.1086 H   0  0  0  0  0  0  0  0  0  0  0  0
    2.6831   -7.7611    5.1524 H   0  0  0  0  0  0  0  0  0  0  0  0
    0.5501   -8.1244    4.0586 H   0  0  0  0  0  0  0  0  0  0  0  0
    5.2754   -4.9295    5.4036 H   0  0  0  0  0  0  0  0  0  0  0  0
    4.6775   -6.3555    6.2093 H   0  0  0  0  0  0  0  0  0  0  0  0
    3.6260   -5.0047    6.0088 H   0  0  0  0  0  0  0  0  0  0  0  0
    4.7872   -7.8968    3.0824 H   0  0  0  0  0  0  0  0  0  0  0  0
    5.4383   -7.7176    4.6398 H   0  0  0  0  0  0  0  0  0  0  0  0
    6.9770   -6.0330    4.0678 H   0  0  0  0  0  0  0  0  0  0  0  0
    6.9931   -7.1111    2.7116 H   0  0  0  0  0  0  0  0  0  0  0  0
    6.1071   -4.3005    2.9617 H   0  0  0  0  0  0  0  0  0  0  0  0
    7.9050   -5.0318    1.8484 H   0  0  0  0  0  0  0  0  0  0  0  0
    4.9196   -6.3969   -0.1919 H   0  0  0  0  0  0  0  0  0  0  0  0
    3.5563   -6.9600    0.6990 H   0  0  0  0  0  0  0  0  0  0  0  0
    5.1880   -7.3425    1.1645 H   0  0  0  0  0  0  0  0  0  0  0  0
    5.2742   -4.3373   -0.1418 H   0  0  0  0  0  0  0  0  0  0  0  0
    3.0440   -5.1404   -0.6799 H   0  0  0  0  0  0  0  0  0  0  0  0
    2.3633   -3.7618    0.0845 H   0  0  0  0  0  0  0  0  0  0  0  0
    2.4958   -3.2201   -2.1812 H   0  0  0  0  0  0  0  0  0  0  0  0
    4.1278   -3.8432   -2.3505 H   0  0  0  0  0  0  0  0  0  0  0  0
  1  2  1  0
  1 28  1  0
  1 29  1  0
  1 30  1  0
  2 27  1  0
  2  3  2  0
  3  4  1  0
  3 31  1  0
  4 25  1  0
  4  5  1  0
  4 32  1  1
  5  6  1  0
  5  7  1  0
  5 33  1  1
  6 34  1  0
  6 35  1  0
  6 36  1  0
  7  8  1  0
  7  9  1  0
  7 37  1  1
  8 38  1  0
  9 10  1  0
  9 39  1  1
  9 11  1  0
 10 40  1  0
 10 41  1  0
 10 42  1  0
 11 23  1  0
 11 17  1  0
 11 12  1  6
 12 14  1  0
 12 13  2  0
 14 16  2  0
 14 15  1  0
 15 44  1  0
 16 17  1  0
 16 43  1  0
 17 18  1  1
 17 19  1  0
 18 45  1  0
 18 46  1  0
 18 47  1  0
 19 20  1  0
 19 48  1  0
 19 49  1  0
 20 21  1  0
 20 50  1  0
 20 51  1  0
 21 22  1  0
 21 23  1  0
 21 52  1  1
 22 53  1  0
 23 24  1  6
 23 25  1  0
 24 54  1  0
 24 55  1  0
 24 56  1  0
 25 26  1  0
 25 57  1  6
 26 27  1  0
 26 58  1  0
 26 59  1  0
 27 60  1  0
 27 61  1  0
M  END
>  <i_m_ct_stereo_status>  (236) 
1

>  <s_m_source_file>  (236) 
/var/tmp/pbs.5076255.sched01/tmpn8rdt6mw/90ee43ygr2.sdf

>  <i_m_source_file_index>  (236) 
11

>  <i_lp_mmshare_version>  (236) 
48012

>  <i_f3d_flags>  (236) 
0

>  <s_epik_input>  (236) 
W0NIM11bQ0BASF0xW0NASF0oW09IXSlbQ0BIXShbQ0gzXSlbQ0BIXShbQ0hdPUMoW0NIM10pW0NIMl1bQ0gyXTIpW0NASF0yW0NAQF0zKFtDSDNdKVtDQEhdKFtPSF0pW0NIMl1bQ0gyXVtDQF0oW0NAQF0xMzQpKFtDSDNdKVtDSDJdQyg9TylDND1P

>  <s_epik_cmdline>  (236) 
J2VwaWtfcHl0aG9uJywgJy1waHQnLCAnMi4wJywgJy1waCcsICc3LjAnLCAnLXRuJywgJzgnLCAnLW1hJywgJzIwMCcsICctaW1hZScsICc8aW5maWxlLm1hZT4nLCAnLW9tYWUnLCAnPG91dGZpbGUubWFlPic=

>  <r_lp_tautomer_probability>  (236) 
1

>  <r_epik_Ionization_Penalty>  (236) 
2.90458e-05

>  <r_epik_Ionization_Penalty_Charging>  (236) 
0

>  <r_epik_Ionization_Penalty_Neutral>  (236) 
2.90458e-05

>  <r_epik_State_Penalty>  (236) 
-0

>  <r_epik_Charging_Adjusted_Penalty>  (236) 
0

>  <i_epik_Tot_Q>  (236) 
0

>  <i_epik_Tot_abs_Q>  (236) 
0

>  <s_lp_Force_Field>  (236) 
OPLS3e

>  <r_lp_Energy>  (236) 
81.0374

>  <b_lp_Chiralities_Consistent>  (236) 
1

>  <s_lp_Variant>  (236) 
61:0-1

>  <s_i_glide_gridfile>  (236) 
pfpi4k_grid

>  <i_i_glide_lignum>  (236) 
11

>  <i_i_glide_rotatable_bonds>  (236) 
3

>  <r_i_docking_score>  (236) 
-2.85614

>  <r_i_glide_ligand_efficiency>  (236) 
-0.105783

>  <r_i_glide_ligand_efficiency_sa>  (236) 
-0.317349

>  <r_i_glide_ligand_efficiency_ln>  (236) 
-0.664863

>  <r_i_glide_gscore>  (236) 
-2.85614

>  <r_i_glide_lipo>  (236) 
-0.428105

>  <r_i_glide_hbond>  (236) 
-0.0998958

>  <r_i_glide_metal>  (236) 
-0

>  <r_i_glide_rewards>  (236) 
-0.855589

>  <r_i_glide_evdw>  (236) 
-24.0083

>  <r_i_glide_ecoul>  (236) 
-1.73611

>  <r_i_glide_erotb>  (236) 
0

>  <r_i_glide_esite>  (236) 
-0.011723

>  <r_i_glide_emodel>  (236) 
-30.7557

>  <r_i_glide_energy>  (236) 
-25.7444

>  <r_i_glide_einternal>  (236) 
0.748402

>  <r_i_glide_intrahb_reward>  (236) 
-0

>  <i_i_glide_confnum>  (236) 
2

>  <i_i_glide_posenum>  (236) 
21

>  <r_i_glide_eff_state_penalty>  (236) 
0

>  <ligand_id>  (236) 
61

>  <original_smiles>  (236) 
CC1=CC2C(C)C(O)C(C)C34C(=O)C(=O)CC3(C)CCC(O)C4(C)C2CC1

>  <smiles>  (236) 
[H]OC1=C([H])C2(C([H])([H])[H])C([H])([H])C([H])([H])C([H])(O[H])C3(C([H])([H])[H])C4([H])C([H])([H])C([H])([H])C(C([H])([H])[H])=C([H])C4([H])C([H])(C([H])([H])[H])C([H])(O[H])C([H])(C([H])([H])[H])C23C1=O

$$$$
61:0:1
     RDKit          3D

 61 64  0  0  1  0  0  0  0  0999 V2000
    4.0710   -0.9212   -2.4695 C   0  0  0  0  0  0  0  0  0  0  0  0
    4.2039   -1.9444   -1.3584 C   0  0  0  0  0  0  0  0  0  0  0  0
    4.8600   -1.6821   -0.2109 C   0  0  0  0  0  0  0  0  0  0  0  0
    5.0798   -2.6700    0.9368 C   0  0  1  0  0  0  0  0  0  0  0  0
    4.6947   -2.0790    2.3132 C   0  0  1  0  0  0  0  0  0  0  0  0
    4.9505   -0.5609    2.4500 C   0  0  0  0  0  0  0  0  0  0  0  0
    3.3044   -2.4723    2.8376 C   0  0  1  0  0  0  0  0  0  0  0  0
    2.2486   -2.2651    1.9293 O   0  0  0  0  0  0  0  0  0  0  0  0
    3.2612   -3.8172    3.6111 C   0  0  1  0  0  0  0  0  0  0  0  0
    1.9725   -3.7534    4.4942 C   0  0  0  0  0  0  0  0  0  0  0  0
    3.5643   -5.2477    2.9241 C   0  0  2  0  0  0  0  0  0  0  0  0
    2.1924   -5.8402    2.4892 C   0  0  0  0  0  0  0  0  0  0  0  0
    1.5401   -5.4649    1.5222 O   0  0  0  0  0  0  0  0  0  0  0  0
    1.7712   -6.8874    3.4070 C   0  0  0  0  0  0  0  0  0  0  0  0
    0.5568   -7.4609    3.3242 O   0  0  0  0  0  0  0  0  0  0  0  0
    2.7281   -7.1344    4.2982 C   0  0  0  0  0  0  0  0  0  0  0  0
    3.9744   -6.2902    4.1111 C   0  0  2  0  0  0  0  0  0  0  0  0
    4.4008   -5.7222    5.5006 C   0  0  0  0  0  0  0  0  0  0  0  0
    5.1163   -7.2590    3.7480 C   0  0  0  0  0  0  0  0  0  0  0  0
    6.3753   -6.5356    3.2380 C   0  0  0  0  0  0  0  0  0  0  0  0
    6.0808   -5.3051    2.3558 C   0  0  1  0  0  0  0  0  0  0  0  0
    7.1460   -5.1983    1.4248 O   0  0  0  0  0  0  0  0  0  0  0  0
    4.6534   -5.2803    1.6970 C   0  0  1  0  0  0  0  0  0  0  0  0
    4.5775   -6.5938    0.8069 C   0  0  0  0  0  0  0  0  0  0  0  0
    4.5823   -4.1136    0.6008 C   0  0  1  0  0  0  0  0  0  0  0  0
    3.3637   -4.1202   -0.3614 C   0  0  0  0  0  0  0  0  0  0  0  0
    3.5891   -3.2954   -1.6323 C   0  0  0  0  0  0  0  0  0  0  0  0
    4.4575   -1.3104   -3.4113 H   0  0  0  0  0  0  0  0  0  0  0  0
    4.6084   -0.0037   -2.2318 H   0  0  0  0  0  0  0  0  0  0  0  0
    3.0202   -0.6652   -2.6098 H   0  0  0  0  0  0  0  0  0  0  0  0
    5.3085   -0.7060   -0.0963 H   0  0  0  0  0  0  0  0  0  0  0  0
    6.1666   -2.7318    0.9678 H   0  0  0  0  0  0  0  0  0  0  0  0
    5.4131   -2.4843    3.0214 H   0  0  0  0  0  0  0  0  0  0  0  0
    4.2411    0.0277    1.8651 H   0  0  0  0  0  0  0  0  0  0  0  0
    5.9618   -0.3015    2.1313 H   0  0  0  0  0  0  0  0  0  0  0  0
    4.8587   -0.2414    3.4885 H   0  0  0  0  0  0  0  0  0  0  0  0
    3.0944   -1.7199    3.5980 H   0  0  0  0  0  0  0  0  0  0  0  0
    2.3678   -1.4346    1.4861 H   0  0  0  0  0  0  0  0  0  0  0  0
    4.0763   -3.6429    4.3086 H   0  0  0  0  0  0  0  0  0  0  0  0
    1.0731   -3.6180    3.8902 H   0  0  0  0  0  0  0  0  0  0  0  0
    2.0174   -2.9126    5.1870 H   0  0  0  0  0  0  0  0  0  0  0  0
    1.8039   -4.6364    5.1042 H   0  0  0  0  0  0  0  0  0  0  0  0
    2.6348   -7.8599    5.0928 H   0  0  0  0  0  0  0  0  0  0  0  0
    0.5101   -8.1497    3.9747 H   0  0  0  0  0  0  0  0  0  0  0  0
    5.2940   -5.0978    5.4256 H   0  0  0  0  0  0  0  0  0  0  0  0
    4.6523   -6.5254    6.1970 H   0  0  0  0  0  0  0  0  0  0  0  0
    3.6365   -5.1427    6.0139 H   0  0  0  0  0  0  0  0  0  0  0  0
    4.7546   -8.0048    3.0412 H   0  0  0  0  0  0  0  0  0  0  0  0
    5.3946   -7.8718    4.6093 H   0  0  0  0  0  0  0  0  0  0  0  0
    6.9822   -6.2128    4.0825 H   0  0  0  0  0  0  0  0  0  0  0  0
    6.9877   -7.2676    2.7103 H   0  0  0  0  0  0  0  0  0  0  0  0
    6.1643   -4.4421    3.0070 H   0  0  0  0  0  0  0  0  0  0  0  0
    7.1882   -5.9990    0.9162 H   0  0  0  0  0  0  0  0  0  0  0  0
    4.9574   -6.4407   -0.2031 H   0  0  0  0  0  0  0  0  0  0  0  0
    3.5740   -6.9863    0.6657 H   0  0  0  0  0  0  0  0  0  0  0  0
    5.1883   -7.4247    1.1403 H   0  0  0  0  0  0  0  0  0  0  0  0
    5.3623   -4.3914   -0.1055 H   0  0  0  0  0  0  0  0  0  0  0  0
    3.1130   -5.1274   -0.6837 H   0  0  0  0  0  0  0  0  0  0  0  0
    2.4673   -3.7443    0.1075 H   0  0  0  0  0  0  0  0  0  0  0  0
    2.6350   -3.1657   -2.1428 H   0  0  0  0  0  0  0  0  0  0  0  0
    4.2512   -3.8299   -2.3154 H   0  0  0  0  0  0  0  0  0  0  0  0
  1  2  1  0
  1 28  1  0
  1 29  1  0
  1 30  1  0
  2 27  1  0
  2  3  2  0
  3  4  1  0
  3 31  1  0
  4 25  1  0
  4  5  1  0
  4 32  1  1
  5  6  1  0
  5  7  1  0
  5 33  1  1
  6 34  1  0
  6 35  1  0
  6 36  1  0
  7  8  1  0
  7  9  1  0
  7 37  1  1
  8 38  1  0
  9 10  1  0
  9 39  1  1
  9 11  1  0
 10 40  1  0
 10 41  1  0
 10 42  1  0
 11 23  1  0
 11 17  1  0
 11 12  1  6
 12 14  1  0
 12 13  2  0
 14 16  2  0
 14 15  1  0
 15 44  1  0
 16 17  1  0
 16 43  1  0
 17 18  1  1
 17 19  1  0
 18 45  1  0
 18 46  1  0
 18 47  1  0
 19 20  1  0
 19 48  1  0
 19 49  1  0
 20 21  1  0
 20 50  1  0
 20 51  1  0
 21 22  1  0
 21 23  1  0
 21 52  1  1
 22 53  1  0
 23 24  1  6
 23 25  1  0
 24 54  1  0
 24 55  1  0
 24 56  1  0
 25 26  1  0
 25 57  1  6
 26 27  1  0
 26 58  1  0
 26 59  1  0
 27 60  1  0
 27 61  1  0
M  END
>  <i_m_ct_stereo_status>  (237) 
1

>  <s_m_source_file>  (237) 
/var/tmp/pbs.5076255.sched01/tmpn8rdt6mw/90ee43ygr2.sdf

>  <i_m_source_file_index>  (237) 
11

>  <i_lp_mmshare_version>  (237) 
48012

>  <i_f3d_flags>  (237) 
0

>  <s_epik_input>  (237) 
W0NIM11bQ0BASF0xW0NASF0oW09IXSlbQ0BIXShbQ0gzXSlbQ0BIXShbQ0hdPUMoW0NIM10pW0NIMl1bQ0gyXTIpW0NASF0yW0NAQF0zKFtDSDNdKVtDQEhdKFtPSF0pW0NIMl1bQ0gyXVtDQF0oW0NAQF0xMzQpKFtDSDNdKVtDSDJdQyg9TylDND1P

>  <s_epik_cmdline>  (237) 
J2VwaWtfcHl0aG9uJywgJy1waHQnLCAnMi4wJywgJy1waCcsICc3LjAnLCAnLXRuJywgJzgnLCAnLW1hJywgJzIwMCcsICctaW1hZScsICc8aW5maWxlLm1hZT4nLCAnLW9tYWUnLCAnPG91dGZpbGUubWFlPic=

>  <r_lp_tautomer_probability>  (237) 
1

>  <r_epik_Ionization_Penalty>  (237) 
2.90458e-05

>  <r_epik_Ionization_Penalty_Charging>  (237) 
0

>  <r_epik_Ionization_Penalty_Neutral>  (237) 
2.90458e-05

>  <r_epik_State_Penalty>  (237) 
-0

>  <r_epik_Charging_Adjusted_Penalty>  (237) 
0

>  <i_epik_Tot_Q>  (237) 
0

>  <i_epik_Tot_abs_Q>  (237) 
0

>  <s_lp_Force_Field>  (237) 
OPLS3e

>  <r_lp_Energy>  (237) 
81.0374

>  <b_lp_Chiralities_Consistent>  (237) 
1

>  <s_lp_Variant>  (237) 
61:0-1

>  <s_i_glide_gridfile>  (237) 
pfpi4k_grid

>  <i_i_glide_lignum>  (237) 
11

>  <i_i_glide_rotatable_bonds>  (237) 
3

>  <r_i_docking_score>  (237) 
-2.82274

>  <r_i_glide_ligand_efficiency>  (237) 
-0.104546

>  <r_i_glide_ligand_efficiency_sa>  (237) 
-0.313638

>  <r_i_glide_ligand_efficiency_ln>  (237) 
-0.657088

>  <r_i_glide_gscore>  (237) 
-2.82274

>  <r_i_glide_lipo>  (237) 
-0.433487

>  <r_i_glide_hbond>  (237) 
-0.100114

>  <r_i_glide_metal>  (237) 
-0

>  <r_i_glide_rewards>  (237) 
-0.855589

>  <r_i_glide_evdw>  (237) 
-24.4675

>  <r_i_glide_ecoul>  (237) 
-1.32413

>  <r_i_glide_erotb>  (237) 
0

>  <r_i_glide_esite>  (237) 
-0.0115589

>  <r_i_glide_emodel>  (237) 
-30.9042

>  <r_i_glide_energy>  (237) 
-25.7916

>  <r_i_glide_einternal>  (237) 
0.452931

>  <r_i_glide_intrahb_reward>  (237) 
-0

>  <i_i_glide_confnum>  (237) 
2

>  <i_i_glide_posenum>  (237) 
4

>  <r_i_glide_eff_state_penalty>  (237) 
0

>  <ligand_id>  (237) 
61

>  <original_smiles>  (237) 
CC1=CC2C(C)C(O)C(C)C34C(=O)C(=O)CC3(C)CCC(O)C4(C)C2CC1

>  <smiles>  (237) 
[H]OC1=C([H])C2(C([H])([H])[H])C([H])([H])C([H])([H])C([H])(O[H])C3(C([H])([H])[H])C4([H])C([H])([H])C([H])([H])C(C([H])([H])[H])=C([H])C4([H])C([H])(C([H])([H])[H])C([H])(O[H])C([H])(C([H])([H])[H])C23C1=O

$$$$
61:0:2
     RDKit          3D

 61 64  0  0  1  0  0  0  0  0999 V2000
    3.9784   -2.1018   -3.9156 C   0  0  0  0  0  0  0  0  0  0  0  0
    3.9802   -2.7501   -2.5467 C   0  0  0  0  0  0  0  0  0  0  0  0
    5.1123   -3.0676   -1.8946 C   0  0  0  0  0  0  0  0  0  0  0  0
    5.1992   -3.7569   -0.5271 C   0  0  1  0  0  0  0  0  0  0  0  0
    6.1381   -3.0283    0.4623 C   0  0  1  0  0  0  0  0  0  0  0  0
    7.3443   -2.3375   -0.2054 C   0  0  0  0  0  0  0  0  0  0  0  0
    5.4390   -2.1005    1.4676 C   0  0  1  0  0  0  0  0  0  0  0  0
    4.5452   -1.1830    0.8823 O   0  0  0  0  0  0  0  0  0  0  0  0
    4.9413   -2.7986    2.7592 C   0  0  1  0  0  0  0  0  0  0  0  0
    4.7983   -1.6664    3.8300 C   0  0  0  0  0  0  0  0  0  0  0  0
    3.7877   -3.9234    2.7721 C   0  0  2  0  0  0  0  0  0  0  0  0
    2.4580   -3.1762    3.0637 C   0  0  0  0  0  0  0  0  0  0  0  0
    1.8914   -2.4372    2.2619 O   0  0  0  0  0  0  0  0  0  0  0  0
    2.0258   -3.4076    4.4357 C   0  0  0  0  0  0  0  0  0  0  0  0
    0.9696   -2.7759    4.9691 O   0  0  0  0  0  0  0  0  0  0  0  0
    2.8446   -4.2669    5.0360 C   0  0  0  0  0  0  0  0  0  0  0  0
    3.9500   -4.7948    4.1423 C   0  0  2  0  0  0  0  0  0  0  0  0
    5.2991   -4.7263    4.9221 C   0  0  0  0  0  0  0  0  0  0  0  0
    3.7013   -6.3060    3.9745 C   0  0  0  0  0  0  0  0  0  0  0  0
    4.5543   -6.9288    2.8561 C   0  0  0  0  0  0  0  0  0  0  0  0
    4.7375   -6.0185    1.6227 C   0  0  1  0  0  0  0  0  0  0  0  0
    4.8075   -6.8762    0.4983 O   0  0  0  0  0  0  0  0  0  0  0  0
    3.6614   -4.8907    1.4536 C   0  0  1  0  0  0  0  0  0  0  0  0
    2.2724   -5.6532    1.3465 C   0  0  0  0  0  0  0  0  0  0  0  0
    3.8039   -4.2155    0.0054 C   0  0  1  0  0  0  0  0  0  0  0  0
    2.6402   -3.3037   -0.4748 C   0  0  0  0  0  0  0  0  0  0  0  0
    2.6152   -3.0581   -1.9876 C   0  0  0  0  0  0  0  0  0  0  0  0
    3.4119   -2.7098   -4.6220 H   0  0  0  0  0  0  0  0  0  0  0  0
    4.9948   -1.9777   -4.2808 H   0  0  0  0  0  0  0  0  0  0  0  0
    3.5172   -1.1157   -3.8669 H   0  0  0  0  0  0  0  0  0  0  0  0
    6.0546   -2.8654   -2.3844 H   0  0  0  0  0  0  0  0  0  0  0  0
    5.7401   -4.6681   -0.7777 H   0  0  0  0  0  0  0  0  0  0  0  0
    6.6256   -3.8012    1.0497 H   0  0  0  0  0  0  0  0  0  0  0  0
    7.0176   -1.4556   -0.7547 H   0  0  0  0  0  0  0  0  0  0  0  0
    7.8680   -3.0126   -0.8874 H   0  0  0  0  0  0  0  0  0  0  0  0
    8.0756   -2.0084    0.5352 H   0  0  0  0  0  0  0  0  0  0  0  0
    6.2356   -1.4379    1.8124 H   0  0  0  0  0  0  0  0  0  0  0  0
    3.7818   -1.6530    0.5782 H   0  0  0  0  0  0  0  0  0  0  0  0
    5.8469   -3.3232    3.0363 H   0  0  0  0  0  0  0  0  0  0  0  0
    4.0972   -0.8940    3.5117 H   0  0  0  0  0  0  0  0  0  0  0  0
    5.7546   -1.1697    3.9993 H   0  0  0  0  0  0  0  0  0  0  0  0
    4.4575   -2.0108    4.8020 H   0  0  0  0  0  0  0  0  0  0  0  0
    2.7498   -4.5713    6.0696 H   0  0  0  0  0  0  0  0  0  0  0  0
    0.8977   -3.0435    5.8755 H   0  0  0  0  0  0  0  0  0  0  0  0
    6.1329   -5.0881    4.3173 H   0  0  0  0  0  0  0  0  0  0  0  0
    5.2760   -5.3582    5.8114 H   0  0  0  0  0  0  0  0  0  0  0  0
    5.5676   -3.7392    5.2902 H   0  0  0  0  0  0  0  0  0  0  0  0
    2.6379   -6.4946    3.8301 H   0  0  0  0  0  0  0  0  0  0  0  0
    3.9080   -6.8423    4.9021 H   0  0  0  0  0  0  0  0  0  0  0  0
    5.5399   -7.1885    3.2428 H   0  0  0  0  0  0  0  0  0  0  0  0
    4.1011   -7.8819    2.5782 H   0  0  0  0  0  0  0  0  0  0  0  0
    5.7144   -5.5567    1.7315 H   0  0  0  0  0  0  0  0  0  0  0  0
    4.9261   -6.3500   -0.2783 H   0  0  0  0  0  0  0  0  0  0  0  0
    2.0261   -5.9374    0.3227 H   0  0  0  0  0  0  0  0  0  0  0  0
    1.4203   -5.0839    1.7012 H   0  0  0  0  0  0  0  0  0  0  0  0
    2.2257   -6.6184    1.8404 H   0  0  0  0  0  0  0  0  0  0  0  0
    3.6390   -5.0505   -0.6760 H   0  0  0  0  0  0  0  0  0  0  0  0
    1.6853   -3.7464   -0.2294 H   0  0  0  0  0  0  0  0  0  0  0  0
    2.6401   -2.3327   -0.0004 H   0  0  0  0  0  0  0  0  0  0  0  0
    1.9346   -2.2456   -2.2316 H   0  0  0  0  0  0  0  0  0  0  0  0
    2.2239   -3.9326   -2.5018 H   0  0  0  0  0  0  0  0  0  0  0  0
  1  2  1  0
  1 28  1  0
  1 29  1  0
  1 30  1  0
  2 27  1  0
  2  3  2  0
  3  4  1  0
  3 31  1  0
  4 25  1  0
  4  5  1  0
  4 32  1  6
  5  6  1  0
  5  7  1  0
  5 33  1  1
  6 34  1  0
  6 35  1  0
  6 36  1  0
  7  8  1  0
  7  9  1  0
  7 37  1  1
  8 38  1  0
  9 10  1  0
  9 39  1  1
  9 11  1  0
 10 40  1  0
 10 41  1  0
 10 42  1  0
 11 23  1  0
 11 17  1  0
 11 12  1  1
 12 14  1  0
 12 13  2  0
 14 16  2  0
 14 15  1  0
 15 44  1  0
 16 17  1  0
 16 43  1  0
 17 18  1  1
 17 19  1  0
 18 45  1  0
 18 46  1  0
 18 47  1  0
 19 20  1  0
 19 48  1  0
 19 49  1  0
 20 21  1  0
 20 50  1  0
 20 51  1  0
 21 22  1  0
 21 23  1  0
 21 52  1  1
 22 53  1  0
 23 24  1  6
 23 25  1  0
 24 54  1  0
 24 55  1  0
 24 56  1  0
 25 26  1  0
 25 57  1  6
 26 27  1  0
 26 58  1  0
 26 59  1  0
 27 60  1  0
 27 61  1  0
M  END
>  <i_m_ct_stereo_status>  (238) 
1

>  <s_m_source_file>  (238) 
/var/tmp/pbs.5076255.sched01/tmpn8rdt6mw/90ee43ygr2.sdf

>  <i_m_source_file_index>  (238) 
11

>  <i_lp_mmshare_version>  (238) 
48012

>  <i_f3d_flags>  (238) 
0

>  <s_epik_input>  (238) 
W0NIM11bQ0BASF0xW0NASF0oW09IXSlbQ0BIXShbQ0gzXSlbQ0BIXShbQ0hdPUMoW0NIM10pW0NIMl1bQ0gyXTIpW0NASF0yW0NAQF0zKFtDSDNdKVtDQEhdKFtPSF0pW0NIMl1bQ0gyXVtDQF0oW0NAQF0xMzQpKFtDSDNdKVtDSDJdQyg9TylDND1P

>  <s_epik_cmdline>  (238) 
J2VwaWtfcHl0aG9uJywgJy1waHQnLCAnMi4wJywgJy1waCcsICc3LjAnLCAnLXRuJywgJzgnLCAnLW1hJywgJzIwMCcsICctaW1hZScsICc8aW5maWxlLm1hZT4nLCAnLW9tYWUnLCAnPG91dGZpbGUubWFlPic=

>  <r_lp_tautomer_probability>  (238) 
1

>  <r_epik_Ionization_Penalty>  (238) 
2.90458e-05

>  <r_epik_Ionization_Penalty_Charging>  (238) 
0

>  <r_epik_Ionization_Penalty_Neutral>  (238) 
2.90458e-05

>  <r_epik_State_Penalty>  (238) 
-0

>  <r_epik_Charging_Adjusted_Penalty>  (238) 
0

>  <i_epik_Tot_Q>  (238) 
0

>  <i_epik_Tot_abs_Q>  (238) 
0

>  <s_lp_Force_Field>  (238) 
OPLS3e

>  <r_lp_Energy>  (238) 
81.0374

>  <b_lp_Chiralities_Consistent>  (238) 
1

>  <s_lp_Variant>  (238) 
61:0-1

>  <s_i_glide_gridfile>  (238) 
pfpi4k_grid

>  <i_i_glide_lignum>  (238) 
11

>  <i_i_glide_rotatable_bonds>  (238) 
3

>  <r_i_docking_score>  (238) 
-2.43254

>  <r_i_glide_ligand_efficiency>  (238) 
-0.0900942

>  <r_i_glide_ligand_efficiency_sa>  (238) 
-0.270283

>  <r_i_glide_ligand_efficiency_ln>  (238) 
-0.566256

>  <r_i_glide_gscore>  (238) 
-2.43254

>  <r_i_glide_lipo>  (238) 
-0.524856

>  <r_i_glide_hbond>  (238) 
0

>  <r_i_glide_metal>  (238) 
-0

>  <r_i_glide_rewards>  (238) 
-0.855589

>  <r_i_glide_evdw>  (238) 
-27.0997

>  <r_i_glide_ecoul>  (238) 
2.02421

>  <r_i_glide_erotb>  (238) 
0

>  <r_i_glide_esite>  (238) 
-0.000743321

>  <r_i_glide_emodel>  (238) 
-29.4489

>  <r_i_glide_energy>  (238) 
-25.0755

>  <r_i_glide_einternal>  (238) 
0.398821

>  <r_i_glide_intrahb_reward>  (238) 
-0

>  <i_i_glide_confnum>  (238) 
1

>  <i_i_glide_posenum>  (238) 
32

>  <r_i_glide_eff_state_penalty>  (238) 
0

>  <ligand_id>  (238) 
61

>  <original_smiles>  (238) 
CC1=CC2C(C)C(O)C(C)C34C(=O)C(=O)CC3(C)CCC(O)C4(C)C2CC1

>  <smiles>  (238) 
[H]OC1=C([H])C2(C([H])([H])[H])C([H])([H])C([H])([H])C([H])(O[H])C3(C([H])([H])[H])C4([H])C([H])([H])C([H])([H])C(C([H])([H])[H])=C([H])C4([H])C([H])(C([H])([H])[H])C([H])(O[H])C([H])(C([H])([H])[H])C23C1=O

$$$$
62:0:0
     RDKit          3D

 51 56  0  0  1  0  0  0  0  0999 V2000
    5.5699   -1.4936    2.8797 C   0  0  0  0  0  0  0  0  0  0  0  0
    4.6770   -1.1673    1.6425 C   0  0  0  0  0  0  0  0  0  0  0  0
    4.9862   -1.9443    0.3143 C   0  0  2  0  0  0  0  0  0  0  0  0
    6.5541   -1.9187    0.0447 C   0  0  0  0  0  0  0  0  0  0  0  0
    7.1083   -3.3322    0.4713 C   0  0  0  0  0  0  0  0  0  0  0  0
    8.2873   -3.6692    0.4002 O   0  0  0  0  0  0  0  0  0  0  0  0
    5.9597   -4.2551    0.9412 C   0  0  2  0  0  0  0  0  0  0  0  0
    5.4710   -5.5206    0.2881 O   0  0  0  0  0  0  0  0  0  0  0  0
    4.0324   -5.7506    0.2374 C   0  0  0  0  0  0  0  0  0  0  0  0
    3.6871   -6.4180    1.4247 C   0  0  0  0  0  0  0  0  0  0  0  0
    3.8055   -7.7723    1.5230 O   0  0  0  0  0  0  0  0  0  0  0  0
    3.4824   -5.6281    2.5952 C   0  0  0  0  0  0  0  0  0  0  0  0
    3.5775   -4.2103    2.4992 C   0  0  0  0  0  0  0  0  0  0  0  0
    3.6337   -3.7481    1.1602 C   0  0  0  0  0  0  0  0  0  0  0  0
    3.1799   -4.5622    0.2041 C   0  0  0  0  0  0  0  0  0  0  0  0
    2.7302   -3.3495   -0.7700 C   0  0  0  0  0  0  0  0  0  0  0  0
    3.6864   -1.9461   -0.7231 C   0  0  2  0  0  0  0  0  0  0  0  0
    4.1748   -1.6380   -2.0847 N   0  0  2  0  0  0  0  0  0  0  0  0
    3.1255   -1.3061   -3.0908 C   0  0  0  0  0  0  0  0  0  0  0  0
    3.7222   -0.8076   -4.4044 C   0  0  0  0  0  0  0  0  0  0  0  0
    3.9375    0.6661   -4.6839 C   0  0  0  0  0  0  0  0  0  0  0  0
    2.8522   -0.0714   -5.4014 C   0  0  0  0  0  0  0  0  0  0  0  0
    5.1053   -2.7159   -2.4952 C   0  0  0  0  0  0  0  0  0  0  0  0
    5.2379   -3.8089   -1.4049 C   0  0  0  0  0  0  0  0  0  0  0  0
    4.9512   -3.4097    0.2958 C   0  0  1  0  0  0  0  0  0  0  0  0
    5.2572   -0.9080    3.7528 H   0  0  0  0  0  0  0  0  0  0  0  0
    6.6160   -1.2592    2.6996 H   0  0  0  0  0  0  0  0  0  0  0  0
    5.5328   -2.5439    3.1739 H   0  0  0  0  0  0  0  0  0  0  0  0
    3.6186   -1.2594    1.9010 H   0  0  0  0  0  0  0  0  0  0  0  0
    4.7908   -0.1102    1.3969 H   0  0  0  0  0  0  0  0  0  0  0  0
    6.8460   -1.6841   -0.9759 H   0  0  0  0  0  0  0  0  0  0  0  0
    7.0519   -1.1595    0.6367 H   0  0  0  0  0  0  0  0  0  0  0  0
    5.9644   -4.3124    2.0243 H   0  0  0  0  0  0  0  0  0  0  0  0
    3.7058   -8.0783    2.4074 H   0  0  0  0  0  0  0  0  0  0  0  0
    3.3957   -6.0957    3.5554 H   0  0  0  0  0  0  0  0  0  0  0  0
    3.6493   -3.5946    3.4015 H   0  0  0  0  0  0  0  0  0  0  0  0
    2.6267   -3.7506   -1.7888 H   0  0  0  0  0  0  0  0  0  0  0  0
    1.7269   -3.0590   -0.4667 H   0  0  0  0  0  0  0  0  0  0  0  0
    3.0425   -1.1027   -0.4410 H   0  0  0  0  0  0  0  0  0  0  0  0
    2.4898   -2.1579   -3.3259 H   0  0  0  0  0  0  0  0  0  0  0  0
    2.4866   -0.5209   -2.6782 H   0  0  0  0  0  0  0  0  0  0  0  0
    4.4344   -1.4914   -4.8680 H   0  0  0  0  0  0  0  0  0  0  0  0
    3.6629    1.3726   -3.9166 H   0  0  0  0  0  0  0  0  0  0  0  0
    4.7863    0.9451   -5.2942 H   0  0  0  0  0  0  0  0  0  0  0  0
    3.0376   -0.2499   -6.4587 H   0  0  0  0  0  0  0  0  0  0  0  0
    1.8150    0.1400   -5.1392 H   0  0  0  0  0  0  0  0  0  0  0  0
    4.7935   -3.1984   -3.4153 H   0  0  0  0  0  0  0  0  0  0  0  0
    6.0786   -2.2820   -2.7081 H   0  0  0  0  0  0  0  0  0  0  0  0
    4.6437   -4.6346   -1.8145 H   0  0  0  0  0  0  0  0  0  0  0  0
    6.2145   -4.2374   -1.6091 H   0  0  0  0  0  0  0  0  0  0  0  0
    4.7123   -0.7921   -1.9905 H   0  0  0  0  0  0  0  0  0  0  0  0
  1  2  1  0
  1 26  1  0
  1 27  1  0
  1 28  1  0
  3  2  1  1
  2 29  1  0
  2 30  1  0
  3 17  1  0
  3 25  1  0
  3  4  1  0
  4  5  1  0
  4 31  1  0
  4 32  1  0
  5  6  2  0
  5  7  1  0
  7 25  1  0
  7  8  1  0
  7 33  1  1
  8  9  1  0
  9 15  2  0
  9 10  1  0
 10 11  1  0
 10 12  2  0
 11 34  1  0
 12 13  1  0
 12 35  1  0
 13 14  2  0
 13 36  1  0
 14 25  1  0
 14 15  1  0
 15 16  1  0
 16 17  1  0
 16 37  1  0
 16 38  1  0
 17 18  1  0
 17 39  1  1
 18 19  1  0
 18 23  1  0
 18 51  1  1
 19 20  1  0
 19 40  1  0
 19 41  1  0
 20 22  1  0
 20 21  1  0
 20 42  1  0
 21 22  1  0
 21 43  1  0
 21 44  1  0
 22 45  1  0
 22 46  1  0
 23 24  1  0
 23 47  1  0
 23 48  1  0
 25 24  1  6
 24 49  1  0
 24 50  1  0
M  CHG  1  18   1
M  END
>  <i_m_ct_stereo_status>  (239) 
1

>  <s_m_source_file>  (239) 
/var/tmp/pbs.5076255.sched01/tmpn8rdt6mw/90ee43ygr2.sdf

>  <i_m_source_file_index>  (239) 
12

>  <i_lp_mmshare_version>  (239) 
48012

>  <i_f3d_flags>  (239) 
0

>  <s_epik_input>  (239) 
W0NIMl0xW0NIMl1bQ0hdMVtDSDJdTihbQ0gyXVtDSDJdMilbQ0BIXShbQ0BdMyhbQ0BAXTI0NSlbQ0gyXVtDSDNdKVtDSDJdYzZjKGMoW09IXSlbY0hdW2NIXWM1NilPW0NIXTRDKD1PKVtDSDJdMw==

>  <s_epik_cmdline>  (239) 
J2VwaWtfcHl0aG9uJywgJy1waHQnLCAnMi4wJywgJy1waCcsICc3LjAnLCAnLXRuJywgJzgnLCAnLW1hJywgJzIwMCcsICctaW1hZScsICc8aW5maWxlLm1hZT4nLCAnLW9tYWUnLCAnPG91dGZpbGUubWFlPic=

>  <r_lp_tautomer_probability>  (239) 
1

>  <r_epik_Ionization_Penalty>  (239) 
0.0487762

>  <r_epik_Ionization_Penalty_Charging>  (239) 
0.0453273

>  <r_epik_Ionization_Penalty_Neutral>  (239) 
0.00344891

>  <r_epik_State_Penalty>  (239) 
0.0384716

>  <r_epik_Charging_Adjusted_Penalty>  (239) 
0.0837989

>  <i_epik_Tot_Q>  (239) 
1

>  <i_epik_Tot_abs_Q>  (239) 
1

>  <s_lp_Force_Field>  (239) 
OPLS3e

>  <r_lp_Energy>  (239) 
393.736

>  <b_lp_Chiralities_Consistent>  (239) 
1

>  <s_lp_Variant>  (239) 
62:0-1

>  <s_i_glide_gridfile>  (239) 
pfpi4k_grid

>  <i_i_glide_lignum>  (239) 
12

>  <i_i_glide_rotatable_bonds>  (239) 
4

>  <r_i_docking_score>  (239) 
-3.55004

>  <r_i_glide_ligand_efficiency>  (239) 
-0.142002

>  <r_i_glide_ligand_efficiency_sa>  (239) 
-0.415215

>  <r_i_glide_ligand_efficiency_ln>  (239) 
-0.841466

>  <r_i_glide_gscore>  (239) 
-3.55004

>  <r_i_glide_lipo>  (239) 
-0.886683

>  <r_i_glide_hbond>  (239) 
0

>  <r_i_glide_metal>  (239) 
-0

>  <r_i_glide_rewards>  (239) 
-1.26038

>  <r_i_glide_evdw>  (239) 
-25.4228

>  <r_i_glide_ecoul>  (239) 
-2.84728

>  <r_i_glide_erotb>  (239) 
0.326797

>  <r_i_glide_esite>  (239) 
-0.0315362

>  <r_i_glide_emodel>  (239) 
-33.6704

>  <r_i_glide_energy>  (239) 
-28.2701

>  <r_i_glide_einternal>  (239) 
3.90063

>  <r_i_glide_intrahb_reward>  (239) 
-0

>  <i_i_glide_confnum>  (239) 
3

>  <i_i_glide_posenum>  (239) 
10

>  <r_i_glide_eff_state_penalty>  (239) 
0

>  <ligand_id>  (239) 
62

>  <original_smiles>  (239) 
CCC12CC(=O)C3Oc4c(O)ccc5c4CC1N(CC1CC1)CCC532

>  <smiles>  (239) 
[H]Oc1c([H])c([H])c2c3c1OC1([H])C(=O)C([H])([H])C4(C([H])([H])C([H])([H])[H])C21C([H])([H])C([H])([H])[N+]([H])(C([H])([H])C1([H])C([H])([H])C1([H])[H])C4([H])C3([H])[H]

$$$$
62:0:1
     RDKit          3D

 51 56  0  0  1  0  0  0  0  0999 V2000
    5.6574   -6.2503    1.4851 C   0  0  0  0  0  0  0  0  0  0  0  0
    5.4884   -5.2648    0.3176 C   0  0  0  0  0  0  0  0  0  0  0  0
    5.2973   -3.7873    0.7809 C   0  0  2  0  0  0  0  0  0  0  0  0
    6.7024   -3.2142    1.2445 C   0  0  0  0  0  0  0  0  0  0  0  0
    7.2442   -2.2870    0.0968 C   0  0  0  0  0  0  0  0  0  0  0  0
    8.2930   -1.6557    0.1358 O   0  0  0  0  0  0  0  0  0  0  0  0
    6.2568   -2.2475   -1.0713 C   0  0  2  0  0  0  0  0  0  0  0  0
    5.4847   -1.0590   -1.5873 O   0  0  0  0  0  0  0  0  0  0  0  0
    4.0976   -1.2448   -1.9729 C   0  0  0  0  0  0  0  0  0  0  0  0
    4.0874   -1.6197   -3.3385 C   0  0  0  0  0  0  0  0  0  0  0  0
    4.1099   -0.6863   -4.3314 O   0  0  0  0  0  0  0  0  0  0  0  0
    4.3935   -2.9703   -3.6456 C   0  0  0  0  0  0  0  0  0  0  0  0
    4.6443   -3.8640   -2.5734 C   0  0  0  0  0  0  0  0  0  0  0  0
    4.2172   -3.3630   -1.3195 C   0  0  0  0  0  0  0  0  0  0  0  0
    3.3826   -2.3316   -1.2984 C   0  0  0  0  0  0  0  0  0  0  0  0
    2.7316   -2.7285    0.1242 C   0  0  0  0  0  0  0  0  0  0  0  0
    3.7457   -3.4918    1.2466 C   0  0  2  0  0  0  0  0  0  0  0  0
    3.7695   -2.7187    2.5060 N   0  0  2  0  0  0  0  0  0  0  0  0
    2.4619   -2.6121    3.2136 C   0  0  0  0  0  0  0  0  0  0  0  0
    2.1716   -3.8325    4.0693 C   0  0  0  0  0  0  0  0  0  0  0  0
    1.3561   -4.9702    3.5032 C   0  0  0  0  0  0  0  0  0  0  0  0
    0.7619   -4.0873    4.5678 C   0  0  0  0  0  0  0  0  0  0  0  0
    4.4330   -1.4271    2.2460 C   0  0  0  0  0  0  0  0  0  0  0  0
    4.8380   -1.2719    0.7521 C   0  0  0  0  0  0  0  0  0  0  0  0
    5.1646   -2.7119   -0.2152 C   0  0  1  0  0  0  0  0  0  0  0  0
    5.7715   -7.2659    1.1051 H   0  0  0  0  0  0  0  0  0  0  0  0
    4.7879   -6.2476    2.1407 H   0  0  0  0  0  0  0  0  0  0  0  0
    6.5378   -6.0305    2.0876 H   0  0  0  0  0  0  0  0  0  0  0  0
    6.3668   -5.3269   -0.3236 H   0  0  0  0  0  0  0  0  0  0  0  0
    4.6486   -5.6189   -0.2815 H   0  0  0  0  0  0  0  0  0  0  0  0
    6.6545   -2.6715    2.1814 H   0  0  0  0  0  0  0  0  0  0  0  0
    7.4319   -4.0088    1.3854 H   0  0  0  0  0  0  0  0  0  0  0  0
    6.6379   -2.9127   -1.8403 H   0  0  0  0  0  0  0  0  0  0  0  0
    3.8789    0.1745   -4.0264 H   0  0  0  0  0  0  0  0  0  0  0  0
    4.5924   -3.2762   -4.6590 H   0  0  0  0  0  0  0  0  0  0  0  0
    5.1516   -4.8065   -2.7101 H   0  0  0  0  0  0  0  0  0  0  0  0
    2.2625   -1.8341    0.5350 H   0  0  0  0  0  0  0  0  0  0  0  0
    1.8987   -3.4029   -0.0808 H   0  0  0  0  0  0  0  0  0  0  0  0
    3.2997   -4.4547    1.4959 H   0  0  0  0  0  0  0  0  0  0  0  0
    2.4568   -1.7542    3.8854 H   0  0  0  0  0  0  0  0  0  0  0  0
    1.6283   -2.4576    2.5290 H   0  0  0  0  0  0  0  0  0  0  0  0
    2.9574   -4.0844    4.7830 H   0  0  0  0  0  0  0  0  0  0  0  0
    1.0033   -4.8528    2.4817 H   0  0  0  0  0  0  0  0  0  0  0  0
    1.6520   -5.9796    3.7851 H   0  0  0  0  0  0  0  0  0  0  0  0
    0.6316   -4.5373    5.5514 H   0  0  0  0  0  0  0  0  0  0  0  0
   -0.0212   -3.3913    4.2710 H   0  0  0  0  0  0  0  0  0  0  0  0
    3.8065   -0.5833    2.5329 H   0  0  0  0  0  0  0  0  0  0  0  0
    5.3046   -1.3496    2.8958 H   0  0  0  0  0  0  0  0  0  0  0  0
    4.0684   -0.6034    0.3606 H   0  0  0  0  0  0  0  0  0  0  0  0
    5.6455   -0.5394    0.7708 H   0  0  0  0  0  0  0  0  0  0  0  0
    4.3822   -3.2128    3.1398 H   0  0  0  0  0  0  0  0  0  0  0  0
  1  2  1  0
  1 26  1  0
  1 27  1  0
  1 28  1  0
  3  2  1  6
  2 29  1  0
  2 30  1  0
  3 17  1  0
  3 25  1  0
  3  4  1  0
  4  5  1  0
  4 31  1  0
  4 32  1  0
  5  6  2  0
  5  7  1  0
  7 25  1  0
  7  8  1  0
  7 33  1  6
  8  9  1  0
  9 15  2  0
  9 10  1  0
 10 11  1  0
 10 12  2  0
 11 34  1  0
 12 13  1  0
 12 35  1  0
 13 14  2  0
 13 36  1  0
 14 25  1  0
 14 15  1  0
 15 16  1  0
 16 17  1  0
 16 37  1  0
 16 38  1  0
 17 18  1  0
 17 39  1  1
 18 19  1  0
 18 23  1  0
 18 51  1  1
 19 20  1  0
 19 40  1  0
 19 41  1  0
 20 22  1  0
 20 21  1  0
 20 42  1  0
 21 22  1  0
 21 43  1  0
 21 44  1  0
 22 45  1  0
 22 46  1  0
 23 24  1  0
 23 47  1  0
 23 48  1  0
 25 24  1  1
 24 49  1  0
 24 50  1  0
M  CHG  1  18   1
M  END
>  <i_m_ct_stereo_status>  (240) 
1

>  <s_m_source_file>  (240) 
/var/tmp/pbs.5076255.sched01/tmpn8rdt6mw/90ee43ygr2.sdf

>  <i_m_source_file_index>  (240) 
12

>  <i_lp_mmshare_version>  (240) 
48012

>  <i_f3d_flags>  (240) 
0

>  <s_epik_input>  (240) 
W0NIMl0xW0NIMl1bQ0hdMVtDSDJdTihbQ0gyXVtDSDJdMilbQ0BIXShbQ0BdMyhbQ0BAXTI0NSlbQ0gyXVtDSDNdKVtDSDJdYzZjKGMoW09IXSlbY0hdW2NIXWM1NilPW0NIXTRDKD1PKVtDSDJdMw==

>  <s_epik_cmdline>  (240) 
J2VwaWtfcHl0aG9uJywgJy1waHQnLCAnMi4wJywgJy1waCcsICc3LjAnLCAnLXRuJywgJzgnLCAnLW1hJywgJzIwMCcsICctaW1hZScsICc8aW5maWxlLm1hZT4nLCAnLW9tYWUnLCAnPG91dGZpbGUubWFlPic=

>  <r_lp_tautomer_probability>  (240) 
1

>  <r_epik_Ionization_Penalty>  (240) 
0.0487762

>  <r_epik_Ionization_Penalty_Charging>  (240) 
0.0453273

>  <r_epik_Ionization_Penalty_Neutral>  (240) 
0.00344891

>  <r_epik_State_Penalty>  (240) 
0.0384716

>  <r_epik_Charging_Adjusted_Penalty>  (240) 
0.0837989

>  <i_epik_Tot_Q>  (240) 
1

>  <i_epik_Tot_abs_Q>  (240) 
1

>  <s_lp_Force_Field>  (240) 
OPLS3e

>  <r_lp_Energy>  (240) 
393.736

>  <b_lp_Chiralities_Consistent>  (240) 
1

>  <s_lp_Variant>  (240) 
62:0-1

>  <s_i_glide_gridfile>  (240) 
pfpi4k_grid

>  <i_i_glide_lignum>  (240) 
12

>  <i_i_glide_rotatable_bonds>  (240) 
4

>  <r_i_docking_score>  (240) 
-3.45925

>  <r_i_glide_ligand_efficiency>  (240) 
-0.13837

>  <r_i_glide_ligand_efficiency_sa>  (240) 
-0.404596

>  <r_i_glide_ligand_efficiency_ln>  (240) 
-0.819945

>  <r_i_glide_gscore>  (240) 
-3.45925

>  <r_i_glide_lipo>  (240) 
-0.717343

>  <r_i_glide_hbond>  (240) 
-0.0805501

>  <r_i_glide_metal>  (240) 
-0

>  <r_i_glide_rewards>  (240) 
-1.13531

>  <r_i_glide_evdw>  (240) 
-25.1372

>  <r_i_glide_ecoul>  (240) 
-3.97318

>  <r_i_glide_erotb>  (240) 
0.326797

>  <r_i_glide_esite>  (240) 
0

>  <r_i_glide_emodel>  (240) 
-35.7771

>  <r_i_glide_energy>  (240) 
-29.1104

>  <r_i_glide_einternal>  (240) 
1.6653

>  <r_i_glide_intrahb_reward>  (240) 
-0

>  <i_i_glide_confnum>  (240) 
5

>  <i_i_glide_posenum>  (240) 
20

>  <r_i_glide_eff_state_penalty>  (240) 
0

>  <ligand_id>  (240) 
62

>  <original_smiles>  (240) 
CCC12CC(=O)C3Oc4c(O)ccc5c4CC1N(CC1CC1)CCC532

>  <smiles>  (240) 
[H]Oc1c([H])c([H])c2c3c1OC1([H])C(=O)C([H])([H])C4(C([H])([H])C([H])([H])[H])C21C([H])([H])C([H])([H])[N+]([H])(C([H])([H])C1([H])C([H])([H])C1([H])[H])C4([H])C3([H])[H]

$$$$
62:0:2
     RDKit          3D

 51 56  0  0  1  0  0  0  0  0999 V2000
    4.5259    0.1336    1.6574 C   0  0  0  0  0  0  0  0  0  0  0  0
    4.4610   -1.3963    1.7197 C   0  0  0  0  0  0  0  0  0  0  0  0
    4.8646   -2.0899    0.3846 C   0  0  2  0  0  0  0  0  0  0  0  0
    6.4459   -2.0509    0.2466 C   0  0  0  0  0  0  0  0  0  0  0  0
    6.9892   -3.4836    0.5975 C   0  0  0  0  0  0  0  0  0  0  0  0
    8.1623   -3.8185    0.5402 O   0  0  0  0  0  0  0  0  0  0  0  0
    5.8244   -4.4179    0.9629 C   0  0  2  0  0  0  0  0  0  0  0  0
    5.3950   -5.6535    0.2143 O   0  0  0  0  0  0  0  0  0  0  0  0
    3.9632   -5.8897    0.0931 C   0  0  0  0  0  0  0  0  0  0  0  0
    3.5398   -6.6115    1.2151 C   0  0  0  0  0  0  0  0  0  0  0  0
    3.6736   -7.9629    1.2825 O   0  0  0  0  0  0  0  0  0  0  0  0
    3.3004   -5.8802    2.4191 C   0  0  0  0  0  0  0  0  0  0  0  0
    3.4515   -4.4627    2.4070 C   0  0  0  0  0  0  0  0  0  0  0  0
    3.5011   -3.9432    1.0835 C   0  0  0  0  0  0  0  0  0  0  0  0
    3.0900   -4.7066    0.0714 C   0  0  0  0  0  0  0  0  0  0  0  0
    2.6895   -3.4493   -0.8585 C   0  0  0  0  0  0  0  0  0  0  0  0
    3.6330   -2.0526   -0.7051 C   0  0  2  0  0  0  0  0  0  0  0  0
    4.1781   -1.6757   -2.0271 N   0  0  2  0  0  0  0  0  0  0  0  0
    3.1800   -1.2876   -3.0677 C   0  0  0  0  0  0  0  0  0  0  0  0
    3.8291   -0.8044   -4.3565 C   0  0  0  0  0  0  0  0  0  0  0  0
    4.0534    0.6617   -4.6252 C   0  0  0  0  0  0  0  0  0  0  0  0
    3.0104   -0.0754   -5.4041 C   0  0  0  0  0  0  0  0  0  0  0  0
    5.1377   -2.7151   -2.4272 C   0  0  0  0  0  0  0  0  0  0  0  0
    5.2237   -3.8527   -1.3964 C   0  0  0  0  0  0  0  0  0  0  0  0
    4.8419   -3.5474    0.3037 C   0  0  1  0  0  0  0  0  0  0  0  0
    4.2227    0.5512    2.6194 H   0  0  0  0  0  0  0  0  0  0  0  0
    3.8540    0.5364    0.9009 H   0  0  0  0  0  0  0  0  0  0  0  0
    5.5366    0.4637    1.4302 H   0  0  0  0  0  0  0  0  0  0  0  0
    5.1177   -1.7472    2.5256 H   0  0  0  0  0  0  0  0  0  0  0  0
    3.4412   -1.6486    2.0358 H   0  0  0  0  0  0  0  0  0  0  0  0
    6.8138   -1.7368   -0.7249 H   0  0  0  0  0  0  0  0  0  0  0  0
    6.8874   -1.3604    0.9682 H   0  0  0  0  0  0  0  0  0  0  0  0
    5.7857   -4.4938    2.0459 H   0  0  0  0  0  0  0  0  0  0  0  0
    4.0073   -8.3615    0.4916 H   0  0  0  0  0  0  0  0  0  0  0  0
    3.1804   -6.4265    3.3351 H   0  0  0  0  0  0  0  0  0  0  0  0
    3.6387   -3.8885    3.3157 H   0  0  0  0  0  0  0  0  0  0  0  0
    2.6327   -3.8076   -1.8825 H   0  0  0  0  0  0  0  0  0  0  0  0
    1.6689   -3.1666   -0.6294 H   0  0  0  0  0  0  0  0  0  0  0  0
    2.9983   -1.2259   -0.4205 H   0  0  0  0  0  0  0  0  0  0  0  0
    2.5187   -2.1065   -3.3216 H   0  0  0  0  0  0  0  0  0  0  0  0
    2.5598   -0.4893   -2.6808 H   0  0  0  0  0  0  0  0  0  0  0  0
    4.5672   -1.4740   -4.7892 H   0  0  0  0  0  0  0  0  0  0  0  0
    3.7585    1.3580   -3.8555 H   0  0  0  0  0  0  0  0  0  0  0  0
    4.9338    0.9431   -5.1841 H   0  0  0  0  0  0  0  0  0  0  0  0
    3.2489   -0.2440   -6.4546 H   0  0  0  0  0  0  0  0  0  0  0  0
    1.9617    0.1243   -5.1908 H   0  0  0  0  0  0  0  0  0  0  0  0
    4.8935   -3.1556   -3.3832 H   0  0  0  0  0  0  0  0  0  0  0  0
    6.1078   -2.2629   -2.5705 H   0  0  0  0  0  0  0  0  0  0  0  0
    4.6755   -4.6644   -1.8736 H   0  0  0  0  0  0  0  0  0  0  0  0
    6.2257   -4.2147   -1.5837 H   0  0  0  0  0  0  0  0  0  0  0  0
    4.7008   -0.8260   -1.8606 H   0  0  0  0  0  0  0  0  0  0  0  0
  1  2  1  0
  1 26  1  0
  1 27  1  0
  1 28  1  0
  3  2  1  1
  2 29  1  0
  2 30  1  0
  3 17  1  0
  3 25  1  0
  3  4  1  0
  4  5  1  0
  4 31  1  0
  4 32  1  0
  5  6  2  0
  5  7  1  0
  7 25  1  0
  7  8  1  0
  7 33  1  1
  8  9  1  0
  9 15  2  0
  9 10  1  0
 10 11  1  0
 10 12  2  0
 11 34  1  0
 12 13  1  0
 12 35  1  0
 13 14  2  0
 13 36  1  0
 14 25  1  0
 14 15  1  0
 15 16  1  0
 16 17  1  0
 16 37  1  0
 16 38  1  0
 17 18  1  0
 17 39  1  1
 18 19  1  0
 18 23  1  0
 18 51  1  1
 19 20  1  0
 19 40  1  0
 19 41  1  0
 20 22  1  0
 20 21  1  0
 20 42  1  0
 21 22  1  0
 21 43  1  0
 21 44  1  0
 22 45  1  0
 22 46  1  0
 23 24  1  0
 23 47  1  0
 23 48  1  0
 25 24  1  6
 24 49  1  0
 24 50  1  0
M  CHG  1  18   1
M  END
>  <i_m_ct_stereo_status>  (241) 
1

>  <s_m_source_file>  (241) 
/var/tmp/pbs.5076255.sched01/tmpn8rdt6mw/90ee43ygr2.sdf

>  <i_m_source_file_index>  (241) 
12

>  <i_lp_mmshare_version>  (241) 
48012

>  <i_f3d_flags>  (241) 
0

>  <s_epik_input>  (241) 
W0NIMl0xW0NIMl1bQ0hdMVtDSDJdTihbQ0gyXVtDSDJdMilbQ0BIXShbQ0BdMyhbQ0BAXTI0NSlbQ0gyXVtDSDNdKVtDSDJdYzZjKGMoW09IXSlbY0hdW2NIXWM1NilPW0NIXTRDKD1PKVtDSDJdMw==

>  <s_epik_cmdline>  (241) 
J2VwaWtfcHl0aG9uJywgJy1waHQnLCAnMi4wJywgJy1waCcsICc3LjAnLCAnLXRuJywgJzgnLCAnLW1hJywgJzIwMCcsICctaW1hZScsICc8aW5maWxlLm1hZT4nLCAnLW9tYWUnLCAnPG91dGZpbGUubWFlPic=

>  <r_lp_tautomer_probability>  (241) 
1

>  <r_epik_Ionization_Penalty>  (241) 
0.0487762

>  <r_epik_Ionization_Penalty_Charging>  (241) 
0.0453273

>  <r_epik_Ionization_Penalty_Neutral>  (241) 
0.00344891

>  <r_epik_State_Penalty>  (241) 
0.0384716

>  <r_epik_Charging_Adjusted_Penalty>  (241) 
0.0837989

>  <i_epik_Tot_Q>  (241) 
1

>  <i_epik_Tot_abs_Q>  (241) 
1

>  <s_lp_Force_Field>  (241) 
OPLS3e

>  <r_lp_Energy>  (241) 
393.736

>  <b_lp_Chiralities_Consistent>  (241) 
1

>  <s_lp_Variant>  (241) 
62:0-1

>  <s_i_glide_gridfile>  (241) 
pfpi4k_grid

>  <i_i_glide_lignum>  (241) 
12

>  <i_i_glide_rotatable_bonds>  (241) 
4

>  <r_i_docking_score>  (241) 
-3.34187

>  <r_i_glide_ligand_efficiency>  (241) 
-0.133675

>  <r_i_glide_ligand_efficiency_sa>  (241) 
-0.390868

>  <r_i_glide_ligand_efficiency_ln>  (241) 
-0.792124

>  <r_i_glide_gscore>  (241) 
-3.34187

>  <r_i_glide_lipo>  (241) 
-0.860414

>  <r_i_glide_hbond>  (241) 
0

>  <r_i_glide_metal>  (241) 
-0

>  <r_i_glide_rewards>  (241) 
-1.23988

>  <r_i_glide_evdw>  (241) 
-24.6019

>  <r_i_glide_ecoul>  (241) 
-2.04839

>  <r_i_glide_erotb>  (241) 
0.326797

>  <r_i_glide_esite>  (241) 
-0.0310218

>  <r_i_glide_emodel>  (241) 
-33.2099

>  <r_i_glide_energy>  (241) 
-26.6503

>  <r_i_glide_einternal>  (241) 
1.07902

>  <r_i_glide_intrahb_reward>  (241) 
-0

>  <i_i_glide_confnum>  (241) 
5

>  <i_i_glide_posenum>  (241) 
4

>  <r_i_glide_eff_state_penalty>  (241) 
0

>  <ligand_id>  (241) 
62

>  <original_smiles>  (241) 
CCC12CC(=O)C3Oc4c(O)ccc5c4CC1N(CC1CC1)CCC532

>  <smiles>  (241) 
[H]Oc1c([H])c([H])c2c3c1OC1([H])C(=O)C([H])([H])C4(C([H])([H])C([H])([H])[H])C21C([H])([H])C([H])([H])[N+]([H])(C([H])([H])C1([H])C([H])([H])C1([H])[H])C4([H])C3([H])[H]

$$$$
62:1:0
     RDKit          3D

 51 56  0  0  1  0  0  0  0  0999 V2000
    4.7668   -5.7264    2.1035 C   0  0  0  0  0  0  0  0  0  0  0  0
    4.9956   -4.8433    0.8550 C   0  0  0  0  0  0  0  0  0  0  0  0
    5.0184   -3.2295    1.0781 C   0  0  2  0  0  0  0  0  0  0  0  0
    6.4299   -3.1251    1.6822 C   0  0  0  0  0  0  0  0  0  0  0  0
    7.2146   -3.0340    0.3509 C   0  0  0  0  0  0  0  0  0  0  0  0
    8.4272   -3.2115    0.2488 O   0  0  0  0  0  0  0  0  0  0  0  0
    6.2894   -2.6682   -0.8273 C   0  0  1  0  0  0  0  0  0  0  0  0
    5.7080   -3.8347   -1.5243 O   0  0  0  0  0  0  0  0  0  0  0  0
    4.3498   -3.7882   -1.9157 C   0  0  0  0  0  0  0  0  0  0  0  0
    4.2961   -3.2247   -3.2176 C   0  0  0  0  0  0  0  0  0  0  0  0
    4.5938   -3.9990   -4.3004 O   0  0  0  0  0  0  0  0  0  0  0  0
    4.2393   -1.8102   -3.3483 C   0  0  0  0  0  0  0  0  0  0  0  0
    4.2597   -0.9953   -2.1804 C   0  0  0  0  0  0  0  0  0  0  0  0
    3.9734   -1.7339   -1.0087 C   0  0  0  0  0  0  0  0  0  0  0  0
    3.4950   -2.9986   -1.0895 C   0  0  0  0  0  0  0  0  0  0  0  0
    2.7696   -3.2217    0.2954 C   0  0  0  0  0  0  0  0  0  0  0  0
    3.6244   -2.9108    1.6020 C   0  0  2  0  0  0  0  0  0  0  0  0
    3.4858   -1.5411    2.2226 N   0  0  2  0  0  0  0  0  0  0  0  0
    2.1153   -1.2874    2.7402 C   0  0  0  0  0  0  0  0  0  0  0  0
    2.0360   -0.0587    3.6344 C   0  0  0  0  0  0  0  0  0  0  0  0
    0.6915    0.4982    4.0526 C   0  0  0  0  0  0  0  0  0  0  0  0
    1.5432    1.2571    3.0710 C   0  0  0  0  0  0  0  0  0  0  0  0
    4.0199   -0.3769    1.4506 C   0  0  0  0  0  0  0  0  0  0  0  0
    5.3328   -0.6895    0.7051 C   0  0  0  0  0  0  0  0  0  0  0  0
    5.1493   -2.0492   -0.0404 C   0  0  1  0  0  0  0  0  0  0  0  0
    5.0167   -6.7637    1.8729 H   0  0  0  0  0  0  0  0  0  0  0  0
    3.7242   -5.7322    2.4168 H   0  0  0  0  0  0  0  0  0  0  0  0
    5.3784   -5.4383    2.9567 H   0  0  0  0  0  0  0  0  0  0  0  0
    5.9270   -5.2266    0.4369 H   0  0  0  0  0  0  0  0  0  0  0  0
    4.2709   -5.2096    0.1354 H   0  0  0  0  0  0  0  0  0  0  0  0
    6.6056   -2.2739    2.3317 H   0  0  0  0  0  0  0  0  0  0  0  0
    6.7456   -4.0061    2.2346 H   0  0  0  0  0  0  0  0  0  0  0  0
    6.7581   -1.9814   -1.5299 H   0  0  0  0  0  0  0  0  0  0  0  0
    4.7171   -4.9024   -4.0396 H   0  0  0  0  0  0  0  0  0  0  0  0
    4.3743   -1.3620   -4.3233 H   0  0  0  0  0  0  0  0  0  0  0  0
    4.5681    0.0399   -2.2031 H   0  0  0  0  0  0  0  0  0  0  0  0
    1.8512   -2.6448    0.3016 H   0  0  0  0  0  0  0  0  0  0  0  0
    2.4043   -4.2471    0.3196 H   0  0  0  0  0  0  0  0  0  0  0  0
    3.3276   -3.5915    2.3984 H   0  0  0  0  0  0  0  0  0  0  0  0
    1.4086   -1.1656    1.9221 H   0  0  0  0  0  0  0  0  0  0  0  0
    1.7782   -2.1416    3.3248 H   0  0  0  0  0  0  0  0  0  0  0  0
    2.8104   -0.0052    4.3996 H   0  0  0  0  0  0  0  0  0  0  0  0
   -0.2064    0.0144    3.6716 H   0  0  0  0  0  0  0  0  0  0  0  0
    0.5994    0.9248    5.0514 H   0  0  0  0  0  0  0  0  0  0  0  0
    2.0311    2.1669    3.4193 H   0  0  0  0  0  0  0  0  0  0  0  0
    1.2298    1.2708    2.0278 H   0  0  0  0  0  0  0  0  0  0  0  0
    3.2647   -0.0238    0.7485 H   0  0  0  0  0  0  0  0  0  0  0  0
    4.1888    0.4611    2.1292 H   0  0  0  0  0  0  0  0  0  0  0  0
    5.5509    0.1251    0.0181 H   0  0  0  0  0  0  0  0  0  0  0  0
    6.1631   -0.6302    1.4025 H   0  0  0  0  0  0  0  0  0  0  0  0
    4.0713   -1.5873    3.0407 H   0  0  0  0  0  0  0  0  0  0  0  0
  1  2  1  0
  1 26  1  0
  1 27  1  0
  1 28  1  0
  3  2  1  6
  2 29  1  0
  2 30  1  0
  3 17  1  0
  3 25  1  0
  3  4  1  0
  4  5  1  0
  4 31  1  0
  4 32  1  0
  5  6  2  0
  5  7  1  0
  7 25  1  0
  7  8  1  0
  7 33  1  6
  8  9  1  0
  9 15  2  0
  9 10  1  0
 10 11  1  0
 10 12  2  0
 11 34  1  0
 12 13  1  0
 12 35  1  0
 13 14  2  0
 13 36  1  0
 14 25  1  0
 14 15  1  0
 15 16  1  0
 16 17  1  0
 16 37  1  0
 16 38  1  0
 17 18  1  0
 17 39  1  1
 18 19  1  0
 18 23  1  0
 18 51  1  1
 19 20  1  0
 19 40  1  0
 19 41  1  0
 20 22  1  0
 20 21  1  0
 20 42  1  0
 21 22  1  0
 21 43  1  0
 21 44  1  0
 22 45  1  0
 22 46  1  0
 23 24  1  0
 23 47  1  0
 23 48  1  0
 25 24  1  1
 24 49  1  0
 24 50  1  0
M  CHG  1  18   1
M  END
>  <i_m_ct_stereo_status>  (242) 
1

>  <s_m_source_file>  (242) 
/var/tmp/pbs.5076255.sched01/tmpn8rdt6mw/90ee43ygr2.sdf

>  <i_m_source_file_index>  (242) 
13

>  <i_lp_mmshare_version>  (242) 
48012

>  <i_f3d_flags>  (242) 
0

>  <s_epik_input>  (242) 
W0NIMl0xW0NIMl1bQ0hdMVtDSDJdTihbQ0gyXVtDSDJdMilbQ0BIXShbQ0BdMyhbQ0BAXTI0NSlbQ0gyXVtDSDNdKVtDSDJdYzZjKGMoW09IXSlbY0hdW2NIXWM1NilPW0NIXTRDKD1PKVtDSDJdMw==

>  <s_epik_cmdline>  (242) 
J2VwaWtfcHl0aG9uJywgJy1waHQnLCAnMi4wJywgJy1waCcsICc3LjAnLCAnLXRuJywgJzgnLCAnLW1hJywgJzIwMCcsICctaW1hZScsICc8aW5maWxlLm1hZT4nLCAnLW9tYWUnLCAnPG91dGZpbGUubWFlPic=

>  <r_lp_tautomer_probability>  (242) 
1

>  <r_epik_Ionization_Penalty>  (242) 
0.0487762

>  <r_epik_Ionization_Penalty_Charging>  (242) 
0.0453273

>  <r_epik_Ionization_Penalty_Neutral>  (242) 
0.00344891

>  <r_epik_State_Penalty>  (242) 
0.0384716

>  <r_epik_Charging_Adjusted_Penalty>  (242) 
0.0837989

>  <i_epik_Tot_Q>  (242) 
1

>  <i_epik_Tot_abs_Q>  (242) 
1

>  <s_lp_Force_Field>  (242) 
OPLS3e

>  <r_lp_Energy>  (242) 
262.7

>  <b_lp_Chiralities_Consistent>  (242) 
1

>  <s_lp_Variant>  (242) 
62:0-2

>  <s_i_glide_gridfile>  (242) 
pfpi4k_grid

>  <i_i_glide_lignum>  (242) 
13

>  <i_i_glide_rotatable_bonds>  (242) 
4

>  <r_i_docking_score>  (242) 
-3.59018

>  <r_i_glide_ligand_efficiency>  (242) 
-0.143607

>  <r_i_glide_ligand_efficiency_sa>  (242) 
-0.41991

>  <r_i_glide_ligand_efficiency_ln>  (242) 
-0.850979

>  <r_i_glide_gscore>  (242) 
-3.59018

>  <r_i_glide_lipo>  (242) 
-0.625284

>  <r_i_glide_hbond>  (242) 
0

>  <r_i_glide_metal>  (242) 
-0

>  <r_i_glide_rewards>  (242) 
-1.28459

>  <r_i_glide_evdw>  (242) 
-25.4274

>  <r_i_glide_ecoul>  (242) 
-4.87174

>  <r_i_glide_erotb>  (242) 
0.326797

>  <r_i_glide_esite>  (242) 
-0.00497167

>  <r_i_glide_emodel>  (242) 
-38.8171

>  <r_i_glide_energy>  (242) 
-30.2992

>  <r_i_glide_einternal>  (242) 
0.145481

>  <r_i_glide_intrahb_reward>  (242) 
-0

>  <i_i_glide_confnum>  (242) 
1

>  <i_i_glide_posenum>  (242) 
2

>  <r_i_glide_eff_state_penalty>  (242) 
0

>  <ligand_id>  (242) 
62

>  <original_smiles>  (242) 
CCC12CC(=O)C3Oc4c(O)ccc5c4CC1N(CC1CC1)CCC532

>  <smiles>  (242) 
[H]Oc1c([H])c([H])c2c3c1OC1([H])C(=O)C([H])([H])C4(C([H])([H])C([H])([H])[H])C21C([H])([H])C([H])([H])[N+]([H])(C([H])([H])C1([H])C([H])([H])C1([H])[H])C4([H])C3([H])[H]

$$$$
62:1:1
     RDKit          3D

 51 56  0  0  1  0  0  0  0  0999 V2000
    5.5613   -5.4516    2.0524 C   0  0  0  0  0  0  0  0  0  0  0  0
    5.5127   -4.5986    0.7641 C   0  0  0  0  0  0  0  0  0  0  0  0
    5.0853   -3.0363    0.9290 C   0  0  2  0  0  0  0  0  0  0  0  0
    6.4219   -2.5052    1.4815 C   0  0  0  0  0  0  0  0  0  0  0  0
    7.1093   -2.2570    0.1170 C   0  0  0  0  0  0  0  0  0  0  0  0
    8.3165   -2.0843   -0.0279 O   0  0  0  0  0  0  0  0  0  0  0  0
    6.0974   -2.2186   -1.0414 C   0  0  1  0  0  0  0  0  0  0  0  0
    5.8644   -3.5232   -1.6742 O   0  0  0  0  0  0  0  0  0  0  0  0
    4.5416   -3.8763   -2.0113 C   0  0  0  0  0  0  0  0  0  0  0  0
    4.2871   -3.4324   -3.3285 C   0  0  0  0  0  0  0  0  0  0  0  0
    4.7087   -4.1919   -4.3733 O   0  0  0  0  0  0  0  0  0  0  0  0
    3.8374   -2.1000   -3.5242 C   0  0  0  0  0  0  0  0  0  0  0  0
    3.6523   -1.2551   -2.3921 C   0  0  0  0  0  0  0  0  0  0  0  0
    3.6131   -1.9876   -1.1799 C   0  0  0  0  0  0  0  0  0  0  0  0
    3.5084   -3.3344   -1.1920 C   0  0  0  0  0  0  0  0  0  0  0  0
    2.9038   -3.6880    0.2252 C   0  0  0  0  0  0  0  0  0  0  0  0
    3.6698   -3.0929    1.4873 C   0  0  2  0  0  0  0  0  0  0  0  0
    3.1667   -1.7893    2.0592 N   0  0  2  0  0  0  0  0  0  0  0  0
    1.7952   -1.9030    2.6149 C   0  0  0  0  0  0  0  0  0  0  0  0
    1.4884   -0.8403    3.6629 C   0  0  0  0  0  0  0  0  0  0  0  0
    1.5862   -1.1684    5.1341 C   0  0  0  0  0  0  0  0  0  0  0  0
    0.2365   -0.9432    4.5060 C   0  0  0  0  0  0  0  0  0  0  0  0
    3.3346   -0.5636    1.2199 C   0  0  0  0  0  0  0  0  0  0  0  0
    4.6584   -0.5431    0.4388 C   0  0  0  0  0  0  0  0  0  0  0  0
    4.8508   -1.9233   -0.2387 C   0  0  1  0  0  0  0  0  0  0  0  0
    6.0897   -6.3863    1.8564 H   0  0  0  0  0  0  0  0  0  0  0  0
    4.5668   -5.7358    2.3926 H   0  0  0  0  0  0  0  0  0  0  0  0
    6.0790   -4.9618    2.8751 H   0  0  0  0  0  0  0  0  0  0  0  0
    6.5081   -4.7226    0.3355 H   0  0  0  0  0  0  0  0  0  0  0  0
    4.9084   -5.1853    0.0789 H   0  0  0  0  0  0  0  0  0  0  0  0
    6.3724   -1.6042    2.0849 H   0  0  0  0  0  0  0  0  0  0  0  0
    6.9957   -3.2295    2.0535 H   0  0  0  0  0  0  0  0  0  0  0  0
    6.3265   -1.4637   -1.7911 H   0  0  0  0  0  0  0  0  0  0  0  0
    5.1153   -4.9992   -4.0874 H   0  0  0  0  0  0  0  0  0  0  0  0
    3.7934   -1.6890   -4.5218 H   0  0  0  0  0  0  0  0  0  0  0  0
    3.6457   -0.1811   -2.4723 H   0  0  0  0  0  0  0  0  0  0  0  0
    1.8620   -3.3749    0.2393 H   0  0  0  0  0  0  0  0  0  0  0  0
    2.8494   -4.7758    0.3029 H   0  0  0  0  0  0  0  0  0  0  0  0
    3.6000   -3.7923    2.3197 H   0  0  0  0  0  0  0  0  0  0  0  0
    1.0517   -1.8347    1.8238 H   0  0  0  0  0  0  0  0  0  0  0  0
    1.6634   -2.8784    3.0837 H   0  0  0  0  0  0  0  0  0  0  0  0
    1.7254    0.1827    3.3718 H   0  0  0  0  0  0  0  0  0  0  0  0
    1.8591   -2.1873    5.4043 H   0  0  0  0  0  0  0  0  0  0  0  0
    1.9763   -0.3899    5.7885 H   0  0  0  0  0  0  0  0  0  0  0  0
   -0.2759   -0.0161    4.7620 H   0  0  0  0  0  0  0  0  0  0  0  0
   -0.4108   -1.8064    4.3600 H   0  0  0  0  0  0  0  0  0  0  0  0
    2.5010   -0.4632    0.5266 H   0  0  0  0  0  0  0  0  0  0  0  0
    3.2945    0.3297    1.8438 H   0  0  0  0  0  0  0  0  0  0  0  0
    4.6016    0.2244   -0.3206 H   0  0  0  0  0  0  0  0  0  0  0  0
    5.4619   -0.2054    1.0859 H   0  0  0  0  0  0  0  0  0  0  0  0
    3.7637   -1.6347    2.8550 H   0  0  0  0  0  0  0  0  0  0  0  0
  1  2  1  0
  1 26  1  0
  1 27  1  0
  1 28  1  0
  3  2  1  6
  2 29  1  0
  2 30  1  0
  3 17  1  0
  3 25  1  0
  3  4  1  0
  4  5  1  0
  4 31  1  0
  4 32  1  0
  5  6  2  0
  5  7  1  0
  7 25  1  0
  7  8  1  0
  7 33  1  6
  8  9  1  0
  9 15  2  0
  9 10  1  0
 10 11  1  0
 10 12  2  0
 11 34  1  0
 12 13  1  0
 12 35  1  0
 13 14  2  0
 13 36  1  0
 14 25  1  0
 14 15  1  0
 15 16  1  0
 16 17  1  0
 16 37  1  0
 16 38  1  0
 17 18  1  0
 17 39  1  1
 18 19  1  0
 18 23  1  0
 18 51  1  1
 19 20  1  0
 19 40  1  0
 19 41  1  0
 20 22  1  0
 20 21  1  0
 20 42  1  0
 21 22  1  0
 21 43  1  0
 21 44  1  0
 22 45  1  0
 22 46  1  0
 23 24  1  0
 23 47  1  0
 23 48  1  0
 25 24  1  1
 24 49  1  0
 24 50  1  0
M  CHG  1  18   1
M  END
>  <i_m_ct_stereo_status>  (243) 
1

>  <s_m_source_file>  (243) 
/var/tmp/pbs.5076255.sched01/tmpn8rdt6mw/90ee43ygr2.sdf

>  <i_m_source_file_index>  (243) 
13

>  <i_lp_mmshare_version>  (243) 
48012

>  <i_f3d_flags>  (243) 
0

>  <s_epik_input>  (243) 
W0NIMl0xW0NIMl1bQ0hdMVtDSDJdTihbQ0gyXVtDSDJdMilbQ0BIXShbQ0BdMyhbQ0BAXTI0NSlbQ0gyXVtDSDNdKVtDSDJdYzZjKGMoW09IXSlbY0hdW2NIXWM1NilPW0NIXTRDKD1PKVtDSDJdMw==

>  <s_epik_cmdline>  (243) 
J2VwaWtfcHl0aG9uJywgJy1waHQnLCAnMi4wJywgJy1waCcsICc3LjAnLCAnLXRuJywgJzgnLCAnLW1hJywgJzIwMCcsICctaW1hZScsICc8aW5maWxlLm1hZT4nLCAnLW9tYWUnLCAnPG91dGZpbGUubWFlPic=

>  <r_lp_tautomer_probability>  (243) 
1

>  <r_epik_Ionization_Penalty>  (243) 
0.0487762

>  <r_epik_Ionization_Penalty_Charging>  (243) 
0.0453273

>  <r_epik_Ionization_Penalty_Neutral>  (243) 
0.00344891

>  <r_epik_State_Penalty>  (243) 
0.0384716

>  <r_epik_Charging_Adjusted_Penalty>  (243) 
0.0837989

>  <i_epik_Tot_Q>  (243) 
1

>  <i_epik_Tot_abs_Q>  (243) 
1

>  <s_lp_Force_Field>  (243) 
OPLS3e

>  <r_lp_Energy>  (243) 
262.7

>  <b_lp_Chiralities_Consistent>  (243) 
1

>  <s_lp_Variant>  (243) 
62:0-2

>  <s_i_glide_gridfile>  (243) 
pfpi4k_grid

>  <i_i_glide_lignum>  (243) 
13

>  <i_i_glide_rotatable_bonds>  (243) 
4

>  <r_i_docking_score>  (243) 
-3.49341

>  <r_i_glide_ligand_efficiency>  (243) 
-0.139736

>  <r_i_glide_ligand_efficiency_sa>  (243) 
-0.408592

>  <r_i_glide_ligand_efficiency_ln>  (243) 
-0.828043

>  <r_i_glide_gscore>  (243) 
-3.49341

>  <r_i_glide_lipo>  (243) 
-0.719206

>  <r_i_glide_hbond>  (243) 
-0.0481246

>  <r_i_glide_metal>  (243) 
-0

>  <r_i_glide_rewards>  (243) 
-1.11921

>  <r_i_glide_evdw>  (243) 
-24.4113

>  <r_i_glide_ecoul>  (243) 
-4.68981

>  <r_i_glide_erotb>  (243) 
0.326797

>  <r_i_glide_esite>  (243) 
-0.00962348

>  <r_i_glide_emodel>  (243) 
-37.3348

>  <r_i_glide_energy>  (243) 
-29.1011

>  <r_i_glide_einternal>  (243) 
0.18679

>  <r_i_glide_intrahb_reward>  (243) 
-0

>  <i_i_glide_confnum>  (243) 
3

>  <i_i_glide_posenum>  (243) 
17

>  <r_i_glide_eff_state_penalty>  (243) 
0

>  <ligand_id>  (243) 
62

>  <original_smiles>  (243) 
CCC12CC(=O)C3Oc4c(O)ccc5c4CC1N(CC1CC1)CCC532

>  <smiles>  (243) 
[H]Oc1c([H])c([H])c2c3c1OC1([H])C(=O)C([H])([H])C4(C([H])([H])C([H])([H])[H])C21C([H])([H])C([H])([H])[N+]([H])(C([H])([H])C1([H])C([H])([H])C1([H])[H])C4([H])C3([H])[H]

$$$$
62:1:2
     RDKit          3D

 51 56  0  0  1  0  0  0  0  0999 V2000
    4.5407   -6.7978    1.0576 C   0  0  0  0  0  0  0  0  0  0  0  0
    4.8030   -5.5503    0.1853 C   0  0  0  0  0  0  0  0  0  0  0  0
    5.0001   -4.1308    0.9525 C   0  0  2  0  0  0  0  0  0  0  0  0
    6.4460   -4.3553    1.4316 C   0  0  0  0  0  0  0  0  0  0  0  0
    7.1581   -3.8460    0.1547 C   0  0  0  0  0  0  0  0  0  0  0  0
    8.3474   -4.0493   -0.0995 O   0  0  0  0  0  0  0  0  0  0  0  0
    6.2116   -3.0229   -0.7453 C   0  0  1  0  0  0  0  0  0  0  0  0
    5.4738   -3.8175   -1.7510 O   0  0  0  0  0  0  0  0  0  0  0  0
    4.1060   -3.5340   -1.9806 C   0  0  0  0  0  0  0  0  0  0  0  0
    4.0355   -2.5419   -2.9911 C   0  0  0  0  0  0  0  0  0  0  0  0
    4.1664   -2.9084   -4.2966 O   0  0  0  0  0  0  0  0  0  0  0  0
    4.1334   -1.1796   -2.6154 C   0  0  0  0  0  0  0  0  0  0  0  0
    4.3005   -0.8432   -1.2404 C   0  0  0  0  0  0  0  0  0  0  0  0
    3.9874   -1.9182   -0.3793 C   0  0  0  0  0  0  0  0  0  0  0  0
    3.3871   -3.0321   -0.8570 C   0  0  0  0  0  0  0  0  0  0  0  0
    2.7236   -3.6716    0.4258 C   0  0  0  0  0  0  0  0  0  0  0  0
    3.6808   -3.9132    1.6743 C   0  0  2  0  0  0  0  0  0  0  0  0
    3.7170   -2.8482    2.7434 N   0  0  2  0  0  0  0  0  0  0  0  0
    2.4126   -2.6968    3.4375 C   0  0  0  0  0  0  0  0  0  0  0  0
    2.5409   -2.0519    4.8120 C   0  0  0  0  0  0  0  0  0  0  0  0
    2.6366   -2.9084    6.0517 C   0  0  0  0  0  0  0  0  0  0  0  0
    1.3903   -2.1051    5.7936 C   0  0  0  0  0  0  0  0  0  0  0  0
    4.3210   -1.5295    2.3754 C   0  0  0  0  0  0  0  0  0  0  0  0
    5.5436   -1.6512    1.4448 C   0  0  0  0  0  0  0  0  0  0  0  0
    5.1824   -2.6450    0.3013 C   0  0  1  0  0  0  0  0  0  0  0  0
    4.6725   -7.7012    0.4592 H   0  0  0  0  0  0  0  0  0  0  0  0
    3.5170   -6.8320    1.4266 H   0  0  0  0  0  0  0  0  0  0  0  0
    5.2165   -6.8788    1.9073 H   0  0  0  0  0  0  0  0  0  0  0  0
    5.6730   -5.8311   -0.4057 H   0  0  0  0  0  0  0  0  0  0  0  0
    4.0157   -5.5759   -0.5588 H   0  0  0  0  0  0  0  0  0  0  0  0
    6.7172   -3.8010    2.3181 H   0  0  0  0  0  0  0  0  0  0  0  0
    6.7214   -5.3915    1.6224 H   0  0  0  0  0  0  0  0  0  0  0  0
    6.7050   -2.1640   -1.1982 H   0  0  0  0  0  0  0  0  0  0  0  0
    4.1727   -3.8523   -4.3774 H   0  0  0  0  0  0  0  0  0  0  0  0
    4.2377   -0.4212   -3.3801 H   0  0  0  0  0  0  0  0  0  0  0  0
    4.6640    0.1163   -0.9074 H   0  0  0  0  0  0  0  0  0  0  0  0
    1.8782   -3.0504    0.7190 H   0  0  0  0  0  0  0  0  0  0  0  0
    2.2652   -4.6115    0.1249 H   0  0  0  0  0  0  0  0  0  0  0  0
    3.3631   -4.8073    2.2060 H   0  0  0  0  0  0  0  0  0  0  0  0
    1.7183   -2.1099    2.8426 H   0  0  0  0  0  0  0  0  0  0  0  0
    1.9476   -3.6708    3.5757 H   0  0  0  0  0  0  0  0  0  0  0  0
    3.0694   -1.1007    4.8338 H   0  0  0  0  0  0  0  0  0  0  0  0
    2.5847   -3.9875    5.9196 H   0  0  0  0  0  0  0  0  0  0  0  0
    3.3052   -2.5656    6.8414 H   0  0  0  0  0  0  0  0  0  0  0  0
    1.2270   -1.2360    6.4320 H   0  0  0  0  0  0  0  0  0  0  0  0
    0.4887   -2.6395    5.4999 H   0  0  0  0  0  0  0  0  0  0  0  0
    3.5667   -0.8923    1.9166 H   0  0  0  0  0  0  0  0  0  0  0  0
    4.6313   -1.0013    3.2750 H   0  0  0  0  0  0  0  0  0  0  0  0
    5.8013   -0.6618    1.0581 H   0  0  0  0  0  0  0  0  0  0  0  0
    6.4157   -1.9024    2.0392 H   0  0  0  0  0  0  0  0  0  0  0  0
    4.3361   -3.2298    3.4369 H   0  0  0  0  0  0  0  0  0  0  0  0
  1  2  1  0
  1 26  1  0
  1 27  1  0
  1 28  1  0
  3  2  1  6
  2 29  1  0
  2 30  1  0
  3 17  1  0
  3 25  1  0
  3  4  1  0
  4  5  1  0
  4 31  1  0
  4 32  1  0
  5  6  2  0
  5  7  1  0
  7 25  1  0
  7  8  1  0
  7 33  1  6
  8  9  1  0
  9 15  2  0
  9 10  1  0
 10 11  1  0
 10 12  2  0
 11 34  1  0
 12 13  1  0
 12 35  1  0
 13 14  2  0
 13 36  1  0
 14 25  1  0
 14 15  1  0
 15 16  1  0
 16 17  1  0
 16 37  1  0
 16 38  1  0
 17 18  1  0
 17 39  1  1
 18 19  1  0
 18 23  1  0
 18 51  1  1
 19 20  1  0
 19 40  1  0
 19 41  1  0
 20 22  1  0
 20 21  1  0
 20 42  1  0
 21 22  1  0
 21 43  1  0
 21 44  1  0
 22 45  1  0
 22 46  1  0
 23 24  1  0
 23 47  1  0
 23 48  1  0
 25 24  1  1
 24 49  1  0
 24 50  1  0
M  CHG  1  18   1
M  END
>  <i_m_ct_stereo_status>  (244) 
1

>  <s_m_source_file>  (244) 
/var/tmp/pbs.5076255.sched01/tmpn8rdt6mw/90ee43ygr2.sdf

>  <i_m_source_file_index>  (244) 
13

>  <i_lp_mmshare_version>  (244) 
48012

>  <i_f3d_flags>  (244) 
0

>  <s_epik_input>  (244) 
W0NIMl0xW0NIMl1bQ0hdMVtDSDJdTihbQ0gyXVtDSDJdMilbQ0BIXShbQ0BdMyhbQ0BAXTI0NSlbQ0gyXVtDSDNdKVtDSDJdYzZjKGMoW09IXSlbY0hdW2NIXWM1NilPW0NIXTRDKD1PKVtDSDJdMw==

>  <s_epik_cmdline>  (244) 
J2VwaWtfcHl0aG9uJywgJy1waHQnLCAnMi4wJywgJy1waCcsICc3LjAnLCAnLXRuJywgJzgnLCAnLW1hJywgJzIwMCcsICctaW1hZScsICc8aW5maWxlLm1hZT4nLCAnLW9tYWUnLCAnPG91dGZpbGUubWFlPic=

>  <r_lp_tautomer_probability>  (244) 
1

>  <r_epik_Ionization_Penalty>  (244) 
0.0487762

>  <r_epik_Ionization_Penalty_Charging>  (244) 
0.0453273

>  <r_epik_Ionization_Penalty_Neutral>  (244) 
0.00344891

>  <r_epik_State_Penalty>  (244) 
0.0384716

>  <r_epik_Charging_Adjusted_Penalty>  (244) 
0.0837989

>  <i_epik_Tot_Q>  (244) 
1

>  <i_epik_Tot_abs_Q>  (244) 
1

>  <s_lp_Force_Field>  (244) 
OPLS3e

>  <r_lp_Energy>  (244) 
262.7

>  <b_lp_Chiralities_Consistent>  (244) 
1

>  <s_lp_Variant>  (244) 
62:0-2

>  <s_i_glide_gridfile>  (244) 
pfpi4k_grid

>  <i_i_glide_lignum>  (244) 
13

>  <i_i_glide_rotatable_bonds>  (244) 
4

>  <r_i_docking_score>  (244) 
-3.30564

>  <r_i_glide_ligand_efficiency>  (244) 
-0.132226

>  <r_i_glide_ligand_efficiency_sa>  (244) 
-0.386631

>  <r_i_glide_ligand_efficiency_ln>  (244) 
-0.783537

>  <r_i_glide_gscore>  (244) 
-3.30564

>  <r_i_glide_lipo>  (244) 
-0.610229

>  <r_i_glide_hbond>  (244) 
0

>  <r_i_glide_metal>  (244) 
-0

>  <r_i_glide_rewards>  (244) 
-1.26813

>  <r_i_glide_evdw>  (244) 
-20.6216

>  <r_i_glide_ecoul>  (244) 
-4.82004

>  <r_i_glide_erotb>  (244) 
0.326797

>  <r_i_glide_esite>  (244) 
0

>  <r_i_glide_emodel>  (244) 
-33.2709

>  <r_i_glide_energy>  (244) 
-25.4417

>  <r_i_glide_einternal>  (244) 
0.174648

>  <r_i_glide_intrahb_reward>  (244) 
-0

>  <i_i_glide_confnum>  (244) 
3

>  <i_i_glide_posenum>  (244) 
29

>  <r_i_glide_eff_state_penalty>  (244) 
0

>  <ligand_id>  (244) 
62

>  <original_smiles>  (244) 
CCC12CC(=O)C3Oc4c(O)ccc5c4CC1N(CC1CC1)CCC532

>  <smiles>  (244) 
[H]Oc1c([H])c([H])c2c3c1OC1([H])C(=O)C([H])([H])C4(C([H])([H])C([H])([H])[H])C21C([H])([H])C([H])([H])[N+]([H])(C([H])([H])C1([H])C([H])([H])C1([H])[H])C4([H])C3([H])[H]

$$$$
62:2:0
     RDKit          3D

 50 55  0  0  1  0  0  0  0  0999 V2000
    5.2013   -1.3533    2.6774 C   0  0  0  0  0  0  0  0  0  0  0  0
    4.2887   -1.1886    1.4221 C   0  0  0  0  0  0  0  0  0  0  0  0
    4.7721   -1.8853    0.1135 C   0  0  2  0  0  0  0  0  0  0  0  0
    6.2846   -1.4728   -0.1449 C   0  0  0  0  0  0  0  0  0  0  0  0
    7.1821   -2.7126    0.2308 C   0  0  0  0  0  0  0  0  0  0  0  0
    8.3988   -2.7622    0.0869 O   0  0  0  0  0  0  0  0  0  0  0  0
    6.3026   -3.8790    0.7312 C   0  0  2  0  0  0  0  0  0  0  0  0
    6.1344   -5.2484    0.1018 O   0  0  0  0  0  0  0  0  0  0  0  0
    4.7930   -5.8130    0.0823 C   0  0  0  0  0  0  0  0  0  0  0  0
    4.6690   -6.5554    1.2861 C   0  0  0  0  0  0  0  0  0  0  0  0
    5.1299   -7.8313    1.3661 O   0  0  0  0  0  0  0  0  0  0  0  0
    4.3203   -5.8200    2.4509 C   0  0  0  0  0  0  0  0  0  0  0  0
    4.0603   -4.4182    2.3657 C   0  0  0  0  0  0  0  0  0  0  0  0
    3.9598   -3.9847    1.0094 C   0  0  0  0  0  0  0  0  0  0  0  0
    3.6643   -4.8734    0.0790 C   0  0  0  0  0  0  0  0  0  0  0  0
    2.8991   -3.8135   -0.8826 C   0  0  0  0  0  0  0  0  0  0  0  0
    3.4974   -2.2341   -0.9025 C   0  0  2  0  0  0  0  0  0  0  0  0
    3.8010   -1.9953   -2.3171 N   0  0  0  0  0  0  0  0  0  0  0  0
    3.6909   -0.6111   -2.7670 C   0  0  0  0  0  0  0  0  0  0  0  0
    3.8142   -0.4536   -4.2807 C   0  0  0  0  0  0  0  0  0  0  0  0
    3.9330    0.9269   -4.8725 C   0  0  0  0  0  0  0  0  0  0  0  0
    2.6792    0.1454   -5.0869 C   0  0  0  0  0  0  0  0  0  0  0  0
    5.0670   -2.6027   -2.6420 C   0  0  0  0  0  0  0  0  0  0  0  0
    5.4381   -3.6607   -1.5875 C   0  0  0  0  0  0  0  0  0  0  0  0
    5.1029   -3.3124    0.1230 C   0  0  1  0  0  0  0  0  0  0  0  0
    4.7489   -0.8350    3.5261 H   0  0  0  0  0  0  0  0  0  0  0  0
    6.1785   -0.8679    2.5397 H   0  0  0  0  0  0  0  0  0  0  0  0
    5.3387   -2.3960    2.9633 H   0  0  0  0  0  0  0  0  0  0  0  0
    3.2736   -1.5141    1.6456 H   0  0  0  0  0  0  0  0  0  0  0  0
    4.1625   -0.1370    1.1640 H   0  0  0  0  0  0  0  0  0  0  0  0
    6.5027   -1.1126   -1.1428 H   0  0  0  0  0  0  0  0  0  0  0  0
    6.5912   -0.6468    0.4887 H   0  0  0  0  0  0  0  0  0  0  0  0
    6.3586   -3.9135    1.8132 H   0  0  0  0  0  0  0  0  0  0  0  0
    5.0647   -8.1574    2.2560 H   0  0  0  0  0  0  0  0  0  0  0  0
    4.3855   -6.3020    3.4081 H   0  0  0  0  0  0  0  0  0  0  0  0
    4.0296   -3.7379    3.2076 H   0  0  0  0  0  0  0  0  0  0  0  0
    2.8184   -4.1927   -1.9004 H   0  0  0  0  0  0  0  0  0  0  0  0
    1.8804   -3.7354   -0.5053 H   0  0  0  0  0  0  0  0  0  0  0  0
    2.6804   -1.5686   -0.6456 H   0  0  0  0  0  0  0  0  0  0  0  0
    2.6931   -0.2916   -2.4812 H   0  0  0  0  0  0  0  0  0  0  0  0
    4.4299    0.0254   -2.2643 H   0  0  0  0  0  0  0  0  0  0  0  0
    4.4018   -1.2120   -4.7921 H   0  0  0  0  0  0  0  0  0  0  0  0
    3.8843    1.7847   -4.2047 H   0  0  0  0  0  0  0  0  0  0  0  0
    4.5923    1.0153   -5.7285 H   0  0  0  0  0  0  0  0  0  0  0  0
    2.5436   -0.2164   -6.0969 H   0  0  0  0  0  0  0  0  0  0  0  0
    1.7826    0.5125   -4.5911 H   0  0  0  0  0  0  0  0  0  0  0  0
    5.0392   -3.0566   -3.6269 H   0  0  0  0  0  0  0  0  0  0  0  0
    5.8044   -1.8192   -2.7178 H   0  0  0  0  0  0  0  0  0  0  0  0
    5.0214   -4.5815   -2.0070 H   0  0  0  0  0  0  0  0  0  0  0  0
    6.4798   -3.8587   -1.8210 H   0  0  0  0  0  0  0  0  0  0  0  0
  1  2  1  0
  1 26  1  0
  1 27  1  0
  1 28  1  0
  3  2  1  1
  2 29  1  0
  2 30  1  0
  3 17  1  0
  3 25  1  0
  3  4  1  0
  4  5  1  0
  4 31  1  0
  4 32  1  0
  5  6  2  0
  5  7  1  0
  7 25  1  0
  7  8  1  0
  7 33  1  1
  8  9  1  0
  9 15  2  0
  9 10  1  0
 10 11  1  0
 10 12  2  0
 11 34  1  0
 12 13  1  0
 12 35  1  0
 13 14  2  0
 13 36  1  0
 14 25  1  0
 14 15  1  0
 15 16  1  0
 16 17  1  0
 16 37  1  0
 16 38  1  0
 17 18  1  0
 17 39  1  1
 18 19  1  0
 18 23  1  0
 19 20  1  0
 19 40  1  0
 19 41  1  0
 20 22  1  0
 20 21  1  0
 20 42  1  0
 21 22  1  0
 21 43  1  0
 21 44  1  0
 22 45  1  0
 22 46  1  0
 23 24  1  0
 23 47  1  0
 23 48  1  0
 25 24  1  6
 24 49  1  0
 24 50  1  0
M  END
>  <i_m_ct_stereo_status>  (245) 
1

>  <s_m_source_file>  (245) 
/var/tmp/pbs.5076255.sched01/tmpn8rdt6mw/90ee43ygr2.sdf

>  <i_m_source_file_index>  (245) 
14

>  <i_lp_mmshare_version>  (245) 
48012

>  <i_f3d_flags>  (245) 
0

>  <s_epik_input>  (245) 
W0NIMl0xW0NIMl1bQ0hdMVtDSDJdTihbQ0gyXVtDSDJdMilbQ0BIXShbQ0BdMyhbQ0BAXTI0NSlbQ0gyXVtDSDNdKVtDSDJdYzZjKGMoW09IXSlbY0hdW2NIXWM1NilPW0NIXTRDKD1PKVtDSDJdMw==

>  <s_epik_cmdline>  (245) 
J2VwaWtfcHl0aG9uJywgJy1waHQnLCAnMi4wJywgJy1waCcsICc3LjAnLCAnLXRuJywgJzgnLCAnLW1hJywgJzIwMCcsICctaW1hZScsICc8aW5maWxlLm1hZT4nLCAnLW9tYWUnLCAnPG91dGZpbGUubWFlPic=

>  <r_lp_tautomer_probability>  (245) 
1

>  <r_epik_Ionization_Penalty>  (245) 
1.54562

>  <r_epik_Ionization_Penalty_Charging>  (245) 
0

>  <r_epik_Ionization_Penalty_Neutral>  (245) 
1.54562

>  <r_epik_State_Penalty>  (245) 
1.63923

>  <r_epik_Charging_Adjusted_Penalty>  (245) 
1.63923

>  <i_epik_Tot_Q>  (245) 
0

>  <i_epik_Tot_abs_Q>  (245) 
0

>  <s_lp_Force_Field>  (245) 
OPLS3e

>  <r_lp_Energy>  (245) 
392.959

>  <b_lp_Chiralities_Consistent>  (245) 
1

>  <s_lp_Variant>  (245) 
62:0-3

>  <s_i_glide_gridfile>  (245) 
pfpi4k_grid

>  <i_i_glide_lignum>  (245) 
14

>  <i_i_glide_rotatable_bonds>  (245) 
4

>  <r_i_docking_score>  (245) 
-3.40989

>  <r_i_glide_ligand_efficiency>  (245) 
-0.136395

>  <r_i_glide_ligand_efficiency_sa>  (245) 
-0.398823

>  <r_i_glide_ligand_efficiency_ln>  (245) 
-0.808245

>  <r_i_glide_gscore>  (245) 
-3.40989

>  <r_i_glide_lipo>  (245) 
-1.04113

>  <r_i_glide_hbond>  (245) 
0

>  <r_i_glide_metal>  (245) 
-0

>  <r_i_glide_rewards>  (245) 
-1.24863

>  <r_i_glide_evdw>  (245) 
-26.3275

>  <r_i_glide_ecoul>  (245) 
-0.88185

>  <r_i_glide_erotb>  (245) 
0.328519

>  <r_i_glide_esite>  (245) 
0

>  <r_i_glide_emodel>  (245) 
-29.3317

>  <r_i_glide_energy>  (245) 
-27.2093

>  <r_i_glide_einternal>  (245) 
3.77182

>  <r_i_glide_intrahb_reward>  (245) 
-0

>  <i_i_glide_confnum>  (245) 
3

>  <i_i_glide_posenum>  (245) 
2

>  <r_i_glide_eff_state_penalty>  (245) 
0

>  <ligand_id>  (245) 
62

>  <original_smiles>  (245) 
CCC12CC(=O)C3Oc4c(O)ccc5c4CC1N(CC1CC1)CCC532

>  <smiles>  (245) 
[H]Oc1c([H])c([H])c2c3c1OC1([H])C(=O)C([H])([H])C4(C([H])([H])C([H])([H])[H])C([H])(N(C([H])([H])C5([H])C([H])([H])C5([H])[H])C([H])([H])C([H])([H])C214)C3([H])[H]

$$$$
62:2:1
     RDKit          3D

 50 55  0  0  1  0  0  0  0  0999 V2000
    4.5547   -0.7809    2.2805 C   0  0  0  0  0  0  0  0  0  0  0  0
    4.0127   -0.6967    0.8225 C   0  0  0  0  0  0  0  0  0  0  0  0
    4.5751   -1.7212   -0.2005 C   0  0  2  0  0  0  0  0  0  0  0  0
    6.1700   -1.6961   -0.1161 C   0  0  0  0  0  0  0  0  0  0  0  0
    6.6185   -2.9968    0.6559 C   0  0  0  0  0  0  0  0  0  0  0  0
    7.7766   -3.3590    0.8081 O   0  0  0  0  0  0  0  0  0  0  0  0
    5.3763   -3.8301    1.0605 C   0  0  2  0  0  0  0  0  0  0  0  0
    5.0179   -5.2316    0.6078 O   0  0  0  0  0  0  0  0  0  0  0  0
    3.6231   -5.4880    0.3230 C   0  0  0  0  0  0  0  0  0  0  0  0
    3.0392   -5.9260    1.5504 C   0  0  0  0  0  0  0  0  0  0  0  0
    3.1055   -7.2277    1.9309 O   0  0  0  0  0  0  0  0  0  0  0  0
    2.6402   -4.9088    2.4585 C   0  0  0  0  0  0  0  0  0  0  0  0
    2.7704   -3.5423    2.1082 C   0  0  0  0  0  0  0  0  0  0  0  0
    3.0862   -3.3821    0.7235 C   0  0  0  0  0  0  0  0  0  0  0  0
    2.7916   -4.3577   -0.1159 C   0  0  0  0  0  0  0  0  0  0  0  0
    2.5416   -3.3762   -1.3733 C   0  0  0  0  0  0  0  0  0  0  0  0
    3.4861   -1.9854   -1.4386 C   0  0  2  0  0  0  0  0  0  0  0  0
    4.1199   -2.1020   -2.7560 N   0  0  0  0  0  0  0  0  0  0  0  0
    4.4439   -0.8494   -3.4269 C   0  0  0  0  0  0  0  0  0  0  0  0
    3.2358   -0.0816   -3.9011 C   0  0  0  0  0  0  0  0  0  0  0  0
    2.8216   -0.1880   -5.3381 C   0  0  0  0  0  0  0  0  0  0  0  0
    3.4025    1.0973   -4.8352 C   0  0  0  0  0  0  0  0  0  0  0  0
    5.2674   -2.9810   -2.6633 C   0  0  0  0  0  0  0  0  0  0  0  0
    5.1344   -3.8726   -1.4064 C   0  0  0  0  0  0  0  0  0  0  0  0
    4.5244   -3.1475    0.0887 C   0  0  1  0  0  0  0  0  0  0  0  0
    4.0728   -0.0160    2.8977 H   0  0  0  0  0  0  0  0  0  0  0  0
    5.6245   -0.5288    2.3441 H   0  0  0  0  0  0  0  0  0  0  0  0
    4.3561   -1.7474    2.7581 H   0  0  0  0  0  0  0  0  0  0  0  0
    2.9320   -0.7432    0.8268 H   0  0  0  0  0  0  0  0  0  0  0  0
    4.2189    0.2877    0.3901 H   0  0  0  0  0  0  0  0  0  0  0  0
    6.6880   -1.5919   -1.0627 H   0  0  0  0  0  0  0  0  0  0  0  0
    6.5249   -0.8480    0.4509 H   0  0  0  0  0  0  0  0  0  0  0  0
    5.1775   -3.6701    2.1236 H   0  0  0  0  0  0  0  0  0  0  0  0
    3.5382   -7.8026    1.3097 H   0  0  0  0  0  0  0  0  0  0  0  0
    2.3672   -5.2351    3.4593 H   0  0  0  0  0  0  0  0  0  0  0  0
    2.7115   -2.7026    2.7943 H   0  0  0  0  0  0  0  0  0  0  0  0
    2.6004   -3.8965   -2.3341 H   0  0  0  0  0  0  0  0  0  0  0  0
    1.5053   -3.0580   -1.2800 H   0  0  0  0  0  0  0  0  0  0  0  0
    2.8240   -1.1223   -1.4712 H   0  0  0  0  0  0  0  0  0  0  0  0
    5.0159   -0.2214   -2.7459 H   0  0  0  0  0  0  0  0  0  0  0  0
    5.0237   -1.0853   -4.3144 H   0  0  0  0  0  0  0  0  0  0  0  0
    2.4514    0.0477   -3.1595 H   0  0  0  0  0  0  0  0  0  0  0  0
    3.4613   -0.7417   -6.0228 H   0  0  0  0  0  0  0  0  0  0  0  0
    1.7510   -0.2622   -5.4944 H   0  0  0  0  0  0  0  0  0  0  0  0
    2.7005    1.9217   -4.7502 H   0  0  0  0  0  0  0  0  0  0  0  0
    4.3879    1.3435   -5.2141 H   0  0  0  0  0  0  0  0  0  0  0  0
    5.3363   -3.6083   -3.5488 H   0  0  0  0  0  0  0  0  0  0  0  0
    6.1888   -2.4198   -2.6675 H   0  0  0  0  0  0  0  0  0  0  0  0
    4.6243   -4.7700   -1.7867 H   0  0  0  0  0  0  0  0  0  0  0  0
    6.1242   -4.3025   -1.3185 H   0  0  0  0  0  0  0  0  0  0  0  0
  1  2  1  0
  1 26  1  0
  1 27  1  0
  1 28  1  0
  3  2  1  1
  2 29  1  0
  2 30  1  0
  3 17  1  0
  3 25  1  0
  3  4  1  0
  4  5  1  0
  4 31  1  0
  4 32  1  0
  5  6  2  0
  5  7  1  0
  7 25  1  0
  7  8  1  0
  7 33  1  1
  8  9  1  0
  9 15  2  0
  9 10  1  0
 10 11  1  0
 10 12  2  0
 11 34  1  0
 12 13  1  0
 12 35  1  0
 13 14  2  0
 13 36  1  0
 14 25  1  0
 14 15  1  0
 15 16  1  0
 16 17  1  0
 16 37  1  0
 16 38  1  0
 17 18  1  0
 17 39  1  6
 18 19  1  0
 18 23  1  0
 19 20  1  0
 19 40  1  0
 19 41  1  0
 20 22  1  0
 20 21  1  0
 20 42  1  0
 21 22  1  0
 21 43  1  0
 21 44  1  0
 22 45  1  0
 22 46  1  0
 23 24  1  0
 23 47  1  0
 23 48  1  0
 25 24  1  6
 24 49  1  0
 24 50  1  0
M  END
>  <i_m_ct_stereo_status>  (246) 
1

>  <s_m_source_file>  (246) 
/var/tmp/pbs.5076255.sched01/tmpn8rdt6mw/90ee43ygr2.sdf

>  <i_m_source_file_index>  (246) 
14

>  <i_lp_mmshare_version>  (246) 
48012

>  <i_f3d_flags>  (246) 
0

>  <s_epik_input>  (246) 
W0NIMl0xW0NIMl1bQ0hdMVtDSDJdTihbQ0gyXVtDSDJdMilbQ0BIXShbQ0BdMyhbQ0BAXTI0NSlbQ0gyXVtDSDNdKVtDSDJdYzZjKGMoW09IXSlbY0hdW2NIXWM1NilPW0NIXTRDKD1PKVtDSDJdMw==

>  <s_epik_cmdline>  (246) 
J2VwaWtfcHl0aG9uJywgJy1waHQnLCAnMi4wJywgJy1waCcsICc3LjAnLCAnLXRuJywgJzgnLCAnLW1hJywgJzIwMCcsICctaW1hZScsICc8aW5maWxlLm1hZT4nLCAnLW9tYWUnLCAnPG91dGZpbGUubWFlPic=

>  <r_lp_tautomer_probability>  (246) 
1

>  <r_epik_Ionization_Penalty>  (246) 
1.54562

>  <r_epik_Ionization_Penalty_Charging>  (246) 
0

>  <r_epik_Ionization_Penalty_Neutral>  (246) 
1.54562

>  <r_epik_State_Penalty>  (246) 
1.63923

>  <r_epik_Charging_Adjusted_Penalty>  (246) 
1.63923

>  <i_epik_Tot_Q>  (246) 
0

>  <i_epik_Tot_abs_Q>  (246) 
0

>  <s_lp_Force_Field>  (246) 
OPLS3e

>  <r_lp_Energy>  (246) 
392.959

>  <b_lp_Chiralities_Consistent>  (246) 
1

>  <s_lp_Variant>  (246) 
62:0-3

>  <s_i_glide_gridfile>  (246) 
pfpi4k_grid

>  <i_i_glide_lignum>  (246) 
14

>  <i_i_glide_rotatable_bonds>  (246) 
4

>  <r_i_docking_score>  (246) 
-2.96793

>  <r_i_glide_ligand_efficiency>  (246) 
-0.118717

>  <r_i_glide_ligand_efficiency_sa>  (246) 
-0.347131

>  <r_i_glide_ligand_efficiency_ln>  (246) 
-0.703488

>  <r_i_glide_gscore>  (246) 
-2.96793

>  <r_i_glide_lipo>  (246) 
-0.784541

>  <r_i_glide_hbond>  (246) 
0

>  <r_i_glide_metal>  (246) 
-0

>  <r_i_glide_rewards>  (246) 
-1.21714

>  <r_i_glide_evdw>  (246) 
-24.5666

>  <r_i_glide_ecoul>  (246) 
-0.442891

>  <r_i_glide_erotb>  (246) 
0.328519

>  <r_i_glide_esite>  (246) 
0

>  <r_i_glide_emodel>  (246) 
-27.049

>  <r_i_glide_energy>  (246) 
-25.0095

>  <r_i_glide_einternal>  (246) 
4.00581

>  <r_i_glide_intrahb_reward>  (246) 
-0

>  <i_i_glide_confnum>  (246) 
4

>  <i_i_glide_posenum>  (246) 
26

>  <r_i_glide_eff_state_penalty>  (246) 
0

>  <ligand_id>  (246) 
62

>  <original_smiles>  (246) 
CCC12CC(=O)C3Oc4c(O)ccc5c4CC1N(CC1CC1)CCC532

>  <smiles>  (246) 
[H]Oc1c([H])c([H])c2c3c1OC1([H])C(=O)C([H])([H])C4(C([H])([H])C([H])([H])[H])C([H])(N(C([H])([H])C5([H])C([H])([H])C5([H])[H])C([H])([H])C([H])([H])C214)C3([H])[H]

$$$$
62:2:2
     RDKit          3D

 50 55  0  0  1  0  0  0  0  0999 V2000
    4.3677    0.1535    1.4441 C   0  0  0  0  0  0  0  0  0  0  0  0
    4.2690   -1.3549    1.6761 C   0  0  0  0  0  0  0  0  0  0  0  0
    4.7466   -2.1793    0.4512 C   0  0  2  0  0  0  0  0  0  0  0  0
    6.3422   -2.1947    0.4373 C   0  0  0  0  0  0  0  0  0  0  0  0
    6.8125   -3.6273    0.8768 C   0  0  0  0  0  0  0  0  0  0  0  0
    7.9715   -4.0147    0.8685 O   0  0  0  0  0  0  0  0  0  0  0  0
    5.5929   -4.4844    1.2648 C   0  0  2  0  0  0  0  0  0  0  0  0
    5.1519   -5.7734    0.6130 O   0  0  0  0  0  0  0  0  0  0  0  0
    3.7197   -5.9686    0.4228 C   0  0  0  0  0  0  0  0  0  0  0  0
    3.2179   -6.5802    1.5912 C   0  0  0  0  0  0  0  0  0  0  0  0
    3.2664   -7.9353    1.7396 O   0  0  0  0  0  0  0  0  0  0  0  0
    2.9665   -5.7344    2.7230 C   0  0  0  0  0  0  0  0  0  0  0  0
    3.1764   -4.3281    2.5871 C   0  0  0  0  0  0  0  0  0  0  0  0
    3.2793   -3.9411    1.2214 C   0  0  0  0  0  0  0  0  0  0  0  0
    2.8922   -4.7689    0.2491 C   0  0  0  0  0  0  0  0  0  0  0  0
    2.5796   -3.5603   -0.7846 C   0  0  0  0  0  0  0  0  0  0  0  0
    3.5673   -2.1969   -0.7133 C   0  0  2  0  0  0  0  0  0  0  0  0
    4.0968   -2.0823   -2.0661 N   0  0  0  0  0  0  0  0  0  0  0  0
    4.4094   -0.7359   -2.5271 C   0  0  0  0  0  0  0  0  0  0  0  0
    3.2690   -0.1476   -3.3315 C   0  0  0  0  0  0  0  0  0  0  0  0
    3.0155   -0.5962   -4.7435 C   0  0  0  0  0  0  0  0  0  0  0  0
    3.5741    0.7741   -4.5028 C   0  0  0  0  0  0  0  0  0  0  0  0
    5.2050   -2.9978   -2.2222 C   0  0  0  0  0  0  0  0  0  0  0  0
    5.1271   -4.0962   -1.1387 C   0  0  0  0  0  0  0  0  0  0  0  0
    4.6689   -3.6413    0.4991 C   0  0  1  0  0  0  0  0  0  0  0  0
    4.0059    0.6885    2.3231 H   0  0  0  0  0  0  0  0  0  0  0  0
    3.7578    0.4805    0.6037 H   0  0  0  0  0  0  0  0  0  0  0  0
    5.3906    0.4651    1.2464 H   0  0  0  0  0  0  0  0  0  0  0  0
    4.8589   -1.6187    2.5566 H   0  0  0  0  0  0  0  0  0  0  0  0
    3.2250   -1.5499    1.9273 H   0  0  0  0  0  0  0  0  0  0  0  0
    6.8129   -1.8953   -0.4906 H   0  0  0  0  0  0  0  0  0  0  0  0
    6.7324   -1.5080    1.1850 H   0  0  0  0  0  0  0  0  0  0  0  0
    5.5120   -4.4755    2.3526 H   0  0  0  0  0  0  0  0  0  0  0  0
    3.0583   -8.2474    2.6036 H   0  0  0  0  0  0  0  0  0  0  0  0
    2.7827   -6.1757    3.6858 H   0  0  0  0  0  0  0  0  0  0  0  0
    3.3446   -3.6707    3.4400 H   0  0  0  0  0  0  0  0  0  0  0  0
    2.5148   -3.9466   -1.7979 H   0  0  0  0  0  0  0  0  0  0  0  0
    1.5761   -3.2104   -0.5722 H   0  0  0  0  0  0  0  0  0  0  0  0
    2.9289   -1.3258   -0.5735 H   0  0  0  0  0  0  0  0  0  0  0  0
    4.6805   -0.0664   -1.7115 H   0  0  0  0  0  0  0  0  0  0  0  0
    5.2596   -0.7854   -3.1924 H   0  0  0  0  0  0  0  0  0  0  0  0
    2.3831    0.0843   -2.7487 H   0  0  0  0  0  0  0  0  0  0  0  0
    3.6706   -1.3732   -5.1214 H   0  0  0  0  0  0  0  0  0  0  0  0
    1.9847   -0.6376   -5.0871 H   0  0  0  0  0  0  0  0  0  0  0  0
    2.8984    1.5980   -4.7198 H   0  0  0  0  0  0  0  0  0  0  0  0
    4.6091    0.9408   -4.7880 H   0  0  0  0  0  0  0  0  0  0  0  0
    5.1708   -3.4364   -3.2150 H   0  0  0  0  0  0  0  0  0  0  0  0
    6.1526   -2.4737   -2.1961 H   0  0  0  0  0  0  0  0  0  0  0  0
    4.5434   -4.8869   -1.6028 H   0  0  0  0  0  0  0  0  0  0  0  0
    6.0835   -4.5980   -1.2027 H   0  0  0  0  0  0  0  0  0  0  0  0
  1  2  1  0
  1 26  1  0
  1 27  1  0
  1 28  1  0
  3  2  1  1
  2 29  1  0
  2 30  1  0
  3 17  1  0
  3 25  1  0
  3  4  1  0
  4  5  1  0
  4 31  1  0
  4 32  1  0
  5  6  2  0
  5  7  1  0
  7 25  1  0
  7  8  1  0
  7 33  1  1
  8  9  1  0
  9 15  2  0
  9 10  1  0
 10 11  1  0
 10 12  2  0
 11 34  1  0
 12 13  1  0
 12 35  1  0
 13 14  2  0
 13 36  1  0
 14 25  1  0
 14 15  1  0
 15 16  1  0
 16 17  1  0
 16 37  1  0
 16 38  1  0
 17 18  1  0
 17 39  1  1
 18 19  1  0
 18 23  1  0
 19 20  1  0
 19 40  1  0
 19 41  1  0
 20 22  1  0
 20 21  1  0
 20 42  1  0
 21 22  1  0
 21 43  1  0
 21 44  1  0
 22 45  1  0
 22 46  1  0
 23 24  1  0
 23 47  1  0
 23 48  1  0
 25 24  1  6
 24 49  1  0
 24 50  1  0
M  END
>  <i_m_ct_stereo_status>  (247) 
1

>  <s_m_source_file>  (247) 
/var/tmp/pbs.5076255.sched01/tmpn8rdt6mw/90ee43ygr2.sdf

>  <i_m_source_file_index>  (247) 
14

>  <i_lp_mmshare_version>  (247) 
48012

>  <i_f3d_flags>  (247) 
0

>  <s_epik_input>  (247) 
W0NIMl0xW0NIMl1bQ0hdMVtDSDJdTihbQ0gyXVtDSDJdMilbQ0BIXShbQ0BdMyhbQ0BAXTI0NSlbQ0gyXVtDSDNdKVtDSDJdYzZjKGMoW09IXSlbY0hdW2NIXWM1NilPW0NIXTRDKD1PKVtDSDJdMw==

>  <s_epik_cmdline>  (247) 
J2VwaWtfcHl0aG9uJywgJy1waHQnLCAnMi4wJywgJy1waCcsICc3LjAnLCAnLXRuJywgJzgnLCAnLW1hJywgJzIwMCcsICctaW1hZScsICc8aW5maWxlLm1hZT4nLCAnLW9tYWUnLCAnPG91dGZpbGUubWFlPic=

>  <r_lp_tautomer_probability>  (247) 
1

>  <r_epik_Ionization_Penalty>  (247) 
1.54562

>  <r_epik_Ionization_Penalty_Charging>  (247) 
0

>  <r_epik_Ionization_Penalty_Neutral>  (247) 
1.54562

>  <r_epik_State_Penalty>  (247) 
1.63923

>  <r_epik_Charging_Adjusted_Penalty>  (247) 
1.63923

>  <i_epik_Tot_Q>  (247) 
0

>  <i_epik_Tot_abs_Q>  (247) 
0

>  <s_lp_Force_Field>  (247) 
OPLS3e

>  <r_lp_Energy>  (247) 
392.959

>  <b_lp_Chiralities_Consistent>  (247) 
1

>  <s_lp_Variant>  (247) 
62:0-3

>  <s_i_glide_gridfile>  (247) 
pfpi4k_grid

>  <i_i_glide_lignum>  (247) 
14

>  <i_i_glide_rotatable_bonds>  (247) 
4

>  <r_i_docking_score>  (247) 
-2.77024

>  <r_i_glide_ligand_efficiency>  (247) 
-0.11081

>  <r_i_glide_ligand_efficiency_sa>  (247) 
-0.32401

>  <r_i_glide_ligand_efficiency_ln>  (247) 
-0.656631

>  <r_i_glide_gscore>  (247) 
-2.77024

>  <r_i_glide_lipo>  (247) 
-0.692464

>  <r_i_glide_hbond>  (247) 
0

>  <r_i_glide_metal>  (247) 
-0

>  <r_i_glide_rewards>  (247) 
-1.22008

>  <r_i_glide_evdw>  (247) 
-22.6432

>  <r_i_glide_ecoul>  (247) 
-0.360372

>  <r_i_glide_erotb>  (247) 
0.328519

>  <r_i_glide_esite>  (247) 
0

>  <r_i_glide_emodel>  (247) 
-26.0422

>  <r_i_glide_energy>  (247) 
-23.0036

>  <r_i_glide_einternal>  (247) 
2.38648

>  <r_i_glide_intrahb_reward>  (247) 
-0

>  <i_i_glide_confnum>  (247) 
4

>  <i_i_glide_posenum>  (247) 
9

>  <r_i_glide_eff_state_penalty>  (247) 
0

>  <ligand_id>  (247) 
62

>  <original_smiles>  (247) 
CCC12CC(=O)C3Oc4c(O)ccc5c4CC1N(CC1CC1)CCC532

>  <smiles>  (247) 
[H]Oc1c([H])c([H])c2c3c1OC1([H])C(=O)C([H])([H])C4(C([H])([H])C([H])([H])[H])C([H])(N(C([H])([H])C5([H])C([H])([H])C5([H])[H])C([H])([H])C([H])([H])C214)C3([H])[H]

$$$$
62:3:0
     RDKit          3D

 50 55  0  0  1  0  0  0  0  0999 V2000
    7.9550   -2.1479    0.0811 C   0  0  0  0  0  0  0  0  0  0  0  0
    6.5779   -1.7013   -0.4215 C   0  0  0  0  0  0  0  0  0  0  0  0
    5.2816   -2.5198    0.1221 C   0  0  2  0  0  0  0  0  0  0  0  0
    5.0146   -1.6878    1.3927 C   0  0  0  0  0  0  0  0  0  0  0  0
    4.1410   -0.6077    0.7088 C   0  0  0  0  0  0  0  0  0  0  0  0
    3.8161    0.4475    1.2417 O   0  0  0  0  0  0  0  0  0  0  0  0
    3.6601   -1.0518   -0.6903 C   0  0  1  0  0  0  0  0  0  0  0  0
    4.5445   -0.6840   -1.8092 O   0  0  0  0  0  0  0  0  0  0  0  0
    4.7156   -1.6473   -2.8268 C   0  0  0  0  0  0  0  0  0  0  0  0
    3.7096   -1.4758   -3.8068 C   0  0  0  0  0  0  0  0  0  0  0  0
    3.8066   -0.4570   -4.7153 O   0  0  0  0  0  0  0  0  0  0  0  0
    2.4850   -2.1901   -3.6664 C   0  0  0  0  0  0  0  0  0  0  0  0
    2.2598   -3.0031   -2.5164 C   0  0  0  0  0  0  0  0  0  0  0  0
    3.4670   -3.2713   -1.8325 C   0  0  0  0  0  0  0  0  0  0  0  0
    4.6516   -3.0117   -2.4295 C   0  0  0  0  0  0  0  0  0  0  0  0
    5.6077   -4.0112   -1.6929 C   0  0  0  0  0  0  0  0  0  0  0  0
    5.6439   -3.9730   -0.0999 C   0  0  2  0  0  0  0  0  0  0  0  0
    4.8069   -4.9133    0.6861 N   0  0  0  0  0  0  0  0  0  0  0  0
    5.2460   -6.2933    0.4653 C   0  0  0  0  0  0  0  0  0  0  0  0
    4.7043   -7.2702    1.4951 C   0  0  0  0  0  0  0  0  0  0  0  0
    5.4677   -8.5397    1.8031 C   0  0  0  0  0  0  0  0  0  0  0  0
    4.1670   -8.6147    1.0533 C   0  0  0  0  0  0  0  0  0  0  0  0
    3.3455   -4.7906    0.5670 C   0  0  0  0  0  0  0  0  0  0  0  0
    2.8610   -3.3208    0.5032 C   0  0  0  0  0  0  0  0  0  0  0  0
    3.7704   -2.5417   -0.4930 C   0  0  1  0  0  0  0  0  0  0  0  0
    8.7211   -1.3995   -0.1186 H   0  0  0  0  0  0  0  0  0  0  0  0
    8.2885   -3.0526   -0.4267 H   0  0  0  0  0  0  0  0  0  0  0  0
    7.9151   -2.3467    1.1454 H   0  0  0  0  0  0  0  0  0  0  0  0
    6.5214   -0.6376   -0.1846 H   0  0  0  0  0  0  0  0  0  0  0  0
    6.7057   -1.7118   -1.4924 H   0  0  0  0  0  0  0  0  0  0  0  0
    4.4819   -2.1930    2.1984 H   0  0  0  0  0  0  0  0  0  0  0  0
    5.9053   -1.2354    1.8441 H   0  0  0  0  0  0  0  0  0  0  0  0
    2.6775   -0.6938   -0.8942 H   0  0  0  0  0  0  0  0  0  0  0  0
    2.9717   -0.1921   -5.0672 H   0  0  0  0  0  0  0  0  0  0  0  0
    1.6670   -1.9377   -4.3197 H   0  0  0  0  0  0  0  0  0  0  0  0
    1.2651   -3.2124   -2.1445 H   0  0  0  0  0  0  0  0  0  0  0  0
    5.3044   -5.0003   -2.0221 H   0  0  0  0  0  0  0  0  0  0  0  0
    6.6016   -3.8356   -2.0940 H   0  0  0  0  0  0  0  0  0  0  0  0
    6.6476   -4.2050    0.2489 H   0  0  0  0  0  0  0  0  0  0  0  0
    4.9569   -6.6283   -0.5310 H   0  0  0  0  0  0  0  0  0  0  0  0
    6.3339   -6.3382    0.5110 H   0  0  0  0  0  0  0  0  0  0  0  0
    4.2315   -6.8145    2.3620 H   0  0  0  0  0  0  0  0  0  0  0  0
    6.3854   -8.7276    1.2495 H   0  0  0  0  0  0  0  0  0  0  0  0
    5.4665   -8.8889    2.8344 H   0  0  0  0  0  0  0  0  0  0  0  0
    3.3039   -9.0126    1.5832 H   0  0  0  0  0  0  0  0  0  0  0  0
    4.2136   -8.8609   -0.0049 H   0  0  0  0  0  0  0  0  0  0  0  0
    2.9883   -5.3350   -0.3081 H   0  0  0  0  0  0  0  0  0  0  0  0
    2.8887   -5.2702    1.4345 H   0  0  0  0  0  0  0  0  0  0  0  0
    1.8244   -3.3013    0.1783 H   0  0  0  0  0  0  0  0  0  0  0  0
    2.8076   -2.9188    1.5057 H   0  0  0  0  0  0  0  0  0  0  0  0
  1  2  1  0
  1 26  1  0
  1 27  1  0
  1 28  1  0
  3  2  1  6
  2 29  1  0
  2 30  1  0
  3 17  1  0
  3 25  1  0
  3  4  1  0
  4  5  1  0
  4 31  1  0
  4 32  1  0
  5  6  2  0
  5  7  1  0
  7 25  1  0
  7  8  1  0
  7 33  1  6
  8  9  1  0
  9 15  2  0
  9 10  1  0
 10 11  1  0
 10 12  2  0
 11 34  1  0
 12 13  1  0
 12 35  1  0
 13 14  2  0
 13 36  1  0
 14 25  1  0
 14 15  1  0
 15 16  1  0
 16 17  1  0
 16 37  1  0
 16 38  1  0
 17 18  1  0
 17 39  1  6
 18 19  1  0
 18 23  1  0
 19 20  1  0
 19 40  1  0
 19 41  1  0
 20 22  1  0
 20 21  1  0
 20 42  1  0
 21 22  1  0
 21 43  1  0
 21 44  1  0
 22 45  1  0
 22 46  1  0
 23 24  1  0
 23 47  1  0
 23 48  1  0
 25 24  1  1
 24 49  1  0
 24 50  1  0
M  END
>  <i_m_ct_stereo_status>  (248) 
1

>  <s_m_source_file>  (248) 
/var/tmp/pbs.5076255.sched01/tmpn8rdt6mw/90ee43ygr2.sdf

>  <i_m_source_file_index>  (248) 
15

>  <i_lp_mmshare_version>  (248) 
48012

>  <i_f3d_flags>  (248) 
0

>  <s_epik_input>  (248) 
W0NIMl0xW0NIMl1bQ0hdMVtDSDJdTihbQ0gyXVtDSDJdMilbQ0BIXShbQ0BdMyhbQ0BAXTI0NSlbQ0gyXVtDSDNdKVtDSDJdYzZjKGMoW09IXSlbY0hdW2NIXWM1NilPW0NIXTRDKD1PKVtDSDJdMw==

>  <s_epik_cmdline>  (248) 
J2VwaWtfcHl0aG9uJywgJy1waHQnLCAnMi4wJywgJy1waCcsICc3LjAnLCAnLXRuJywgJzgnLCAnLW1hJywgJzIwMCcsICctaW1hZScsICc8aW5maWxlLm1hZT4nLCAnLW9tYWUnLCAnPG91dGZpbGUubWFlPic=

>  <r_lp_tautomer_probability>  (248) 
1

>  <r_epik_Ionization_Penalty>  (248) 
1.54562

>  <r_epik_Ionization_Penalty_Charging>  (248) 
0

>  <r_epik_Ionization_Penalty_Neutral>  (248) 
1.54562

>  <r_epik_State_Penalty>  (248) 
1.63923

>  <r_epik_Charging_Adjusted_Penalty>  (248) 
1.63923

>  <i_epik_Tot_Q>  (248) 
0

>  <i_epik_Tot_abs_Q>  (248) 
0

>  <s_lp_Force_Field>  (248) 
OPLS3e

>  <r_lp_Energy>  (248) 
260.151

>  <b_lp_Chiralities_Consistent>  (248) 
1

>  <s_lp_Variant>  (248) 
62:0-4

>  <s_i_glide_gridfile>  (248) 
pfpi4k_grid

>  <i_i_glide_lignum>  (248) 
15

>  <i_i_glide_rotatable_bonds>  (248) 
4

>  <r_i_docking_score>  (248) 
-3.48917

>  <r_i_glide_ligand_efficiency>  (248) 
-0.139567

>  <r_i_glide_ligand_efficiency_sa>  (248) 
-0.408095

>  <r_i_glide_ligand_efficiency_ln>  (248) 
-0.827037

>  <r_i_glide_gscore>  (248) 
-3.48917

>  <r_i_glide_lipo>  (248) 
-0.953974

>  <r_i_glide_hbond>  (248) 
0

>  <r_i_glide_metal>  (248) 
-0

>  <r_i_glide_rewards>  (248) 
-1.2114

>  <r_i_glide_evdw>  (248) 
-26.6624

>  <r_i_glide_ecoul>  (248) 
-2.12796

>  <r_i_glide_erotb>  (248) 
0.328519

>  <r_i_glide_esite>  (248) 
0

>  <r_i_glide_emodel>  (248) 
-33.2083

>  <r_i_glide_energy>  (248) 
-28.7904

>  <r_i_glide_einternal>  (248) 
1.83927

>  <r_i_glide_intrahb_reward>  (248) 
-0

>  <i_i_glide_confnum>  (248) 
3

>  <i_i_glide_posenum>  (248) 
6

>  <r_i_glide_eff_state_penalty>  (248) 
0

>  <ligand_id>  (248) 
62

>  <original_smiles>  (248) 
CCC12CC(=O)C3Oc4c(O)ccc5c4CC1N(CC1CC1)CCC532

>  <smiles>  (248) 
[H]Oc1c([H])c([H])c2c3c1OC1([H])C(=O)C([H])([H])C4(C([H])([H])C([H])([H])[H])C([H])(N(C([H])([H])C5([H])C([H])([H])C5([H])[H])C([H])([H])C([H])([H])C214)C3([H])[H]

$$$$
62:3:1
     RDKit          3D

 50 55  0  0  1  0  0  0  0  0999 V2000
    4.5129   -5.7038    1.9976 C   0  0  0  0  0  0  0  0  0  0  0  0
    4.7781   -4.8390    0.7458 C   0  0  0  0  0  0  0  0  0  0  0  0
    5.1298   -3.2752    1.0074 C   0  0  2  0  0  0  0  0  0  0  0  0
    6.5999   -3.4510    1.4353 C   0  0  0  0  0  0  0  0  0  0  0  0
    7.2205   -3.4311    0.0147 C   0  0  0  0  0  0  0  0  0  0  0  0
    8.3610   -3.8125   -0.2487 O   0  0  0  0  0  0  0  0  0  0  0  0
    6.2376   -2.8431   -1.0249 C   0  0  1  0  0  0  0  0  0  0  0  0
    5.3755   -3.8495   -1.6858 O   0  0  0  0  0  0  0  0  0  0  0  0
    4.0090   -3.5307   -1.8775 C   0  0  0  0  0  0  0  0  0  0  0  0
    3.8964   -2.9047   -3.1476 C   0  0  0  0  0  0  0  0  0  0  0  0
    3.9258   -3.6594   -4.2847 O   0  0  0  0  0  0  0  0  0  0  0  0
    4.0838   -1.5005   -3.2379 C   0  0  0  0  0  0  0  0  0  0  0  0
    4.3870   -0.7781   -2.0550 C   0  0  0  0  0  0  0  0  0  0  0  0
    4.1312   -1.5067   -0.8736 C   0  0  0  0  0  0  0  0  0  0  0  0
    3.4086   -2.6483   -0.9296 C   0  0  0  0  0  0  0  0  0  0  0  0
    2.8378   -2.8052    0.5342 C   0  0  0  0  0  0  0  0  0  0  0  0
    3.8965   -2.7416    1.7218 C   0  0  2  0  0  0  0  0  0  0  0  0
    4.1341   -1.4492    2.4176 N   0  0  0  0  0  0  0  0  0  0  0  0
    2.9276   -0.9966    3.1234 C   0  0  0  0  0  0  0  0  0  0  0  0
    3.2139    0.0547    4.1844 C   0  0  0  0  0  0  0  0  0  0  0  0
    3.4046   -0.3546    5.6251 C   0  0  0  0  0  0  0  0  0  0  0  0
    2.1574    0.3853    5.2141 C   0  0  0  0  0  0  0  0  0  0  0  0
    4.7517   -0.3531    1.6495 C   0  0  0  0  0  0  0  0  0  0  0  0
    5.8540   -0.8159    0.6762 C   0  0  0  0  0  0  0  0  0  0  0  0
    5.3373   -2.0759   -0.0771 C   0  0  1  0  0  0  0  0  0  0  0  0
    4.5300   -6.7597    1.7290 H   0  0  0  0  0  0  0  0  0  0  0  0
    3.5281   -5.5158    2.4230 H   0  0  0  0  0  0  0  0  0  0  0  0
    5.2532   -5.5583    2.7830 H   0  0  0  0  0  0  0  0  0  0  0  0
    5.5722   -5.3674    0.2192 H   0  0  0  0  0  0  0  0  0  0  0  0
    3.9254   -5.0278    0.1046 H   0  0  0  0  0  0  0  0  0  0  0  0
    6.9901   -2.6692    2.0744 H   0  0  0  0  0  0  0  0  0  0  0  0
    6.8253   -4.3922    1.9325 H   0  0  0  0  0  0  0  0  0  0  0  0
    6.7375   -2.2171   -1.7633 H   0  0  0  0  0  0  0  0  0  0  0  0
    3.8016   -4.5740   -4.0652 H   0  0  0  0  0  0  0  0  0  0  0  0
    4.1746   -1.0337   -4.2041 H   0  0  0  0  0  0  0  0  0  0  0  0
    4.8863    0.1572   -2.0961 H   0  0  0  0  0  0  0  0  0  0  0  0
    2.0633   -2.0627    0.7004 H   0  0  0  0  0  0  0  0  0  0  0  0
    2.2989   -3.7512    0.5736 H   0  0  0  0  0  0  0  0  0  0  0  0
    3.5759   -3.4084    2.5211 H   0  0  0  0  0  0  0  0  0  0  0  0
    2.1912   -0.6037    2.4225 H   0  0  0  0  0  0  0  0  0  0  0  0
    2.4602   -1.8484    3.6174 H   0  0  0  0  0  0  0  0  0  0  0  0
    3.7688    0.9258    3.8411 H   0  0  0  0  0  0  0  0  0  0  0  0
    3.3200   -1.4154    5.8538 H   0  0  0  0  0  0  0  0  0  0  0  0
    4.1496    0.1907    6.2009 H   0  0  0  0  0  0  0  0  0  0  0  0
    2.0704    1.4239    5.5290 H   0  0  0  0  0  0  0  0  0  0  0  0
    1.2220   -0.1700    5.1735 H   0  0  0  0  0  0  0  0  0  0  0  0
    3.9878    0.2055    1.1054 H   0  0  0  0  0  0  0  0  0  0  0  0
    5.2030    0.3407    2.3569 H   0  0  0  0  0  0  0  0  0  0  0  0
    6.0842    0.0017   -0.0016 H   0  0  0  0  0  0  0  0  0  0  0  0
    6.7836   -0.9404    1.2178 H   0  0  0  0  0  0  0  0  0  0  0  0
  1  2  1  0
  1 26  1  0
  1 27  1  0
  1 28  1  0
  3  2  1  6
  2 29  1  0
  2 30  1  0
  3 17  1  0
  3 25  1  0
  3  4  1  0
  4  5  1  0
  4 31  1  0
  4 32  1  0
  5  6  2  0
  5  7  1  0
  7 25  1  0
  7  8  1  0
  7 33  1  6
  8  9  1  0
  9 15  2  0
  9 10  1  0
 10 11  1  0
 10 12  2  0
 11 34  1  0
 12 13  1  0
 12 35  1  0
 13 14  2  0
 13 36  1  0
 14 25  1  0
 14 15  1  0
 15 16  1  0
 16 17  1  0
 16 37  1  0
 16 38  1  0
 17 18  1  0
 17 39  1  1
 18 19  1  0
 18 23  1  0
 19 20  1  0
 19 40  1  0
 19 41  1  0
 20 22  1  0
 20 21  1  0
 20 42  1  0
 21 22  1  0
 21 43  1  0
 21 44  1  0
 22 45  1  0
 22 46  1  0
 23 24  1  0
 23 47  1  0
 23 48  1  0
 25 24  1  1
 24 49  1  0
 24 50  1  0
M  END
>  <i_m_ct_stereo_status>  (249) 
1

>  <s_m_source_file>  (249) 
/var/tmp/pbs.5076255.sched01/tmpn8rdt6mw/90ee43ygr2.sdf

>  <i_m_source_file_index>  (249) 
15

>  <i_lp_mmshare_version>  (249) 
48012

>  <i_f3d_flags>  (249) 
0

>  <s_epik_input>  (249) 
W0NIMl0xW0NIMl1bQ0hdMVtDSDJdTihbQ0gyXVtDSDJdMilbQ0BIXShbQ0BdMyhbQ0BAXTI0NSlbQ0gyXVtDSDNdKVtDSDJdYzZjKGMoW09IXSlbY0hdW2NIXWM1NilPW0NIXTRDKD1PKVtDSDJdMw==

>  <s_epik_cmdline>  (249) 
J2VwaWtfcHl0aG9uJywgJy1waHQnLCAnMi4wJywgJy1waCcsICc3LjAnLCAnLXRuJywgJzgnLCAnLW1hJywgJzIwMCcsICctaW1hZScsICc8aW5maWxlLm1hZT4nLCAnLW9tYWUnLCAnPG91dGZpbGUubWFlPic=

>  <r_lp_tautomer_probability>  (249) 
1

>  <r_epik_Ionization_Penalty>  (249) 
1.54562

>  <r_epik_Ionization_Penalty_Charging>  (249) 
0

>  <r_epik_Ionization_Penalty_Neutral>  (249) 
1.54562

>  <r_epik_State_Penalty>  (249) 
1.63923

>  <r_epik_Charging_Adjusted_Penalty>  (249) 
1.63923

>  <i_epik_Tot_Q>  (249) 
0

>  <i_epik_Tot_abs_Q>  (249) 
0

>  <s_lp_Force_Field>  (249) 
OPLS3e

>  <r_lp_Energy>  (249) 
260.151

>  <b_lp_Chiralities_Consistent>  (249) 
1

>  <s_lp_Variant>  (249) 
62:0-4

>  <s_i_glide_gridfile>  (249) 
pfpi4k_grid

>  <i_i_glide_lignum>  (249) 
15

>  <i_i_glide_rotatable_bonds>  (249) 
4

>  <r_i_docking_score>  (249) 
-3.30893

>  <r_i_glide_ligand_efficiency>  (249) 
-0.132357

>  <r_i_glide_ligand_efficiency_sa>  (249) 
-0.387015

>  <r_i_glide_ligand_efficiency_ln>  (249) 
-0.784316

>  <r_i_glide_gscore>  (249) 
-3.30893

>  <r_i_glide_lipo>  (249) 
-0.628841

>  <r_i_glide_hbond>  (249) 
0

>  <r_i_glide_metal>  (249) 
-0

>  <r_i_glide_rewards>  (249) 
-1.30661

>  <r_i_glide_evdw>  (249) 
-24.1675

>  <r_i_glide_ecoul>  (249) 
-3.29082

>  <r_i_glide_erotb>  (249) 
0.328519

>  <r_i_glide_esite>  (249) 
0

>  <r_i_glide_emodel>  (249) 
-32.9557

>  <r_i_glide_energy>  (249) 
-27.4583

>  <r_i_glide_einternal>  (249) 
0.272797

>  <r_i_glide_intrahb_reward>  (249) 
-0

>  <i_i_glide_confnum>  (249) 
1

>  <i_i_glide_posenum>  (249) 
1

>  <r_i_glide_eff_state_penalty>  (249) 
0

>  <ligand_id>  (249) 
62

>  <original_smiles>  (249) 
CCC12CC(=O)C3Oc4c(O)ccc5c4CC1N(CC1CC1)CCC532

>  <smiles>  (249) 
[H]Oc1c([H])c([H])c2c3c1OC1([H])C(=O)C([H])([H])C4(C([H])([H])C([H])([H])[H])C([H])(N(C([H])([H])C5([H])C([H])([H])C5([H])[H])C([H])([H])C([H])([H])C214)C3([H])[H]

$$$$
62:3:2
     RDKit          3D

 50 55  0  0  1  0  0  0  0  0999 V2000
    4.6976   -5.7327    2.1325 C   0  0  0  0  0  0  0  0  0  0  0  0
    4.9694   -4.8696    0.8797 C   0  0  0  0  0  0  0  0  0  0  0  0
    4.8982   -3.2585    1.0872 C   0  0  2  0  0  0  0  0  0  0  0  0
    6.2571   -3.0626    1.7658 C   0  0  0  0  0  0  0  0  0  0  0  0
    7.0969   -2.9369    0.4748 C   0  0  0  0  0  0  0  0  0  0  0  0
    8.3236   -3.0514    0.4262 O   0  0  0  0  0  0  0  0  0  0  0  0
    6.2243   -2.6220   -0.7531 C   0  0  1  0  0  0  0  0  0  0  0  0
    5.7721   -3.8269   -1.4770 O   0  0  0  0  0  0  0  0  0  0  0  0
    4.4299   -3.8611   -1.9233 C   0  0  0  0  0  0  0  0  0  0  0  0
    4.3857   -3.3046   -3.2353 C   0  0  0  0  0  0  0  0  0  0  0  0
    4.7260   -4.0814   -4.3139 O   0  0  0  0  0  0  0  0  0  0  0  0
    4.2533   -1.9065   -3.3795 C   0  0  0  0  0  0  0  0  0  0  0  0
    4.1677   -1.0764   -2.2208 C   0  0  0  0  0  0  0  0  0  0  0  0
    3.8524   -1.8188   -1.0560 C   0  0  0  0  0  0  0  0  0  0  0  0
    3.4821   -3.1174   -1.1614 C   0  0  0  0  0  0  0  0  0  0  0  0
    2.7055   -3.3672    0.1875 C   0  0  0  0  0  0  0  0  0  0  0  0
    3.4714   -3.0179    1.5424 C   0  0  2  0  0  0  0  0  0  0  0  0
    3.2721   -1.6925    2.1810 N   0  0  0  0  0  0  0  0  0  0  0  0
    1.8855   -1.5289    2.6210 C   0  0  0  0  0  0  0  0  0  0  0  0
    1.6839   -0.3140    3.5121 C   0  0  0  0  0  0  0  0  0  0  0  0
    0.2903    0.0591    3.9773 C   0  0  0  0  0  0  0  0  0  0  0  0
    1.0034    0.9242    2.9729 C   0  0  0  0  0  0  0  0  0  0  0  0
    3.7342   -0.4979    1.4444 C   0  0  0  0  0  0  0  0  0  0  0  0
    5.0763   -0.7149    0.7063 C   0  0  0  0  0  0  0  0  0  0  0  0
    5.0017   -2.0723   -0.0411 C   0  0  1  0  0  0  0  0  0  0  0  0
    5.0081   -6.7626    1.9453 H   0  0  0  0  0  0  0  0  0  0  0  0
    3.6372   -5.7781    2.3763 H   0  0  0  0  0  0  0  0  0  0  0  0
    5.2337   -5.3914    3.0167 H   0  0  0  0  0  0  0  0  0  0  0  0
    5.9436   -5.2061    0.5343 H   0  0  0  0  0  0  0  0  0  0  0  0
    4.3105   -5.2799    0.1246 H   0  0  0  0  0  0  0  0  0  0  0  0
    6.3399   -2.1938    2.4073 H   0  0  0  0  0  0  0  0  0  0  0  0
    6.6006   -3.9116    2.3506 H   0  0  0  0  0  0  0  0  0  0  0  0
    6.6938   -1.9147   -1.4395 H   0  0  0  0  0  0  0  0  0  0  0  0
    4.9518   -4.9614   -4.0254 H   0  0  0  0  0  0  0  0  0  0  0  0
    4.4006   -1.4595   -4.3582 H   0  0  0  0  0  0  0  0  0  0  0  0
    4.3951   -0.0089   -2.2402 H   0  0  0  0  0  0  0  0  0  0  0  0
    1.7880   -2.7901    0.1436 H   0  0  0  0  0  0  0  0  0  0  0  0
    2.3885   -4.3991    0.2042 H   0  0  0  0  0  0  0  0  0  0  0  0
    3.1651   -3.7259    2.3160 H   0  0  0  0  0  0  0  0  0  0  0  0
    1.2062   -1.4497    1.7710 H   0  0  0  0  0  0  0  0  0  0  0  0
    1.5829   -2.4040    3.1937 H   0  0  0  0  0  0  0  0  0  0  0  0
    2.4682   -0.1691    4.2495 H   0  0  0  0  0  0  0  0  0  0  0  0
   -0.5377   -0.5506    3.6282 H   0  0  0  0  0  0  0  0  0  0  0  0
    0.1787    0.4638    4.9839 H   0  0  0  0  0  0  0  0  0  0  0  0
    1.3783    1.8900    3.3079 H   0  0  0  0  0  0  0  0  0  0  0  0
    0.6685    0.8928    1.9353 H   0  0  0  0  0  0  0  0  0  0  0  0
    2.9704   -0.1700    0.7374 H   0  0  0  0  0  0  0  0  0  0  0  0
    3.8588    0.3189    2.1563 H   0  0  0  0  0  0  0  0  0  0  0  0
    5.2318    0.1193    0.0215 H   0  0  0  0  0  0  0  0  0  0  0  0
    5.8959   -0.5940    1.3984 H   0  0  0  0  0  0  0  0  0  0  0  0
  1  2  1  0
  1 26  1  0
  1 27  1  0
  1 28  1  0
  3  2  1  6
  2 29  1  0
  2 30  1  0
  3 17  1  0
  3 25  1  0
  3  4  1  0
  4  5  1  0
  4 31  1  0
  4 32  1  0
  5  6  2  0
  5  7  1  0
  7 25  1  0
  7  8  1  0
  7 33  1  6
  8  9  1  0
  9 15  2  0
  9 10  1  0
 10 11  1  0
 10 12  2  0
 11 34  1  0
 12 13  1  0
 12 35  1  0
 13 14  2  0
 13 36  1  0
 14 25  1  0
 14 15  1  0
 15 16  1  0
 16 17  1  0
 16 37  1  0
 16 38  1  0
 17 18  1  0
 17 39  1  1
 18 19  1  0
 18 23  1  0
 19 20  1  0
 19 40  1  0
 19 41  1  0
 20 22  1  0
 20 21  1  0
 20 42  1  0
 21 22  1  0
 21 43  1  0
 21 44  1  0
 22 45  1  0
 22 46  1  0
 23 24  1  0
 23 47  1  0
 23 48  1  0
 25 24  1  1
 24 49  1  0
 24 50  1  0
M  END
>  <i_m_ct_stereo_status>  (250) 
1

>  <s_m_source_file>  (250) 
/var/tmp/pbs.5076255.sched01/tmpn8rdt6mw/90ee43ygr2.sdf

>  <i_m_source_file_index>  (250) 
15

>  <i_lp_mmshare_version>  (250) 
48012

>  <i_f3d_flags>  (250) 
0

>  <s_epik_input>  (250) 
W0NIMl0xW0NIMl1bQ0hdMVtDSDJdTihbQ0gyXVtDSDJdMilbQ0BIXShbQ0BdMyhbQ0BAXTI0NSlbQ0gyXVtDSDNdKVtDSDJdYzZjKGMoW09IXSlbY0hdW2NIXWM1NilPW0NIXTRDKD1PKVtDSDJdMw==

>  <s_epik_cmdline>  (250) 
J2VwaWtfcHl0aG9uJywgJy1waHQnLCAnMi4wJywgJy1waCcsICc3LjAnLCAnLXRuJywgJzgnLCAnLW1hJywgJzIwMCcsICctaW1hZScsICc8aW5maWxlLm1hZT4nLCAnLW9tYWUnLCAnPG91dGZpbGUubWFlPic=

>  <r_lp_tautomer_probability>  (250) 
1

>  <r_epik_Ionization_Penalty>  (250) 
1.54562

>  <r_epik_Ionization_Penalty_Charging>  (250) 
0

>  <r_epik_Ionization_Penalty_Neutral>  (250) 
1.54562

>  <r_epik_State_Penalty>  (250) 
1.63923

>  <r_epik_Charging_Adjusted_Penalty>  (250) 
1.63923

>  <i_epik_Tot_Q>  (250) 
0

>  <i_epik_Tot_abs_Q>  (250) 
0

>  <s_lp_Force_Field>  (250) 
OPLS3e

>  <r_lp_Energy>  (250) 
260.151

>  <b_lp_Chiralities_Consistent>  (250) 
1

>  <s_lp_Variant>  (250) 
62:0-4

>  <s_i_glide_gridfile>  (250) 
pfpi4k_grid

>  <i_i_glide_lignum>  (250) 
15

>  <i_i_glide_rotatable_bonds>  (250) 
4

>  <r_i_docking_score>  (250) 
-3.18578

>  <r_i_glide_ligand_efficiency>  (250) 
-0.127431

>  <r_i_glide_ligand_efficiency_sa>  (250) 
-0.372611

>  <r_i_glide_ligand_efficiency_ln>  (250) 
-0.755126

>  <r_i_glide_gscore>  (250) 
-3.18578

>  <r_i_glide_lipo>  (250) 
-0.583886

>  <r_i_glide_hbond>  (250) 
0

>  <r_i_glide_metal>  (250) 
-0

>  <r_i_glide_rewards>  (250) 
-1.26085

>  <r_i_glide_evdw>  (250) 
-25.6352

>  <r_i_glide_ecoul>  (250) 
-2.58538

>  <r_i_glide_erotb>  (250) 
0.328519

>  <r_i_glide_esite>  (250) 
0

>  <r_i_glide_emodel>  (250) 
-33.5387

>  <r_i_glide_energy>  (250) 
-28.2206

>  <r_i_glide_einternal>  (250) 
0.129101

>  <r_i_glide_intrahb_reward>  (250) 
-0

>  <i_i_glide_confnum>  (250) 
2

>  <i_i_glide_posenum>  (250) 
20

>  <r_i_glide_eff_state_penalty>  (250) 
0

>  <ligand_id>  (250) 
62

>  <original_smiles>  (250) 
CCC12CC(=O)C3Oc4c(O)ccc5c4CC1N(CC1CC1)CCC532

>  <smiles>  (250) 
[H]Oc1c([H])c([H])c2c3c1OC1([H])C(=O)C([H])([H])C4(C([H])([H])C([H])([H])[H])C([H])(N(C([H])([H])C5([H])C([H])([H])C5([H])[H])C([H])([H])C([H])([H])C214)C3([H])[H]

$$$$
63:0:0
     RDKit          3D

 67 71  0  0  1  0  0  0  0  0999 V2000
    4.5771   -1.1100    8.0840 C   0  0  0  0  0  0  0  0  0  0  0  0
    3.6256   -1.2742    6.8917 C   0  0  2  0  0  0  0  0  0  0  0  0
    4.4095   -1.3322    5.5331 C   0  0  0  0  0  0  0  0  0  0  0  0
    4.2055   -0.1033    4.5578 C   0  0  0  0  0  0  0  0  0  0  0  0
    2.7062    0.4058    4.3591 C   0  0  1  0  0  0  0  0  0  0  0  0
    2.2185    0.1768    2.9156 C   0  0  1  0  0  0  0  0  0  0  0  0
    2.9474    1.0454    1.8923 C   0  0  0  0  0  0  0  0  0  0  0  0
    2.1511   -1.3262    2.5697 C   0  0  1  0  0  0  0  0  0  0  0  0
    3.4613   -1.8083    2.2256 O   0  0  0  0  0  0  0  0  0  0  0  0
    3.6677   -2.1619    0.8776 C   0  0  2  0  0  0  0  0  0  0  0  0
    3.2409   -3.4797    0.6194 O   0  0  0  0  0  0  0  0  0  0  0  0
    3.3741   -3.9410   -0.7183 C   0  0  1  0  0  0  0  0  0  0  0  0
    2.3184   -3.3254   -1.6728 C   0  0  0  0  0  0  0  0  0  0  0  0
    1.0734   -4.0291   -1.6024 O   0  0  0  0  0  0  0  0  0  0  0  0
    4.8284   -3.8101   -1.1732 C   0  0  1  0  0  0  0  0  0  0  0  0
    4.9949   -4.2319   -2.5124 O   0  0  0  0  0  0  0  0  0  0  0  0
    5.3760   -2.3942   -0.9510 C   0  0  1  0  0  0  0  0  0  0  0  0
    4.7598   -1.4502   -1.8445 O   0  0  0  0  0  0  0  0  0  0  0  0
    5.1681   -1.9901    0.5154 C   0  0  1  0  0  0  0  0  0  0  0  0
    5.5217   -0.6191    0.6804 O   0  0  0  0  0  0  0  0  0  0  0  0
    1.5711   -2.1972    3.6940 C   0  0  0  0  0  0  0  0  0  0  0  0
    0.9323   -1.3788    4.8255 C   0  0  2  0  0  0  0  0  0  0  0  0
   -0.1879   -0.6603    4.2257 O   0  0  0  0  0  0  0  0  0  0  0  0
   -0.8569    0.4061    4.8984 C   0  0  0  0  0  0  0  0  0  0  0  0
   -1.2895    1.3963    3.8072 C   0  0  0  0  0  0  0  0  0  0  0  0
   -2.0882   -0.2007    5.5920 C   0  0  0  0  0  0  0  0  0  0  0  0
   -0.0721    1.1232    5.8490 O   0  0  0  0  0  0  0  0  0  0  0  0
    0.7519    0.1844    6.4754 C   0  0  2  0  0  0  0  0  0  0  0  0
    1.6698    0.4591    7.5255 O   0  0  0  0  0  0  0  0  0  0  0  0
    2.6936   -0.1123    6.6957 C   0  0  2  0  0  0  0  0  0  0  0  0
    1.8071   -0.2673    5.4482 C   0  0  2  0  0  0  0  0  0  0  0  0
    5.2163   -0.2286    7.9967 H   0  0  0  0  0  0  0  0  0  0  0  0
    5.2205   -1.9863    8.1565 H   0  0  0  0  0  0  0  0  0  0  0  0
    4.0156   -1.0353    9.0145 H   0  0  0  0  0  0  0  0  0  0  0  0
    3.0596   -2.2039    7.0253 H   0  0  0  0  0  0  0  0  0  0  0  0
    5.4795   -1.4326    5.7161 H   0  0  0  0  0  0  0  0  0  0  0  0
    4.1306   -2.2407    5.0018 H   0  0  0  0  0  0  0  0  0  0  0  0
    4.7802    0.7293    4.9721 H   0  0  0  0  0  0  0  0  0  0  0  0
    4.7103   -0.3355    3.6243 H   0  0  0  0  0  0  0  0  0  0  0  0
    2.6899    1.4887    4.5064 H   0  0  0  0  0  0  0  0  0  0  0  0
    1.2001    0.5566    2.8732 H   0  0  0  0  0  0  0  0  0  0  0  0
    4.0075    0.8086    1.8473 H   0  0  0  0  0  0  0  0  0  0  0  0
    2.8244    2.1073    2.1433 H   0  0  0  0  0  0  0  0  0  0  0  0
    2.5108    0.9078    0.9070 H   0  0  0  0  0  0  0  0  0  0  0  0
    1.4858   -1.4510    1.7204 H   0  0  0  0  0  0  0  0  0  0  0  0
    3.0545   -1.5120    0.2392 H   0  0  0  0  0  0  0  0  0  0  0  0
    3.2200   -5.0242   -0.6537 H   0  0  0  0  0  0  0  0  0  0  0  0
    2.1892   -2.2651   -1.5144 H   0  0  0  0  0  0  0  0  0  0  0  0
    2.6148   -3.4571   -2.7197 H   0  0  0  0  0  0  0  0  0  0  0  0
    0.7561   -4.2396   -2.4786 H   0  0  0  0  0  0  0  0  0  0  0  0
    5.4364   -4.4642   -0.5632 H   0  0  0  0  0  0  0  0  0  0  0  0
    4.5389   -5.0905   -2.6474 H   0  0  0  0  0  0  0  0  0  0  0  0
    6.4406   -2.4061   -1.1631 H   0  0  0  0  0  0  0  0  0  0  0  0
    3.8002   -1.5162   -1.8281 H   0  0  0  0  0  0  0  0  0  0  0  0
    5.8383   -2.5888    1.1530 H   0  0  0  0  0  0  0  0  0  0  0  0
    4.9770   -0.1195    0.0681 H   0  0  0  0  0  0  0  0  0  0  0  0
    0.8119   -2.8662    3.2840 H   0  0  0  0  0  0  0  0  0  0  0  0
    2.3133   -2.8704    4.1071 H   0  0  0  0  0  0  0  0  0  0  0  0
    0.5767   -2.1092    5.5631 H   0  0  0  0  0  0  0  0  0  0  0  0
   -0.4224    1.9272    3.4025 H   0  0  0  0  0  0  0  0  0  0  0  0
   -1.9941    2.1191    4.2212 H   0  0  0  0  0  0  0  0  0  0  0  0
   -1.7777    0.8361    3.0081 H   0  0  0  0  0  0  0  0  0  0  0  0
   -1.8188   -1.0956    6.1475 H   0  0  0  0  0  0  0  0  0  0  0  0
   -2.8006   -0.5000    4.8288 H   0  0  0  0  0  0  0  0  0  0  0  0
   -2.5651    0.5334    6.2437 H   0  0  0  0  0  0  0  0  0  0  0  0
    0.1562   -0.6174    6.8877 H   0  0  0  0  0  0  0  0  0  0  0  0
    3.3209    0.7859    6.6026 H   0  0  0  0  0  0  0  0  0  0  0  0
  1  2  1  0
  1 32  1  0
  1 33  1  0
  1 34  1  0
  2 30  1  0
  2  3  1  0
  2 35  1  1
  3  4  1  0
  3 36  1  0
  3 37  1  0
  4  5  1  0
  4 38  1  0
  4 39  1  0
  5 31  1  0
  5  6  1  0
  5 40  1  1
  6  7  1  0
  6  8  1  0
  6 41  1  1
  7 42  1  0
  7 43  1  0
  7 44  1  0
  8  9  1  0
  8 21  1  0
  8 45  1  6
  9 10  1  0
 10 19  1  0
 10 11  1  0
 10 46  1  6
 11 12  1  0
 12 13  1  0
 12 15  1  0
 12 47  1  1
 13 14  1  0
 13 48  1  0
 13 49  1  0
 14 50  1  0
 15 16  1  0
 15 17  1  0
 15 51  1  1
 16 52  1  0
 17 18  1  0
 17 19  1  0
 17 53  1  6
 18 54  1  0
 19 20  1  0
 19 55  1  1
 20 56  1  0
 21 22  1  0
 21 57  1  0
 21 58  1  0
 31 22  1  6
 22 23  1  0
 22 59  1  1
 23 24  1  0
 24 25  1  0
 24 26  1  0
 24 27  1  0
 25 60  1  0
 25 61  1  0
 25 62  1  0
 26 63  1  0
 26 64  1  0
 26 65  1  0
 27 28  1  0
 28 31  1  0
 28 29  1  0
 28 66  1  1
 29 30  1  0
 30 31  1  0
 30 67  1  6
M  END
>  <i_m_ct_stereo_status>  (251) 
1

>  <s_m_source_file>  (251) 
/var/tmp/pbs.5076255.sched01/tmpn8rdt6mw/90ee43ygr2.sdf

>  <i_m_source_file_index>  (251) 
16

>  <i_lp_mmshare_version>  (251) 
48012

>  <i_f3d_flags>  (251) 
0

>  <s_epik_input>  (251) 
W0NAQF0xMjNbQ0BIXTRbQ0gyXVtDSDJdW0NAQEhdKFtDSDNdKVtDQEBIXTNPW0NASF0yT0MoW0NIM10pKFtDSDNdKU9bQ0BIXTFbQ0gyXVtDQEBIXShbQ0BASF00W0NIM10pT1tDQEBIXTVPW0NAQEhdKFtDSDJdW09IXSlbQ0BASF0oW09IXSlbQ0BASF0oW09IXSlbQ0BIXTVbT0hd

>  <s_epik_cmdline>  (251) 
J2VwaWtfcHl0aG9uJywgJy1waHQnLCAnMi4wJywgJy1waCcsICc3LjAnLCAnLXRuJywgJzgnLCAnLW1hJywgJzIwMCcsICctaW1hZScsICc8aW5maWxlLm1hZT4nLCAnLW9tYWUnLCAnPG91dGZpbGUubWFlPic=

>  <r_lp_tautomer_probability>  (251) 
1

>  <r_epik_Ionization_Penalty>  (251) 
2.60605e-06

>  <r_epik_Ionization_Penalty_Charging>  (251) 
0

>  <r_epik_Ionization_Penalty_Neutral>  (251) 
2.60605e-06

>  <r_epik_State_Penalty>  (251) 
-0

>  <r_epik_Charging_Adjusted_Penalty>  (251) 
0

>  <i_epik_Tot_Q>  (251) 
0

>  <i_epik_Tot_abs_Q>  (251) 
0

>  <s_epik_Chemistry_Notes>  (251) 
This compound contains an acetal/aminal-like group ( X-CH(R)-Y where X, Y are N, S, or O) that may be acid/base labile, releasing an aldehyde.

>  <s_lp_Force_Field>  (251) 
OPLS3e

>  <r_lp_Energy>  (251) 
121.171

>  <b_lp_Chiralities_Consistent>  (251) 
1

>  <s_lp_Variant>  (251) 
63:0-1

>  <s_i_glide_gridfile>  (251) 
pfpi4k_grid

>  <i_i_glide_lignum>  (251) 
16

>  <i_i_glide_rotatable_bonds>  (251) 
7

>  <r_i_docking_score>  (251) 
-3.09813

>  <r_i_glide_ligand_efficiency>  (251) 
-0.0999396

>  <r_i_glide_ligand_efficiency_sa>  (251) 
-0.313948

>  <r_i_glide_ligand_efficiency_ln>  (251) 
-0.698723

>  <r_i_glide_gscore>  (251) 
-3.09813

>  <r_i_glide_lipo>  (251) 
-0.290232

>  <r_i_glide_hbond>  (251) 
0

>  <r_i_glide_metal>  (251) 
-0

>  <r_i_glide_rewards>  (251) 
-0.378301

>  <r_i_glide_evdw>  (251) 
-18.5455

>  <r_i_glide_ecoul>  (251) 
-11.6984

>  <r_i_glide_erotb>  (251) 
0.303661

>  <r_i_glide_esite>  (251) 
-0.051225

>  <r_i_glide_emodel>  (251) 
-32.768

>  <r_i_glide_energy>  (251) 
-30.2439

>  <r_i_glide_einternal>  (251) 
6.38397

>  <r_i_glide_intrahb_reward>  (251) 
-0

>  <i_i_glide_confnum>  (251) 
2

>  <i_i_glide_posenum>  (251) 
26

>  <r_i_glide_eff_state_penalty>  (251) 
0

>  <ligand_id>  (251) 
63

>  <original_smiles>  (251) 
CC1CCC2C(C)C(OC3OC(CO)C(O)C(O)C3O)CC3OC(C)(C)OC4OC1C342

>  <smiles>  (251) 
[H]OC([H])([H])C1([H])OC([H])(OC2([H])C([H])([H])C3([H])OC(C([H])([H])[H])(C([H])([H])[H])OC4([H])OC5([H])C([H])(C([H])([H])[H])C([H])([H])C([H])([H])C([H])(C2([H])C([H])([H])[H])C435)C([H])(O[H])C([H])(O[H])C1([H])O[H]

$$$$
63:0:1
     RDKit          3D

 67 71  0  0  1  0  0  0  0  0999 V2000
   -1.4466   -3.8667   10.4514 C   0  0  0  0  0  0  0  0  0  0  0  0
   -0.9719   -4.1108    9.0105 C   0  0  2  0  0  0  0  0  0  0  0  0
   -0.3382   -5.5390    8.8457 C   0  0  0  0  0  0  0  0  0  0  0  0
    1.2135   -5.5774    8.5602 C   0  0  0  0  0  0  0  0  0  0  0  0
    1.7547   -4.5544    7.4711 C   0  0  1  0  0  0  0  0  0  0  0  0
    2.2795   -5.3371    6.2448 C   0  0  1  0  0  0  0  0  0  0  0  0
    3.5293   -6.1881    6.5042 C   0  0  0  0  0  0  0  0  0  0  0  0
    1.1504   -6.0481    5.4628 C   0  0  1  0  0  0  0  0  0  0  0  0
    0.7659   -7.2976    6.0723 O   0  0  0  0  0  0  0  0  0  0  0  0
    1.1640   -8.4510    5.3677 C   0  0  2  0  0  0  0  0  0  0  0  0
    0.8517   -8.3586    3.9932 O   0  0  0  0  0  0  0  0  0  0  0  0
    1.2379   -9.4575    3.1708 C   0  0  1  0  0  0  0  0  0  0  0  0
    2.7948   -9.5417    3.0201 C   0  0  0  0  0  0  0  0  0  0  0  0
    3.2258   -9.2599    1.6874 O   0  0  0  0  0  0  0  0  0  0  0  0
    0.5157  -10.6992    3.7085 C   0  0  1  0  0  0  0  0  0  0  0  0
    0.8309  -11.8598    2.9322 O   0  0  0  0  0  0  0  0  0  0  0  0
    0.8151  -10.9604    5.1760 C   0  0  1  0  0  0  0  0  0  0  0  0
    2.1700  -11.3524    5.2962 O   0  0  0  0  0  0  0  0  0  0  0  0
    0.4911   -9.6964    6.0021 C   0  0  1  0  0  0  0  0  0  0  0  0
    0.8793   -9.8438    7.3669 O   0  0  0  0  0  0  0  0  0  0  0  0
   -0.1426   -5.2438    5.3557 C   0  0  0  0  0  0  0  0  0  0  0  0
    0.0006   -3.7779    5.7642 C   0  0  2  0  0  0  0  0  0  0  0  0
    0.9258   -3.1987    4.8079 O   0  0  0  0  0  0  0  0  0  0  0  0
    1.4987   -1.9063    5.0041 C   0  0  0  0  0  0  0  0  0  0  0  0
    2.8987   -1.9622    4.3814 C   0  0  0  0  0  0  0  0  0  0  0  0
    0.6216   -0.8883    4.2471 C   0  0  0  0  0  0  0  0  0  0  0  0
    1.6525   -1.5125    6.3692 O   0  0  0  0  0  0  0  0  0  0  0  0
    0.5136   -1.9750    7.0392 C   0  0  2  0  0  0  0  0  0  0  0  0
    0.1941   -1.7565    8.4177 O   0  0  0  0  0  0  0  0  0  0  0  0
    0.1244   -3.1819    8.5660 C   0  0  2  0  0  0  0  0  0  0  0  0
    0.6334   -3.5085    7.1453 C   0  0  2  0  0  0  0  0  0  0  0  0
   -0.6462   -4.0003   11.1806 H   0  0  0  0  0  0  0  0  0  0  0  0
   -2.2491   -4.5603   10.7019 H   0  0  0  0  0  0  0  0  0  0  0  0
   -1.8328   -2.8562   10.5709 H   0  0  0  0  0  0  0  0  0  0  0  0
   -1.8343   -4.0303    8.3419 H   0  0  0  0  0  0  0  0  0  0  0  0
   -0.5256   -6.1419    9.7326 H   0  0  0  0  0  0  0  0  0  0  0  0
   -0.8478   -6.0582    8.0408 H   0  0  0  0  0  0  0  0  0  0  0  0
    1.7195   -5.3503    9.4982 H   0  0  0  0  0  0  0  0  0  0  0  0
    1.4978   -6.6080    8.3408 H   0  0  0  0  0  0  0  0  0  0  0  0
    2.6181   -4.0292    7.8931 H   0  0  0  0  0  0  0  0  0  0  0  0
    2.6705   -4.5708    5.5835 H   0  0  0  0  0  0  0  0  0  0  0  0
    3.3254   -7.0572    7.1264 H   0  0  0  0  0  0  0  0  0  0  0  0
    4.3076   -5.6024    6.9930 H   0  0  0  0  0  0  0  0  0  0  0  0
    3.9522   -6.5463    5.5628 H   0  0  0  0  0  0  0  0  0  0  0  0
    1.5471   -6.2069    4.4598 H   0  0  0  0  0  0  0  0  0  0  0  0
    2.2588   -8.4906    5.4627 H   0  0  0  0  0  0  0  0  0  0  0  0
    0.8067   -9.2638    2.1957 H   0  0  0  0  0  0  0  0  0  0  0  0
    3.3314   -8.8918    3.7213 H   0  0  0  0  0  0  0  0  0  0  0  0
    3.1529  -10.5457    3.2350 H   0  0  0  0  0  0  0  0  0  0  0  0
    3.2754  -10.0978    1.1823 H   0  0  0  0  0  0  0  0  0  0  0  0
   -0.5529  -10.5371    3.6113 H   0  0  0  0  0  0  0  0  0  0  0  0
    1.7354  -12.1111    3.1012 H   0  0  0  0  0  0  0  0  0  0  0  0
    0.1817  -11.7762    5.5193 H   0  0  0  0  0  0  0  0  0  0  0  0
    2.2555  -11.7505    6.1982 H   0  0  0  0  0  0  0  0  0  0  0  0
   -0.5828   -9.5546    6.0152 H   0  0  0  0  0  0  0  0  0  0  0  0
    1.0119  -10.7996    7.5857 H   0  0  0  0  0  0  0  0  0  0  0  0
   -0.5124   -5.3150    4.3365 H   0  0  0  0  0  0  0  0  0  0  0  0
   -0.9264   -5.6977    5.9532 H   0  0  0  0  0  0  0  0  0  0  0  0
   -0.9981   -3.3397    5.6682 H   0  0  0  0  0  0  0  0  0  0  0  0
    3.5538   -2.6099    4.9657 H   0  0  0  0  0  0  0  0  0  0  0  0
    3.3292   -0.9593    4.3418 H   0  0  0  0  0  0  0  0  0  0  0  0
    2.8288   -2.3563    3.3681 H   0  0  0  0  0  0  0  0  0  0  0  0
   -0.4351   -1.0122    4.4731 H   0  0  0  0  0  0  0  0  0  0  0  0
    0.7439   -1.0434    3.1766 H   0  0  0  0  0  0  0  0  0  0  0  0
    0.9301    0.1318    4.4832 H   0  0  0  0  0  0  0  0  0  0  0  0
   -0.3708   -1.5985    6.5353 H   0  0  0  0  0  0  0  0  0  0  0  0
    0.9345   -3.2952    9.2995 H   0  0  0  0  0  0  0  0  0  0  0  0
  1  2  1  0
  1 32  1  0
  1 33  1  0
  1 34  1  0
  2 30  1  0
  2  3  1  0
  2 35  1  6
  3  4  1  0
  3 36  1  0
  3 37  1  0
  4  5  1  0
  4 38  1  0
  4 39  1  0
  5 31  1  0
  5  6  1  0
  5 40  1  1
  6  7  1  0
  6  8  1  0
  6 41  1  6
  7 42  1  0
  7 43  1  0
  7 44  1  0
  8  9  1  0
  8 21  1  0
  8 45  1  6
  9 10  1  0
 10 19  1  0
 10 11  1  0
 10 46  1  6
 11 12  1  0
 12 13  1  0
 12 15  1  0
 12 47  1  6
 13 14  1  0
 13 48  1  0
 13 49  1  0
 14 50  1  0
 15 16  1  0
 15 17  1  0
 15 51  1  1
 16 52  1  0
 17 18  1  0
 17 19  1  0
 17 53  1  1
 18 54  1  0
 19 20  1  0
 19 55  1  1
 20 56  1  0
 21 22  1  0
 21 57  1  0
 21 58  1  0
 31 22  1  6
 22 23  1  0
 22 59  1  1
 23 24  1  0
 24 25  1  0
 24 26  1  0
 24 27  1  0
 25 60  1  0
 25 61  1  0
 25 62  1  0
 26 63  1  0
 26 64  1  0
 26 65  1  0
 27 28  1  0
 28 31  1  0
 28 29  1  0
 28 66  1  6
 29 30  1  0
 30 31  1  0
 30 67  1  1
M  END
>  <i_m_ct_stereo_status>  (252) 
1

>  <s_m_source_file>  (252) 
/var/tmp/pbs.5076255.sched01/tmpn8rdt6mw/90ee43ygr2.sdf

>  <i_m_source_file_index>  (252) 
16

>  <i_lp_mmshare_version>  (252) 
48012

>  <i_f3d_flags>  (252) 
0

>  <s_epik_input>  (252) 
W0NAQF0xMjNbQ0BIXTRbQ0gyXVtDSDJdW0NAQEhdKFtDSDNdKVtDQEBIXTNPW0NASF0yT0MoW0NIM10pKFtDSDNdKU9bQ0BIXTFbQ0gyXVtDQEBIXShbQ0BASF00W0NIM10pT1tDQEBIXTVPW0NAQEhdKFtDSDJdW09IXSlbQ0BASF0oW09IXSlbQ0BASF0oW09IXSlbQ0BIXTVbT0hd

>  <s_epik_cmdline>  (252) 
J2VwaWtfcHl0aG9uJywgJy1waHQnLCAnMi4wJywgJy1waCcsICc3LjAnLCAnLXRuJywgJzgnLCAnLW1hJywgJzIwMCcsICctaW1hZScsICc8aW5maWxlLm1hZT4nLCAnLW9tYWUnLCAnPG91dGZpbGUubWFlPic=

>  <r_lp_tautomer_probability>  (252) 
1

>  <r_epik_Ionization_Penalty>  (252) 
2.60605e-06

>  <r_epik_Ionization_Penalty_Charging>  (252) 
0

>  <r_epik_Ionization_Penalty_Neutral>  (252) 
2.60605e-06

>  <r_epik_State_Penalty>  (252) 
-0

>  <r_epik_Charging_Adjusted_Penalty>  (252) 
0

>  <i_epik_Tot_Q>  (252) 
0

>  <i_epik_Tot_abs_Q>  (252) 
0

>  <s_epik_Chemistry_Notes>  (252) 
This compound contains an acetal/aminal-like group ( X-CH(R)-Y where X, Y are N, S, or O) that may be acid/base labile, releasing an aldehyde.

>  <s_lp_Force_Field>  (252) 
OPLS3e

>  <r_lp_Energy>  (252) 
121.171

>  <b_lp_Chiralities_Consistent>  (252) 
1

>  <s_lp_Variant>  (252) 
63:0-1

>  <s_i_glide_gridfile>  (252) 
pfpi4k_grid

>  <i_i_glide_lignum>  (252) 
16

>  <i_i_glide_rotatable_bonds>  (252) 
7

>  <r_i_docking_score>  (252) 
-2.94596

>  <r_i_glide_ligand_efficiency>  (252) 
-0.095031

>  <r_i_glide_ligand_efficiency_sa>  (252) 
-0.298529

>  <r_i_glide_ligand_efficiency_ln>  (252) 
-0.664405

>  <r_i_glide_gscore>  (252) 
-2.94596

>  <r_i_glide_lipo>  (252) 
0

>  <r_i_glide_hbond>  (252) 
-0.0924433

>  <r_i_glide_metal>  (252) 
-0

>  <r_i_glide_rewards>  (252) 
-0.378301

>  <r_i_glide_evdw>  (252) 
-15.8503

>  <r_i_glide_ecoul>  (252) 
-12.9396

>  <r_i_glide_erotb>  (252) 
0.303661

>  <r_i_glide_esite>  (252) 
-0.0454199

>  <r_i_glide_emodel>  (252) 
-29.5695

>  <r_i_glide_energy>  (252) 
-28.7899

>  <r_i_glide_einternal>  (252) 
8.70523

>  <r_i_glide_intrahb_reward>  (252) 
-0

>  <i_i_glide_confnum>  (252) 
2

>  <i_i_glide_posenum>  (252) 
25

>  <r_i_glide_eff_state_penalty>  (252) 
0

>  <ligand_id>  (252) 
63

>  <original_smiles>  (252) 
CC1CCC2C(C)C(OC3OC(CO)C(O)C(O)C3O)CC3OC(C)(C)OC4OC1C342

>  <smiles>  (252) 
[H]OC([H])([H])C1([H])OC([H])(OC2([H])C([H])([H])C3([H])OC(C([H])([H])[H])(C([H])([H])[H])OC4([H])OC5([H])C([H])(C([H])([H])[H])C([H])([H])C([H])([H])C([H])(C2([H])C([H])([H])[H])C435)C([H])(O[H])C([H])(O[H])C1([H])O[H]

$$$$
63:0:2
     RDKit          3D

 67 71  0  0  1  0  0  0  0  0999 V2000
    4.0035   -3.7653   10.2968 C   0  0  0  0  0  0  0  0  0  0  0  0
    3.5449   -3.5768    8.8417 C   0  0  2  0  0  0  0  0  0  0  0  0
    3.1949   -4.9412    8.1511 C   0  0  0  0  0  0  0  0  0  0  0  0
    4.1639   -5.3986    6.9950 C   0  0  0  0  0  0  0  0  0  0  0  0
    4.5542   -4.2791    5.9308 C   0  0  1  0  0  0  0  0  0  0  0  0
    3.9736   -4.6361    4.5392 C   0  0  1  0  0  0  0  0  0  0  0  0
    4.5872   -5.8899    3.8938 C   0  0  0  0  0  0  0  0  0  0  0  0
    2.4181   -4.5670    4.5079 C   0  0  1  0  0  0  0  0  0  0  0  0
    1.8426   -5.7634    5.0671 O   0  0  0  0  0  0  0  0  0  0  0  0
    1.3674   -6.6962    4.1287 C   0  0  2  0  0  0  0  0  0  0  0  0
    0.2188   -6.2261    3.4622 O   0  0  0  0  0  0  0  0  0  0  0  0
   -0.2881   -7.0784    2.4201 C   0  0  1  0  0  0  0  0  0  0  0  0
    0.7026   -7.1502    1.2157 C   0  0  0  0  0  0  0  0  0  0  0  0
    1.0140   -5.8830    0.6468 O   0  0  0  0  0  0  0  0  0  0  0  0
   -0.6785   -8.4297    3.0607 C   0  0  1  0  0  0  0  0  0  0  0  0
   -1.2754   -9.3067    2.0916 O   0  0  0  0  0  0  0  0  0  0  0  0
    0.4793   -9.0839    3.8308 C   0  0  1  0  0  0  0  0  0  0  0  0
    1.4619   -9.5554    2.9077 O   0  0  0  0  0  0  0  0  0  0  0  0
    1.0789   -8.0523    4.8284 C   0  0  1  0  0  0  0  0  0  0  0  0
    2.2679   -8.5343    5.4575 O   0  0  0  0  0  0  0  0  0  0  0  0
    1.8435   -3.3964    5.3122 C   0  0  0  0  0  0  0  0  0  0  0  0
    2.8824   -2.3516    5.7323 C   0  0  2  0  0  0  0  0  0  0  0  0
    3.3937   -1.7934    4.4901 O   0  0  0  0  0  0  0  0  0  0  0  0
    4.5513   -0.9645    4.4661 C   0  0  0  0  0  0  0  0  0  0  0  0
    5.2487   -1.2405    3.1240 C   0  0  0  0  0  0  0  0  0  0  0  0
    4.0809    0.5053    4.5166 C   0  0  0  0  0  0  0  0  0  0  0  0
    5.5036   -1.2128    5.4925 O   0  0  0  0  0  0  0  0  0  0  0  0
    4.7718   -1.4913    6.6570 C   0  0  2  0  0  0  0  0  0  0  0  0
    5.3277   -1.7489    7.9497 O   0  0  0  0  0  0  0  0  0  0  0  0
    4.5984   -2.9846    7.9444 C   0  0  2  0  0  0  0  0  0  0  0  0
    4.1318   -2.8793    6.4727 C   0  0  2  0  0  0  0  0  0  0  0  0
    4.8611   -4.4347   10.3779 H   0  0  0  0  0  0  0  0  0  0  0  0
    3.1928   -4.1899   10.8876 H   0  0  0  0  0  0  0  0  0  0  0  0
    4.2705   -2.8097   10.7460 H   0  0  0  0  0  0  0  0  0  0  0  0
    2.6566   -2.9376    8.8449 H   0  0  0  0  0  0  0  0  0  0  0  0
    3.1440   -5.7393    8.8891 H   0  0  0  0  0  0  0  0  0  0  0  0
    2.1864   -4.8856    7.7525 H   0  0  0  0  0  0  0  0  0  0  0  0
    5.0903   -5.7468    7.4605 H   0  0  0  0  0  0  0  0  0  0  0  0
    3.7547   -6.2884    6.5272 H   0  0  0  0  0  0  0  0  0  0  0  0
    5.6393   -4.2927    5.8124 H   0  0  0  0  0  0  0  0  0  0  0  0
    4.3280   -3.8507    3.8755 H   0  0  0  0  0  0  0  0  0  0  0  0
    4.2982   -6.8059    4.4051 H   0  0  0  0  0  0  0  0  0  0  0  0
    5.6760   -5.8436    3.8954 H   0  0  0  0  0  0  0  0  0  0  0  0
    4.2774   -5.9751    2.8516 H   0  0  0  0  0  0  0  0  0  0  0  0
    2.1049   -4.4568    3.4704 H   0  0  0  0  0  0  0  0  0  0  0  0
    2.1585   -6.7977    3.3783 H   0  0  0  0  0  0  0  0  0  0  0  0
   -1.2262   -6.6419    2.0913 H   0  0  0  0  0  0  0  0  0  0  0  0
    1.6429   -7.6102    1.4960 H   0  0  0  0  0  0  0  0  0  0  0  0
    0.2745   -7.7890    0.4387 H   0  0  0  0  0  0  0  0  0  0  0  0
    1.8362   -5.9637    0.1141 H   0  0  0  0  0  0  0  0  0  0  0  0
   -1.4367   -8.2201    3.8103 H   0  0  0  0  0  0  0  0  0  0  0  0
   -0.6597   -9.4903    1.3700 H   0  0  0  0  0  0  0  0  0  0  0  0
    0.0901   -9.9259    4.4148 H   0  0  0  0  0  0  0  0  0  0  0  0
    1.0703  -10.2360    2.3393 H   0  0  0  0  0  0  0  0  0  0  0  0
    0.3494   -7.8671    5.6174 H   0  0  0  0  0  0  0  0  0  0  0  0
    2.1028   -9.4126    5.8311 H   0  0  0  0  0  0  0  0  0  0  0  0
    1.0615   -2.9088    4.7288 H   0  0  0  0  0  0  0  0  0  0  0  0
    1.3255   -3.7552    6.1985 H   0  0  0  0  0  0  0  0  0  0  0  0
    2.3406   -1.5970    6.3019 H   0  0  0  0  0  0  0  0  0  0  0  0
    5.6707   -2.2455    3.1136 H   0  0  0  0  0  0  0  0  0  0  0  0
    6.0500   -0.5189    2.9602 H   0  0  0  0  0  0  0  0  0  0  0  0
    4.5263   -1.1574    2.3142 H   0  0  0  0  0  0  0  0  0  0  0  0
    3.3622    0.6696    5.3183 H   0  0  0  0  0  0  0  0  0  0  0  0
    3.5887    0.7564    3.5802 H   0  0  0  0  0  0  0  0  0  0  0  0
    4.9321    1.1743    4.6479 H   0  0  0  0  0  0  0  0  0  0  0  0
    4.0840   -0.6683    6.8608 H   0  0  0  0  0  0  0  0  0  0  0  0
    5.4635   -3.6549    8.0202 H   0  0  0  0  0  0  0  0  0  0  0  0
  1  2  1  0
  1 32  1  0
  1 33  1  0
  1 34  1  0
  2 30  1  0
  2  3  1  0
  2 35  1  1
  3  4  1  0
  3 36  1  0
  3 37  1  0
  4  5  1  0
  4 38  1  0
  4 39  1  0
  5 31  1  0
  5  6  1  0
  5 40  1  6
  6  7  1  0
  6  8  1  0
  6 41  1  6
  7 42  1  0
  7 43  1  0
  7 44  1  0
  8  9  1  0
  8 21  1  0
  8 45  1  6
  9 10  1  0
 10 19  1  0
 10 11  1  0
 10 46  1  6
 11 12  1  0
 12 13  1  0
 12 15  1  0
 12 47  1  6
 13 14  1  0
 13 48  1  0
 13 49  1  0
 14 50  1  0
 15 16  1  0
 15 17  1  0
 15 51  1  1
 16 52  1  0
 17 18  1  0
 17 19  1  0
 17 53  1  1
 18 54  1  0
 19 20  1  0
 19 55  1  1
 20 56  1  0
 21 22  1  0
 21 57  1  0
 21 58  1  0
 31 22  1  1
 22 23  1  0
 22 59  1  1
 23 24  1  0
 24 25  1  0
 24 26  1  0
 24 27  1  0
 25 60  1  0
 25 61  1  0
 25 62  1  0
 26 63  1  0
 26 64  1  0
 26 65  1  0
 27 28  1  0
 28 31  1  0
 28 29  1  0
 28 66  1  1
 29 30  1  0
 30 31  1  0
 30 67  1  6
M  END
>  <i_m_ct_stereo_status>  (253) 
1

>  <s_m_source_file>  (253) 
/var/tmp/pbs.5076255.sched01/tmpn8rdt6mw/90ee43ygr2.sdf

>  <i_m_source_file_index>  (253) 
16

>  <i_lp_mmshare_version>  (253) 
48012

>  <i_f3d_flags>  (253) 
0

>  <s_epik_input>  (253) 
W0NAQF0xMjNbQ0BIXTRbQ0gyXVtDSDJdW0NAQEhdKFtDSDNdKVtDQEBIXTNPW0NASF0yT0MoW0NIM10pKFtDSDNdKU9bQ0BIXTFbQ0gyXVtDQEBIXShbQ0BASF00W0NIM10pT1tDQEBIXTVPW0NAQEhdKFtDSDJdW09IXSlbQ0BASF0oW09IXSlbQ0BASF0oW09IXSlbQ0BIXTVbT0hd

>  <s_epik_cmdline>  (253) 
J2VwaWtfcHl0aG9uJywgJy1waHQnLCAnMi4wJywgJy1waCcsICc3LjAnLCAnLXRuJywgJzgnLCAnLW1hJywgJzIwMCcsICctaW1hZScsICc8aW5maWxlLm1hZT4nLCAnLW9tYWUnLCAnPG91dGZpbGUubWFlPic=

>  <r_lp_tautomer_probability>  (253) 
1

>  <r_epik_Ionization_Penalty>  (253) 
2.60605e-06

>  <r_epik_Ionization_Penalty_Charging>  (253) 
0

>  <r_epik_Ionization_Penalty_Neutral>  (253) 
2.60605e-06

>  <r_epik_State_Penalty>  (253) 
-0

>  <r_epik_Charging_Adjusted_Penalty>  (253) 
0

>  <i_epik_Tot_Q>  (253) 
0

>  <i_epik_Tot_abs_Q>  (253) 
0

>  <s_epik_Chemistry_Notes>  (253) 
This compound contains an acetal/aminal-like group ( X-CH(R)-Y where X, Y are N, S, or O) that may be acid/base labile, releasing an aldehyde.

>  <s_lp_Force_Field>  (253) 
OPLS3e

>  <r_lp_Energy>  (253) 
121.171

>  <b_lp_Chiralities_Consistent>  (253) 
1

>  <s_lp_Variant>  (253) 
63:0-1

>  <s_i_glide_gridfile>  (253) 
pfpi4k_grid

>  <i_i_glide_lignum>  (253) 
16

>  <i_i_glide_rotatable_bonds>  (253) 
7

>  <r_i_docking_score>  (253) 
-2.62982

>  <r_i_glide_ligand_efficiency>  (253) 
-0.0848329

>  <r_i_glide_ligand_efficiency_sa>  (253) 
-0.266492

>  <r_i_glide_ligand_efficiency_ln>  (253) 
-0.593105

>  <r_i_glide_gscore>  (253) 
-2.62982

>  <r_i_glide_lipo>  (253) 
-0.101449

>  <r_i_glide_hbond>  (253) 
-0.0513476

>  <r_i_glide_metal>  (253) 
-0

>  <r_i_glide_rewards>  (253) 
-0.416351

>  <r_i_glide_evdw>  (253) 
-14.5602

>  <r_i_glide_ecoul>  (253) 
-10.8521

>  <r_i_glide_erotb>  (253) 
0.303661

>  <r_i_glide_esite>  (253) 
-0.00851138

>  <r_i_glide_emodel>  (253) 
-29.9642

>  <r_i_glide_energy>  (253) 
-25.4122

>  <r_i_glide_einternal>  (253) 
1.40589

>  <r_i_glide_intrahb_reward>  (253) 
-0

>  <i_i_glide_confnum>  (253) 
1

>  <i_i_glide_posenum>  (253) 
2

>  <r_i_glide_eff_state_penalty>  (253) 
0

>  <ligand_id>  (253) 
63

>  <original_smiles>  (253) 
CC1CCC2C(C)C(OC3OC(CO)C(O)C(O)C3O)CC3OC(C)(C)OC4OC1C342

>  <smiles>  (253) 
[H]OC([H])([H])C1([H])OC([H])(OC2([H])C([H])([H])C3([H])OC(C([H])([H])[H])(C([H])([H])[H])OC4([H])OC5([H])C([H])(C([H])([H])[H])C([H])([H])C([H])([H])C([H])(C2([H])C([H])([H])[H])C435)C([H])(O[H])C([H])(O[H])C1([H])O[H]

$$$$
65:0:0
     RDKit          3D

 37 40  0  0  1  0  0  0  0  0999 V2000
   -0.3810    1.4682    5.6074 C   0  0  0  0  0  0  0  0  0  0  0  0
   -0.0634    1.8023    4.3390 C   0  0  0  0  0  0  0  0  0  0  0  0
    1.1010    1.1832    3.6890 C   0  0  0  0  0  0  0  0  0  0  0  0
    0.9824    0.7851    2.3473 C   0  0  0  0  0  0  0  0  0  0  0  0
    2.0727    0.2123    1.6844 C   0  0  0  0  0  0  0  0  0  0  0  0
    3.2773   -0.0205    2.3816 C   0  0  0  0  0  0  0  0  0  0  0  0
    3.4186    0.3627    3.7464 C   0  0  0  0  0  0  0  0  0  0  0  0
    4.7536   -0.0024    4.1129 C   0  0  0  0  0  0  0  0  0  0  0  0
    5.3818   -0.5540    3.1031 N   0  0  0  0  0  0  0  0  0  0  0  0
    4.5148   -0.5795    2.0508 N   0  0  0  0  0  0  0  0  0  0  0  0
    4.9512   -1.1269    0.8088 C   0  0  0  0  0  0  0  0  0  0  0  0
    6.3213   -1.3463    0.5417 C   0  0  0  0  0  0  0  0  0  0  0  0
    6.7590   -1.8581   -0.6321 N   0  0  0  0  0  0  0  0  0  0  0  0
    5.8295   -2.1961   -1.5269 C   0  0  0  0  0  0  0  0  0  0  0  0
    4.5175   -2.0193   -1.4043 N   0  0  0  0  0  0  0  0  0  0  0  0
    4.0715   -1.5027   -0.2404 C   0  0  0  0  0  0  0  0  0  0  0  0
    2.3139    0.9763    4.3878 C   0  0  0  0  0  0  0  0  0  0  0  0
   -0.8315    2.8919    3.5908 C   0  0  0  0  0  0  0  0  0  0  0  0
   -2.1908    3.2054    4.2197 C   0  0  0  0  0  0  0  0  0  0  0  0
   -2.0738    3.3473    5.7389 C   0  0  0  0  0  0  0  0  0  0  0  0
   -1.5384    2.0641    6.3852 C   0  0  0  0  0  0  0  0  0  0  0  0
    0.1876    0.7052    6.1218 H   0  0  0  0  0  0  0  0  0  0  0  0
    0.0620    0.9174    1.7967 H   0  0  0  0  0  0  0  0  0  0  0  0
    1.9284   -0.0281    0.6511 H   0  0  0  0  0  0  0  0  0  0  0  0
    5.2631    0.1188    5.0650 H   0  0  0  0  0  0  0  0  0  0  0  0
    7.0979   -1.1024    1.2524 H   0  0  0  0  0  0  0  0  0  0  0  0
    6.1739   -2.6018   -2.4653 H   0  0  0  0  0  0  0  0  0  0  0  0
    2.9944   -1.4416   -0.1738 H   0  0  0  0  0  0  0  0  0  0  0  0
    2.4203    1.2994    5.4146 H   0  0  0  0  0  0  0  0  0  0  0  0
   -0.1949    3.7778    3.5354 H   0  0  0  0  0  0  0  0  0  0  0  0
   -1.0292    2.5988    2.5610 H   0  0  0  0  0  0  0  0  0  0  0  0
   -2.5890    4.1123    3.7676 H   0  0  0  0  0  0  0  0  0  0  0  0
   -2.8875    2.4018    3.9751 H   0  0  0  0  0  0  0  0  0  0  0  0
   -1.3921    4.1693    5.9613 H   0  0  0  0  0  0  0  0  0  0  0  0
   -3.0388    3.6082    6.1694 H   0  0  0  0  0  0  0  0  0  0  0  0
   -2.3216    1.3077    6.4319 H   0  0  0  0  0  0  0  0  0  0  0  0
   -1.2126    2.2632    7.4062 H   0  0  0  0  0  0  0  0  0  0  0  0
  1 21  1  0
  1  2  2  0
  1 22  1  0
  2  3  1  0
  2 18  1  0
  3 17  1  0
  3  4  2  0
  4  5  1  0
  4 23  1  0
  5  6  2  0
  5 24  1  0
  6 10  1  0
  6  7  1  0
  7  8  1  0
  7 17  2  0
  8  9  2  0
  8 25  1  0
  9 10  1  0
 10 11  1  0
 11 16  1  0
 11 12  2  0
 12 13  1  0
 12 26  1  0
 13 14  2  0
 14 15  1  0
 14 27  1  0
 15 16  2  0
 16 28  1  0
 17 29  1  0
 18 19  1  0
 18 30  1  0
 18 31  1  0
 19 20  1  0
 19 32  1  0
 19 33  1  0
 20 21  1  0
 20 34  1  0
 20 35  1  0
 21 36  1  0
 21 37  1  0
M  END
>  <i_m_ct_stereo_status>  (254) 
1

>  <s_m_source_file>  (254) 
/var/tmp/pbs.5076255.sched01/tmpn8rdt6mw/90ee43ygr2.sdf

>  <i_m_source_file_index>  (254) 
18

>  <i_lp_mmshare_version>  (254) 
48012

>  <i_f3d_flags>  (254) 
0

>  <s_epik_input>  (254) 
W0NIMl0xW0NIMl1bQ0gyXVtDSDJdW0NIXT1DMWMoW2NIXVtjSF0yKVtjSF1jKGMyMylbY0hdbm4zLWM0W2NIXW5bY0hdbltjSF00

>  <s_epik_cmdline>  (254) 
J2VwaWtfcHl0aG9uJywgJy1waHQnLCAnMi4wJywgJy1waCcsICc3LjAnLCAnLXRuJywgJzgnLCAnLW1hJywgJzIwMCcsICctaW1hZScsICc8aW5maWxlLm1hZT4nLCAnLW9tYWUnLCAnPG91dGZpbGUubWFlPic=

>  <r_lp_tautomer_probability>  (254) 
1

>  <r_epik_Ionization_Penalty>  (254) 
2.37313e-07

>  <r_epik_Ionization_Penalty_Charging>  (254) 
0

>  <r_epik_Ionization_Penalty_Neutral>  (254) 
2.37313e-07

>  <r_epik_State_Penalty>  (254) 
-0

>  <r_epik_Charging_Adjusted_Penalty>  (254) 
0

>  <i_epik_Tot_Q>  (254) 
0

>  <i_epik_Tot_abs_Q>  (254) 
0

>  <s_lp_Force_Field>  (254) 
OPLS3e

>  <r_lp_Energy>  (254) 
38.3547

>  <b_lp_Chiralities_Consistent>  (254) 
1

>  <s_lp_Variant>  (254) 
65:0-1

>  <s_i_glide_gridfile>  (254) 
pfpi4k_grid

>  <i_i_glide_lignum>  (254) 
18

>  <i_i_glide_rotatable_bonds>  (254) 
2

>  <r_i_docking_score>  (254) 
-3.44601

>  <r_i_glide_ligand_efficiency>  (254) 
-0.164096

>  <r_i_glide_ligand_efficiency_sa>  (254) 
-0.452728

>  <r_i_glide_ligand_efficiency_ln>  (254) 
-0.852019

>  <r_i_glide_gscore>  (254) 
-3.44601

>  <r_i_glide_lipo>  (254) 
-0.23744

>  <r_i_glide_hbond>  (254) 
-0.16

>  <r_i_glide_metal>  (254) 
-0

>  <r_i_glide_rewards>  (254) 
-1.65153

>  <r_i_glide_evdw>  (254) 
-25.6975

>  <r_i_glide_ecoul>  (254) 
-3.58862

>  <r_i_glide_erotb>  (254) 
0.471176

>  <r_i_glide_esite>  (254) 
-0.0450544

>  <r_i_glide_emodel>  (254) 
-35.1124

>  <r_i_glide_energy>  (254) 
-29.2861

>  <r_i_glide_einternal>  (254) 
0.632847

>  <r_i_glide_intrahb_reward>  (254) 
-0

>  <i_i_glide_confnum>  (254) 
4

>  <i_i_glide_posenum>  (254) 
9

>  <r_i_glide_eff_state_penalty>  (254) 
0

>  <ligand_id>  (254) 
65

>  <original_smiles>  (254) 
C1=C(c2ccc3c(cnn3-c3cncnc3)c2)CCCC1

>  <smiles>  (254) 
[H]C1=C(c2c([H])c([H])c3c(c([H])nn3-c3c([H])nc([H])nc3[H])c2[H])C([H])([H])C([H])([H])C([H])([H])C1([H])[H]

$$$$
65:0:1
     RDKit          3D

 37 40  0  0  1  0  0  0  0  0999 V2000
   -0.3655    3.2905    3.8431 C   0  0  0  0  0  0  0  0  0  0  0  0
    0.2170    2.2184    4.4209 C   0  0  0  0  0  0  0  0  0  0  0  0
    1.2666    1.4896    3.7060 C   0  0  0  0  0  0  0  0  0  0  0  0
    1.0981    1.1444    2.3502 C   0  0  0  0  0  0  0  0  0  0  0  0
    2.1145    0.4506    1.6771 C   0  0  0  0  0  0  0  0  0  0  0  0
    3.2946    0.0901    2.3651 C   0  0  0  0  0  0  0  0  0  0  0  0
    3.4821    0.4327    3.7349 C   0  0  0  0  0  0  0  0  0  0  0  0
    4.7714   -0.0723    4.0947 C   0  0  0  0  0  0  0  0  0  0  0  0
    5.3493   -0.6538    3.0740 N   0  0  0  0  0  0  0  0  0  0  0  0
    4.4765   -0.5748    2.0279 N   0  0  0  0  0  0  0  0  0  0  0  0
    4.8648   -1.1244    0.7766 C   0  0  0  0  0  0  0  0  0  0  0  0
    6.2236   -1.3339    0.4546 C   0  0  0  0  0  0  0  0  0  0  0  0
    6.6115   -1.8561   -0.7317 N   0  0  0  0  0  0  0  0  0  0  0  0
    5.6394   -2.2036   -1.5772 C   0  0  0  0  0  0  0  0  0  0  0  0
    4.3342   -2.0425   -1.3931 N   0  0  0  0  0  0  0  0  0  0  0  0
    3.9363   -1.5178   -0.2179 C   0  0  0  0  0  0  0  0  0  0  0  0
    2.4513    1.1417    4.3866 C   0  0  0  0  0  0  0  0  0  0  0  0
   -0.2822    1.6622    5.7501 C   0  0  0  0  0  0  0  0  0  0  0  0
   -1.1634    2.6504    6.5232 C   0  0  0  0  0  0  0  0  0  0  0  0
   -2.1925    3.3107    5.6022 C   0  0  0  0  0  0  0  0  0  0  0  0
   -1.5089    4.0702    4.4554 C   0  0  0  0  0  0  0  0  0  0  0  0
   -0.0073    3.6516    2.8858 H   0  0  0  0  0  0  0  0  0  0  0  0
    0.1918    1.4066    1.8225 H   0  0  0  0  0  0  0  0  0  0  0  0
    1.9462    0.2113    0.6407 H   0  0  0  0  0  0  0  0  0  0  0  0
    5.2829   -0.0224    5.0495 H   0  0  0  0  0  0  0  0  0  0  0  0
    7.0253   -1.0680    1.1317 H   0  0  0  0  0  0  0  0  0  0  0  0
    5.9401   -2.6242   -2.5259 H   0  0  0  0  0  0  0  0  0  0  0  0
    2.8686   -1.4601   -0.0811 H   0  0  0  0  0  0  0  0  0  0  0  0
    2.5951    1.4252    5.4159 H   0  0  0  0  0  0  0  0  0  0  0  0
   -0.8197    0.7348    5.5420 H   0  0  0  0  0  0  0  0  0  0  0  0
    0.5627    1.4012    6.3883 H   0  0  0  0  0  0  0  0  0  0  0  0
   -1.6572    2.1356    7.3462 H   0  0  0  0  0  0  0  0  0  0  0  0
   -0.5300    3.4180    6.9696 H   0  0  0  0  0  0  0  0  0  0  0  0
   -2.8436    2.5460    5.1814 H   0  0  0  0  0  0  0  0  0  0  0  0
   -2.8328    3.9790    6.1756 H   0  0  0  0  0  0  0  0  0  0  0  0
   -1.0962    5.0115    4.8135 H   0  0  0  0  0  0  0  0  0  0  0  0
   -2.2331    4.3017    3.6745 H   0  0  0  0  0  0  0  0  0  0  0  0
  1 21  1  0
  1  2  2  0
  1 22  1  0
  2  3  1  0
  2 18  1  0
  3 17  1  0
  3  4  2  0
  4  5  1  0
  4 23  1  0
  5  6  2  0
  5 24  1  0
  6 10  1  0
  6  7  1  0
  7  8  1  0
  7 17  2  0
  8  9  2  0
  8 25  1  0
  9 10  1  0
 10 11  1  0
 11 16  1  0
 11 12  2  0
 12 13  1  0
 12 26  1  0
 13 14  2  0
 14 15  1  0
 14 27  1  0
 15 16  2  0
 16 28  1  0
 17 29  1  0
 18 19  1  0
 18 30  1  0
 18 31  1  0
 19 20  1  0
 19 32  1  0
 19 33  1  0
 20 21  1  0
 20 34  1  0
 20 35  1  0
 21 36  1  0
 21 37  1  0
M  END
>  <i_m_ct_stereo_status>  (255) 
1

>  <s_m_source_file>  (255) 
/var/tmp/pbs.5076255.sched01/tmpn8rdt6mw/90ee43ygr2.sdf

>  <i_m_source_file_index>  (255) 
18

>  <i_lp_mmshare_version>  (255) 
48012

>  <i_f3d_flags>  (255) 
0

>  <s_epik_input>  (255) 
W0NIMl0xW0NIMl1bQ0gyXVtDSDJdW0NIXT1DMWMoW2NIXVtjSF0yKVtjSF1jKGMyMylbY0hdbm4zLWM0W2NIXW5bY0hdbltjSF00

>  <s_epik_cmdline>  (255) 
J2VwaWtfcHl0aG9uJywgJy1waHQnLCAnMi4wJywgJy1waCcsICc3LjAnLCAnLXRuJywgJzgnLCAnLW1hJywgJzIwMCcsICctaW1hZScsICc8aW5maWxlLm1hZT4nLCAnLW9tYWUnLCAnPG91dGZpbGUubWFlPic=

>  <r_lp_tautomer_probability>  (255) 
1

>  <r_epik_Ionization_Penalty>  (255) 
2.37313e-07

>  <r_epik_Ionization_Penalty_Charging>  (255) 
0

>  <r_epik_Ionization_Penalty_Neutral>  (255) 
2.37313e-07

>  <r_epik_State_Penalty>  (255) 
-0

>  <r_epik_Charging_Adjusted_Penalty>  (255) 
0

>  <i_epik_Tot_Q>  (255) 
0

>  <i_epik_Tot_abs_Q>  (255) 
0

>  <s_lp_Force_Field>  (255) 
OPLS3e

>  <r_lp_Energy>  (255) 
38.3547

>  <b_lp_Chiralities_Consistent>  (255) 
1

>  <s_lp_Variant>  (255) 
65:0-1

>  <s_i_glide_gridfile>  (255) 
pfpi4k_grid

>  <i_i_glide_lignum>  (255) 
18

>  <i_i_glide_rotatable_bonds>  (255) 
2

>  <r_i_docking_score>  (255) 
-3.43505

>  <r_i_glide_ligand_efficiency>  (255) 
-0.163574

>  <r_i_glide_ligand_efficiency_sa>  (255) 
-0.451288

>  <r_i_glide_ligand_efficiency_ln>  (255) 
-0.84931

>  <r_i_glide_gscore>  (255) 
-3.43505

>  <r_i_glide_lipo>  (255) 
-0.267692

>  <r_i_glide_hbond>  (255) 
-0.16

>  <r_i_glide_metal>  (255) 
-0

>  <r_i_glide_rewards>  (255) 
-1.64838

>  <r_i_glide_evdw>  (255) 
-24.7

>  <r_i_glide_ecoul>  (255) 
-3.69834

>  <r_i_glide_erotb>  (255) 
0.471176

>  <r_i_glide_esite>  (255) 
-0.0404021

>  <r_i_glide_emodel>  (255) 
-34.3751

>  <r_i_glide_energy>  (255) 
-28.3984

>  <r_i_glide_einternal>  (255) 
0.66914

>  <r_i_glide_intrahb_reward>  (255) 
-0

>  <i_i_glide_confnum>  (255) 
3

>  <i_i_glide_posenum>  (255) 
7

>  <r_i_glide_eff_state_penalty>  (255) 
0

>  <ligand_id>  (255) 
65

>  <original_smiles>  (255) 
C1=C(c2ccc3c(cnn3-c3cncnc3)c2)CCCC1

>  <smiles>  (255) 
[H]C1=C(c2c([H])c([H])c3c(c([H])nn3-c3c([H])nc([H])nc3[H])c2[H])C([H])([H])C([H])([H])C([H])([H])C1([H])[H]

$$$$
65:0:2
     RDKit          3D

 37 40  0  0  1  0  0  0  0  0999 V2000
    2.6663   -8.8078    3.2548 C   0  0  0  0  0  0  0  0  0  0  0  0
    1.5267   -8.5853    3.9479 C   0  0  0  0  0  0  0  0  0  0  0  0
    1.1028   -7.2070    4.2472 C   0  0  0  0  0  0  0  0  0  0  0  0
    1.4034   -6.1495    3.3617 C   0  0  0  0  0  0  0  0  0  0  0  0
    1.0274   -4.8364    3.6815 C   0  0  0  0  0  0  0  0  0  0  0  0
    0.3621   -4.5797    4.8978 C   0  0  0  0  0  0  0  0  0  0  0  0
    0.0426   -5.6258    5.8054 C   0  0  0  0  0  0  0  0  0  0  0  0
   -0.6330   -4.9965    6.9002 C   0  0  0  0  0  0  0  0  0  0  0  0
   -0.7601   -3.7061    6.7022 N   0  0  0  0  0  0  0  0  0  0  0  0
   -0.1613   -3.4404    5.5065 N   0  0  0  0  0  0  0  0  0  0  0  0
   -0.1823   -2.1208    4.9957 C   0  0  0  0  0  0  0  0  0  0  0  0
    0.8358   -1.6039    4.1620 C   0  0  0  0  0  0  0  0  0  0  0  0
    0.7812   -0.3525    3.6677 N   0  0  0  0  0  0  0  0  0  0  0  0
   -0.2711    0.3900    4.0069 C   0  0  0  0  0  0  0  0  0  0  0  0
   -1.2841    0.0192    4.7907 N   0  0  0  0  0  0  0  0  0  0  0  0
   -1.2417   -1.2344    5.2819 C   0  0  0  0  0  0  0  0  0  0  0  0
    0.4243   -6.9399    5.4566 C   0  0  0  0  0  0  0  0  0  0  0  0
    0.6336   -9.7484    4.3735 C   0  0  0  0  0  0  0  0  0  0  0  0
    0.9724  -11.0710    3.6707 C   0  0  0  0  0  0  0  0  0  0  0  0
    2.4846  -11.3034    3.6288 C   0  0  0  0  0  0  0  0  0  0  0  0
    3.1913  -10.1728    2.8709 C   0  0  0  0  0  0  0  0  0  0  0  0
    3.2868   -7.9857    2.9342 H   0  0  0  0  0  0  0  0  0  0  0  0
    1.9122   -6.3374    2.4275 H   0  0  0  0  0  0  0  0  0  0  0  0
    1.2538   -4.0515    2.9799 H   0  0  0  0  0  0  0  0  0  0  0  0
   -1.0348   -5.4469    7.7996 H   0  0  0  0  0  0  0  0  0  0  0  0
    1.7127   -2.1762    3.8930 H   0  0  0  0  0  0  0  0  0  0  0  0
   -0.3049    1.3927    3.6112 H   0  0  0  0  0  0  0  0  0  0  0  0
   -2.0743   -1.5296    5.9070 H   0  0  0  0  0  0  0  0  0  0  0  0
    0.1928   -7.7390    6.1397 H   0  0  0  0  0  0  0  0  0  0  0  0
    0.7074   -9.8731    5.4551 H   0  0  0  0  0  0  0  0  0  0  0  0
   -0.4052   -9.4974    4.1509 H   0  0  0  0  0  0  0  0  0  0  0  0
    0.4791  -11.8909    4.1906 H   0  0  0  0  0  0  0  0  0  0  0  0
    0.5748  -11.0597    2.6543 H   0  0  0  0  0  0  0  0  0  0  0  0
    2.8658  -11.3469    4.6492 H   0  0  0  0  0  0  0  0  0  0  0  0
    2.7140  -12.2583    3.1612 H   0  0  0  0  0  0  0  0  0  0  0  0
    3.0639  -10.2882    1.7933 H   0  0  0  0  0  0  0  0  0  0  0  0
    4.2627  -10.1992    3.0682 H   0  0  0  0  0  0  0  0  0  0  0  0
  1 21  1  0
  1  2  2  0
  1 22  1  0
  2  3  1  0
  2 18  1  0
  3 17  1  0
  3  4  2  0
  4  5  1  0
  4 23  1  0
  5  6  2  0
  5 24  1  0
  6 10  1  0
  6  7  1  0
  7  8  1  0
  7 17  2  0
  8  9  2  0
  8 25  1  0
  9 10  1  0
 10 11  1  0
 11 16  1  0
 11 12  2  0
 12 13  1  0
 12 26  1  0
 13 14  2  0
 14 15  1  0
 14 27  1  0
 15 16  2  0
 16 28  1  0
 17 29  1  0
 18 19  1  0
 18 30  1  0
 18 31  1  0
 19 20  1  0
 19 32  1  0
 19 33  1  0
 20 21  1  0
 20 34  1  0
 20 35  1  0
 21 36  1  0
 21 37  1  0
M  END
>  <i_m_ct_stereo_status>  (256) 
1

>  <s_m_source_file>  (256) 
/var/tmp/pbs.5076255.sched01/tmpn8rdt6mw/90ee43ygr2.sdf

>  <i_m_source_file_index>  (256) 
18

>  <i_lp_mmshare_version>  (256) 
48012

>  <i_f3d_flags>  (256) 
0

>  <s_epik_input>  (256) 
W0NIMl0xW0NIMl1bQ0gyXVtDSDJdW0NIXT1DMWMoW2NIXVtjSF0yKVtjSF1jKGMyMylbY0hdbm4zLWM0W2NIXW5bY0hdbltjSF00

>  <s_epik_cmdline>  (256) 
J2VwaWtfcHl0aG9uJywgJy1waHQnLCAnMi4wJywgJy1waCcsICc3LjAnLCAnLXRuJywgJzgnLCAnLW1hJywgJzIwMCcsICctaW1hZScsICc8aW5maWxlLm1hZT4nLCAnLW9tYWUnLCAnPG91dGZpbGUubWFlPic=

>  <r_lp_tautomer_probability>  (256) 
1

>  <r_epik_Ionization_Penalty>  (256) 
2.37313e-07

>  <r_epik_Ionization_Penalty_Charging>  (256) 
0

>  <r_epik_Ionization_Penalty_Neutral>  (256) 
2.37313e-07

>  <r_epik_State_Penalty>  (256) 
-0

>  <r_epik_Charging_Adjusted_Penalty>  (256) 
0

>  <i_epik_Tot_Q>  (256) 
0

>  <i_epik_Tot_abs_Q>  (256) 
0

>  <s_lp_Force_Field>  (256) 
OPLS3e

>  <r_lp_Energy>  (256) 
38.3547

>  <b_lp_Chiralities_Consistent>  (256) 
1

>  <s_lp_Variant>  (256) 
65:0-1

>  <s_i_glide_gridfile>  (256) 
pfpi4k_grid

>  <i_i_glide_lignum>  (256) 
18

>  <i_i_glide_rotatable_bonds>  (256) 
2

>  <r_i_docking_score>  (256) 
-2.59147

>  <r_i_glide_ligand_efficiency>  (256) 
-0.123403

>  <r_i_glide_ligand_efficiency_sa>  (256) 
-0.34046

>  <r_i_glide_ligand_efficiency_ln>  (256) 
-0.640735

>  <r_i_glide_gscore>  (256) 
-2.59147

>  <r_i_glide_lipo>  (256) 
-0.19692

>  <r_i_glide_hbond>  (256) 
0

>  <r_i_glide_metal>  (256) 
-0

>  <r_i_glide_rewards>  (256) 
-1.52498

>  <r_i_glide_evdw>  (256) 
-23.3337

>  <r_i_glide_ecoul>  (256) 
-0.989528

>  <r_i_glide_erotb>  (256) 
0.471176

>  <r_i_glide_esite>  (256) 
-0.025624

>  <r_i_glide_emodel>  (256) 
-29.0053

>  <r_i_glide_energy>  (256) 
-24.3233

>  <r_i_glide_einternal>  (256) 
0.203935

>  <r_i_glide_intrahb_reward>  (256) 
-0

>  <i_i_glide_confnum>  (256) 
2

>  <i_i_glide_posenum>  (256) 
19

>  <r_i_glide_eff_state_penalty>  (256) 
0

>  <ligand_id>  (256) 
65

>  <original_smiles>  (256) 
C1=C(c2ccc3c(cnn3-c3cncnc3)c2)CCCC1

>  <smiles>  (256) 
[H]C1=C(c2c([H])c([H])c3c(c([H])nn3-c3c([H])nc([H])nc3[H])c2[H])C([H])([H])C([H])([H])C([H])([H])C1([H])[H]

$$$$
66:0:0
     RDKit          3D

 42 46  0  0  1  0  0  0  0  0999 V2000
    4.7323   -6.9373    0.9685 O   0  0  0  0  0  0  0  0  0  0  0  0
    3.7151   -6.2722    1.1798 C   0  0  0  0  0  0  0  0  0  0  0  0
    3.7067   -4.9297    1.1905 N   0  0  0  0  0  0  0  0  0  0  0  0
    4.8922   -4.0696    1.0317 C   0  0  2  0  0  0  0  0  0  0  0  0
    4.5512   -2.5991    1.3734 C   0  0  1  0  0  0  0  0  0  0  0  0
    5.8255   -1.7354    1.2441 C   0  0  0  0  0  0  0  0  0  0  0  0
    6.3538   -1.8194   -0.1983 C   0  0  1  0  0  0  0  0  0  0  0  0
    6.7102   -3.2747   -0.5388 C   0  0  0  0  0  0  0  0  0  0  0  0
    5.4362   -4.1332   -0.4181 C   0  0  2  0  0  0  0  0  0  0  0  0
    4.3547   -3.6193   -1.3983 C   0  0  0  0  0  0  0  0  0  0  0  0
    4.0042   -2.1598   -1.0527 C   0  0  2  0  0  0  0  0  0  0  0  0
    3.0271   -1.6889   -1.9568 O   0  0  0  0  0  0  0  0  0  0  0  0
    5.2765   -1.3137   -1.1860 C   0  0  0  0  0  0  0  0  0  0  0  0
    3.4756   -2.0542    0.3982 C   0  0  0  0  0  0  0  0  0  0  0  0
    2.4089   -6.9168    1.5410 C   0  0  0  0  0  0  0  0  0  0  0  0
    1.2212   -6.2500    1.4548 N   0  0  0  0  0  0  0  0  0  0  0  0
    0.3769   -7.1628    1.9201 C   0  0  0  0  0  0  0  0  0  0  0  0
   -0.9559   -7.0776    2.1128 N   0  0  0  0  0  0  0  0  0  0  0  0
   -1.5380   -8.1878    2.5678 C   0  0  0  0  0  0  0  0  0  0  0  0
   -0.8601   -9.3905    2.8830 C   0  0  0  0  0  0  0  0  0  0  0  0
    0.5016   -9.4530    2.7243 C   0  0  0  0  0  0  0  0  0  0  0  0
    1.0995   -8.3404    2.2336 N   0  0  0  0  0  0  0  0  0  0  0  0
    2.4001   -8.1603    1.9865 N   0  0  0  0  0  0  0  0  0  0  0  0
    2.8076   -4.5004    1.3879 H   0  0  0  0  0  0  0  0  0  0  0  0
    5.6689   -4.4065    1.7233 H   0  0  0  0  0  0  0  0  0  0  0  0
    4.1904   -2.5208    2.3999 H   0  0  0  0  0  0  0  0  0  0  0  0
    5.6234   -0.6909    1.4992 H   0  0  0  0  0  0  0  0  0  0  0  0
    6.5935   -2.0846    1.9345 H   0  0  0  0  0  0  0  0  0  0  0  0
    7.2499   -1.2120   -0.2706 H   0  0  0  0  0  0  0  0  0  0  0  0
    7.1101   -3.3459   -1.5538 H   0  0  0  0  0  0  0  0  0  0  0  0
    7.4901   -3.6437    0.1321 H   0  0  0  0  0  0  0  0  0  0  0  0
    5.7195   -5.1458   -0.6974 H   0  0  0  0  0  0  0  0  0  0  0  0
    4.7093   -3.7211   -2.4263 H   0  0  0  0  0  0  0  0  0  0  0  0
    3.4563   -4.2326   -1.3380 H   0  0  0  0  0  0  0  0  0  0  0  0
    2.2351   -1.4543   -1.4775 H   0  0  0  0  0  0  0  0  0  0  0  0
    5.0330   -0.2663   -0.9804 H   0  0  0  0  0  0  0  0  0  0  0  0
    5.6481   -1.3757   -2.2064 H   0  0  0  0  0  0  0  0  0  0  0  0
    2.5457   -2.6067    0.5062 H   0  0  0  0  0  0  0  0  0  0  0  0
    3.2289   -1.0185    0.6476 H   0  0  0  0  0  0  0  0  0  0  0  0
   -2.6093   -8.1314    2.6925 H   0  0  0  0  0  0  0  0  0  0  0  0
   -1.3777  -10.2479    3.2797 H   0  0  0  0  0  0  0  0  0  0  0  0
    1.1191  -10.3200    2.9474 H   0  0  0  0  0  0  0  0  0  0  0  0
  1  2  2  0
  2  3  1  0
  2 15  1  0
  3  4  1  0
  3 24  1  0
  4  9  1  0
  4  5  1  0
  4 25  1  1
  5 14  1  0
  5  6  1  0
  5 26  1  1
  6  7  1  0
  6 27  1  0
  6 28  1  0
  7 13  1  0
  7  8  1  0
  7 29  1  1
  8  9  1  0
  8 30  1  0
  8 31  1  0
  9 10  1  0
  9 32  1  6
 10 11  1  0
 10 33  1  0
 10 34  1  0
 11 12  1  6
 11 13  1  0
 11 14  1  0
 12 35  1  0
 13 36  1  0
 13 37  1  0
 14 38  1  0
 14 39  1  0
 15 23  2  0
 15 16  1  0
 16 17  2  0
 17 22  1  0
 17 18  1  0
 18 19  2  0
 19 20  1  0
 19 40  1  0
 20 21  2  0
 20 41  1  0
 21 22  1  0
 21 42  1  0
 22 23  1  0
M  END
>  <i_m_ct_stereo_status>  (257) 
1

>  <s_m_source_file>  (257) 
/var/tmp/pbs.5076255.sched01/tmpn8rdt6mw/90ee43ygr2.sdf

>  <i_m_source_file_index>  (257) 
19

>  <i_lp_mmshare_version>  (257) 
48012

>  <i_f3d_flags>  (257) 
0

>  <s_epik_input>  (257) 
W0NIMl0xW0NAQEhdKFtDSDJdMilbQ0gyXVtDQEBIXShbQ0gyXTMpW0NASF0oW0NASF0xW0NIMl1bQ0BdMjNbT0hdKVtOSF1DKD1PKWMobjQpbm4oYzQ1KVtjSF1bY0hdW2NIXW41

>  <s_epik_cmdline>  (257) 
J2VwaWtfcHl0aG9uJywgJy1waHQnLCAnMi4wJywgJy1waCcsICc3LjAnLCAnLXRuJywgJzgnLCAnLW1hJywgJzIwMCcsICctaW1hZScsICc8aW5maWxlLm1hZT4nLCAnLW9tYWUnLCAnPG91dGZpbGUubWFlPic=

>  <r_lp_tautomer_probability>  (257) 
1

>  <r_epik_Ionization_Penalty>  (257) 
7.48751e-06

>  <r_epik_Ionization_Penalty_Charging>  (257) 
0

>  <r_epik_Ionization_Penalty_Neutral>  (257) 
7.48751e-06

>  <r_epik_State_Penalty>  (257) 
-0

>  <r_epik_Charging_Adjusted_Penalty>  (257) 
0

>  <i_epik_Tot_Q>  (257) 
0

>  <i_epik_Tot_abs_Q>  (257) 
0

>  <s_lp_Force_Field>  (257) 
OPLS3e

>  <r_lp_Energy>  (257) 
11.3588

>  <b_lp_Chiralities_Consistent>  (257) 
1

>  <s_lp_Variant>  (257) 
66:0-1

>  <s_i_glide_gridfile>  (257) 
pfpi4k_grid

>  <i_i_glide_lignum>  (257) 
19

>  <i_i_glide_rotatable_bonds>  (257) 
4

>  <r_i_docking_score>  (257) 
-4.54501

>  <r_i_glide_ligand_efficiency>  (257) 
-0.197609

>  <r_i_glide_ligand_efficiency_sa>  (257) 
-0.561974

>  <r_i_glide_ligand_efficiency_ln>  (257) 
-1.09902

>  <r_i_glide_gscore>  (257) 
-4.54501

>  <r_i_glide_lipo>  (257) 
-0.366988

>  <r_i_glide_hbond>  (257) 
-0.41914

>  <r_i_glide_metal>  (257) 
-0

>  <r_i_glide_rewards>  (257) 
-1.35153

>  <r_i_glide_evdw>  (257) 
-30.0405

>  <r_i_glide_ecoul>  (257) 
-9.0399

>  <r_i_glide_erotb>  (257) 
0.567452

>  <r_i_glide_esite>  (257) 
-0.116794

>  <r_i_glide_emodel>  (257) 
-49.6145

>  <r_i_glide_energy>  (257) 
-39.0804

>  <r_i_glide_einternal>  (257) 
2.91331

>  <r_i_glide_intrahb_reward>  (257) 
-0

>  <i_i_glide_confnum>  (257) 
3

>  <i_i_glide_posenum>  (257) 
22

>  <r_i_glide_eff_state_penalty>  (257) 
0

>  <ligand_id>  (257) 
66

>  <original_smiles>  (257) 
O=C(NC1C2CC3CC1CC(O)(C3)C2)c1nc2ncccn2n1

>  <smiles>  (257) 
[H]OC12C([H])([H])C3([H])C([H])([H])C([H])(C1([H])[H])C([H])(N([H])C(=O)c1nc4nc([H])c([H])c([H])n4n1)C([H])(C3([H])[H])C2([H])[H]

$$$$
66:0:1
     RDKit          3D

 42 46  0  0  1  0  0  0  0  0999 V2000
    4.8789   -6.9055    1.5938 O   0  0  0  0  0  0  0  0  0  0  0  0
    3.8164   -6.4186    1.2094 C   0  0  0  0  0  0  0  0  0  0  0  0
    3.7471   -5.3369    0.4248 N   0  0  0  0  0  0  0  0  0  0  0  0
    4.8903   -4.5541   -0.0394 C   0  0  2  0  0  0  0  0  0  0  0  0
    5.4869   -3.6726    1.0904 C   0  0  1  0  0  0  0  0  0  0  0  0
    6.7205   -2.9339    0.5365 C   0  0  0  0  0  0  0  0  0  0  0  0
    6.2855   -2.0224   -0.6244 C   0  0  1  0  0  0  0  0  0  0  0  0
    5.6943   -2.8836   -1.7550 C   0  0  0  0  0  0  0  0  0  0  0  0
    4.4648   -3.6385   -1.2101 C   0  0  2  0  0  0  0  0  0  0  0  0
    3.4089   -2.6167   -0.7274 C   0  0  0  0  0  0  0  0  0  0  0  0
    4.0032   -1.7466    0.3994 C   0  0  2  0  0  0  0  0  0  0  0  0
    3.0175   -0.8379    0.8393 O   0  0  0  0  0  0  0  0  0  0  0  0
    5.2343   -0.9939   -0.1479 C   0  0  0  0  0  0  0  0  0  0  0  0
    4.4443   -2.6378    1.5836 C   0  0  0  0  0  0  0  0  0  0  0  0
    2.4909   -7.0143    1.5879 C   0  0  0  0  0  0  0  0  0  0  0  0
    1.3243   -6.2984    1.5121 N   0  0  0  0  0  0  0  0  0  0  0  0
    0.4328   -7.1849    1.9581 C   0  0  0  0  0  0  0  0  0  0  0  0
   -0.8925   -7.0560    2.1383 N   0  0  0  0  0  0  0  0  0  0  0  0
   -1.5375   -8.1289    2.5859 C   0  0  0  0  0  0  0  0  0  0  0  0
   -0.9217   -9.3654    2.8821 C   0  0  0  0  0  0  0  0  0  0  0  0
    0.4374   -9.4894    2.7087 C   0  0  0  0  0  0  0  0  0  0  0  0
    1.0972   -8.3938    2.2514 N   0  0  0  0  0  0  0  0  0  0  0  0
    2.4205   -8.2676    2.0149 N   0  0  0  0  0  0  0  0  0  0  0  0
    2.8193   -5.0364    0.1522 H   0  0  0  0  0  0  0  0  0  0  0  0
    5.6548   -5.2492   -0.3951 H   0  0  0  0  0  0  0  0  0  0  0  0
    5.8062   -4.2927    1.9309 H   0  0  0  0  0  0  0  0  0  0  0  0
    7.2040   -2.3368    1.3059 H   0  0  0  0  0  0  0  0  0  0  0  0
    7.4679   -3.6510    0.1908 H   0  0  0  0  0  0  0  0  0  0  0  0
    7.1631   -1.5017   -0.9855 H   0  0  0  0  0  0  0  0  0  0  0  0
    5.4115   -2.2554   -2.6013 H   0  0  0  0  0  0  0  0  0  0  0  0
    6.4432   -3.5834   -2.1297 H   0  0  0  0  0  0  0  0  0  0  0  0
    4.0478   -4.2470   -2.0109 H   0  0  0  0  0  0  0  0  0  0  0  0
    3.0818   -1.9930   -1.5620 H   0  0  0  0  0  0  0  0  0  0  0  0
    2.5131   -3.1236   -0.3708 H   0  0  0  0  0  0  0  0  0  0  0  0
    2.3165   -0.7972    0.1857 H   0  0  0  0  0  0  0  0  0  0  0  0
    5.6594   -0.3380    0.6133 H   0  0  0  0  0  0  0  0  0  0  0  0
    4.9428   -0.3505   -0.9799 H   0  0  0  0  0  0  0  0  0  0  0  0
    3.5805   -3.1457    2.0102 H   0  0  0  0  0  0  0  0  0  0  0  0
    4.8633   -2.0292    2.3874 H   0  0  0  0  0  0  0  0  0  0  0  0
   -2.6093   -8.0209    2.7153 H   0  0  0  0  0  0  0  0  0  0  0  0
   -1.4980  -10.2096    3.2509 H   0  0  0  0  0  0  0  0  0  0  0  0
    1.0088  -10.3929    2.8973 H   0  0  0  0  0  0  0  0  0  0  0  0
  1  2  2  0
  2  3  1  0
  2 15  1  0
  3  4  1  0
  3 24  1  0
  4  9  1  0
  4  5  1  0
  4 25  1  6
  5 14  1  0
  5  6  1  0
  5 26  1  1
  6  7  1  0
  6 27  1  0
  6 28  1  0
  7 13  1  0
  7  8  1  0
  7 29  1  6
  8  9  1  0
  8 30  1  0
  8 31  1  0
  9 10  1  0
  9 32  1  6
 10 11  1  0
 10 33  1  0
 10 34  1  0
 11 12  1  1
 11 13  1  0
 11 14  1  0
 12 35  1  0
 13 36  1  0
 13 37  1  0
 14 38  1  0
 14 39  1  0
 15 23  2  0
 15 16  1  0
 16 17  2  0
 17 22  1  0
 17 18  1  0
 18 19  2  0
 19 20  1  0
 19 40  1  0
 20 21  2  0
 20 41  1  0
 21 22  1  0
 21 42  1  0
 22 23  1  0
M  END
>  <i_m_ct_stereo_status>  (258) 
1

>  <s_m_source_file>  (258) 
/var/tmp/pbs.5076255.sched01/tmpn8rdt6mw/90ee43ygr2.sdf

>  <i_m_source_file_index>  (258) 
19

>  <i_lp_mmshare_version>  (258) 
48012

>  <i_f3d_flags>  (258) 
0

>  <s_epik_input>  (258) 
W0NIMl0xW0NAQEhdKFtDSDJdMilbQ0gyXVtDQEBIXShbQ0gyXTMpW0NASF0oW0NASF0xW0NIMl1bQ0BdMjNbT0hdKVtOSF1DKD1PKWMobjQpbm4oYzQ1KVtjSF1bY0hdW2NIXW41

>  <s_epik_cmdline>  (258) 
J2VwaWtfcHl0aG9uJywgJy1waHQnLCAnMi4wJywgJy1waCcsICc3LjAnLCAnLXRuJywgJzgnLCAnLW1hJywgJzIwMCcsICctaW1hZScsICc8aW5maWxlLm1hZT4nLCAnLW9tYWUnLCAnPG91dGZpbGUubWFlPic=

>  <r_lp_tautomer_probability>  (258) 
1

>  <r_epik_Ionization_Penalty>  (258) 
7.48751e-06

>  <r_epik_Ionization_Penalty_Charging>  (258) 
0

>  <r_epik_Ionization_Penalty_Neutral>  (258) 
7.48751e-06

>  <r_epik_State_Penalty>  (258) 
-0

>  <r_epik_Charging_Adjusted_Penalty>  (258) 
0

>  <i_epik_Tot_Q>  (258) 
0

>  <i_epik_Tot_abs_Q>  (258) 
0

>  <s_lp_Force_Field>  (258) 
OPLS3e

>  <r_lp_Energy>  (258) 
11.3588

>  <b_lp_Chiralities_Consistent>  (258) 
1

>  <s_lp_Variant>  (258) 
66:0-1

>  <s_i_glide_gridfile>  (258) 
pfpi4k_grid

>  <i_i_glide_lignum>  (258) 
19

>  <i_i_glide_rotatable_bonds>  (258) 
4

>  <r_i_docking_score>  (258) 
-4.11467

>  <r_i_glide_ligand_efficiency>  (258) 
-0.178898

>  <r_i_glide_ligand_efficiency_sa>  (258) 
-0.508764

>  <r_i_glide_ligand_efficiency_ln>  (258) 
-0.994963

>  <r_i_glide_gscore>  (258) 
-4.11467

>  <r_i_glide_lipo>  (258) 
-0.241707

>  <r_i_glide_hbond>  (258) 
-0.372716

>  <r_i_glide_metal>  (258) 
-0

>  <r_i_glide_rewards>  (258) 
-1.36565

>  <r_i_glide_evdw>  (258) 
-30.3684

>  <r_i_glide_ecoul>  (258) 
-7.17385

>  <r_i_glide_erotb>  (258) 
0.567452

>  <r_i_glide_esite>  (258) 
-0.107548

>  <r_i_glide_emodel>  (258) 
-47.764

>  <r_i_glide_energy>  (258) 
-37.5422

>  <r_i_glide_einternal>  (258) 
1.4058

>  <r_i_glide_intrahb_reward>  (258) 
-0

>  <i_i_glide_confnum>  (258) 
3

>  <i_i_glide_posenum>  (258) 
31

>  <r_i_glide_eff_state_penalty>  (258) 
0

>  <ligand_id>  (258) 
66

>  <original_smiles>  (258) 
O=C(NC1C2CC3CC1CC(O)(C3)C2)c1nc2ncccn2n1

>  <smiles>  (258) 
[H]OC12C([H])([H])C3([H])C([H])([H])C([H])(C1([H])[H])C([H])(N([H])C(=O)c1nc4nc([H])c([H])c([H])n4n1)C([H])(C3([H])[H])C2([H])[H]

$$$$
66:0:2
     RDKit          3D

 42 46  0  0  1  0  0  0  0  0999 V2000
    4.6343   -5.7162    2.6974 O   0  0  0  0  0  0  0  0  0  0  0  0
    3.6257   -5.6956    1.9994 C   0  0  0  0  0  0  0  0  0  0  0  0
    3.3620   -4.7152    1.1163 N   0  0  0  0  0  0  0  0  0  0  0  0
    4.0919   -3.4401    1.0338 C   0  0  2  0  0  0  0  0  0  0  0  0
    3.2624   -2.4037    0.2347 C   0  0  1  0  0  0  0  0  0  0  0  0
    4.0084   -1.0611    0.2457 C   0  0  0  0  0  0  0  0  0  0  0  0
    5.3737   -1.2199   -0.4334 C   0  0  1  0  0  0  0  0  0  0  0  0
    6.2136   -2.2459    0.3577 C   0  0  0  0  0  0  0  0  0  0  0  0
    5.4759   -3.5950    0.3596 C   0  0  2  0  0  0  0  0  0  0  0  0
    5.2718   -4.0883   -1.0880 C   0  0  0  0  0  0  0  0  0  0  0  0
    4.4330   -3.0667   -1.8737 C   0  0  2  0  0  0  0  0  0  0  0  0
    4.2460   -3.5309   -3.1941 O   0  0  0  0  0  0  0  0  0  0  0  0
    5.1809   -1.7200   -1.8792 C   0  0  0  0  0  0  0  0  0  0  0  0
    3.0552   -2.8876   -1.2211 C   0  0  0  0  0  0  0  0  0  0  0  0
    2.5445   -6.7053    2.1126 C   0  0  0  0  0  0  0  0  0  0  0  0
    1.2645   -6.4328    1.7293 N   0  0  0  0  0  0  0  0  0  0  0  0
    0.6012   -7.4993    2.1691 C   0  0  0  0  0  0  0  0  0  0  0  0
   -0.7170   -7.7969    2.1026 N   0  0  0  0  0  0  0  0  0  0  0  0
   -1.0719   -8.9735    2.6056 C   0  0  0  0  0  0  0  0  0  0  0  0
   -0.1750   -9.8698    3.2400 C   0  0  0  0  0  0  0  0  0  0  0  0
    1.1609   -9.5631    3.3225 C   0  0  0  0  0  0  0  0  0  0  0  0
    1.5217   -8.3760    2.7805 N   0  0  0  0  0  0  0  0  0  0  0  0
    2.7636   -7.8479    2.7566 N   0  0  0  0  0  0  0  0  0  0  0  0
    2.4881   -4.8192    0.6003 H   0  0  0  0  0  0  0  0  0  0  0  0
    4.2322   -3.0473    2.0424 H   0  0  0  0  0  0  0  0  0  0  0  0
    2.2955   -2.2608    0.7096 H   0  0  0  0  0  0  0  0  0  0  0  0
    3.4370   -0.3062   -0.2916 H   0  0  0  0  0  0  0  0  0  0  0  0
    4.1368   -0.6870    1.2623 H   0  0  0  0  0  0  0  0  0  0  0  0
    5.8786   -0.2542   -0.4408 H   0  0  0  0  0  0  0  0  0  0  0  0
    7.2016   -2.3585   -0.0897 H   0  0  0  0  0  0  0  0  0  0  0  0
    6.3727   -1.8864    1.3760 H   0  0  0  0  0  0  0  0  0  0  0  0
    6.1064   -4.3002    0.9041 H   0  0  0  0  0  0  0  0  0  0  0  0
    6.2390   -4.2156   -1.5656 H   0  0  0  0  0  0  0  0  0  0  0  0
    4.8084   -5.0722   -1.1092 H   0  0  0  0  0  0  0  0  0  0  0  0
    3.8286   -4.3807   -3.1287 H   0  0  0  0  0  0  0  0  0  0  0  0
    4.6348   -0.9886   -2.4776 H   0  0  0  0  0  0  0  0  0  0  0  0
    6.1655   -1.8657   -2.3159 H   0  0  0  0  0  0  0  0  0  0  0  0
    2.4777   -3.8109   -1.2597 H   0  0  0  0  0  0  0  0  0  0  0  0
    2.4835   -2.1587   -1.7990 H   0  0  0  0  0  0  0  0  0  0  0  0
   -2.1226   -9.2486    2.5217 H   0  0  0  0  0  0  0  0  0  0  0  0
   -0.5135  -10.7968    3.6951 H   0  0  0  0  0  0  0  0  0  0  0  0
    1.9158  -10.1744    3.7908 H   0  0  0  0  0  0  0  0  0  0  0  0
  1  2  2  0
  2  3  1  0
  2 15  1  0
  3  4  1  0
  3 24  1  0
  4  9  1  0
  4  5  1  0
  4 25  1  1
  5 14  1  0
  5  6  1  0
  5 26  1  1
  6  7  1  0
  6 27  1  0
  6 28  1  0
  7 13  1  0
  7  8  1  0
  7 29  1  6
  8  9  1  0
  8 30  1  0
  8 31  1  0
  9 10  1  0
  9 32  1  1
 10 11  1  0
 10 33  1  0
 10 34  1  0
 11 12  1  6
 11 13  1  0
 11 14  1  0
 12 35  1  0
 13 36  1  0
 13 37  1  0
 14 38  1  0
 14 39  1  0
 15 23  2  0
 15 16  1  0
 16 17  2  0
 17 22  1  0
 17 18  1  0
 18 19  2  0
 19 20  1  0
 19 40  1  0
 20 21  2  0
 20 41  1  0
 21 22  1  0
 21 42  1  0
 22 23  1  0
M  END
>  <i_m_ct_stereo_status>  (259) 
1

>  <s_m_source_file>  (259) 
/var/tmp/pbs.5076255.sched01/tmpn8rdt6mw/90ee43ygr2.sdf

>  <i_m_source_file_index>  (259) 
19

>  <i_lp_mmshare_version>  (259) 
48012

>  <i_f3d_flags>  (259) 
0

>  <s_epik_input>  (259) 
W0NIMl0xW0NAQEhdKFtDSDJdMilbQ0gyXVtDQEBIXShbQ0gyXTMpW0NASF0oW0NASF0xW0NIMl1bQ0BdMjNbT0hdKVtOSF1DKD1PKWMobjQpbm4oYzQ1KVtjSF1bY0hdW2NIXW41

>  <s_epik_cmdline>  (259) 
J2VwaWtfcHl0aG9uJywgJy1waHQnLCAnMi4wJywgJy1waCcsICc3LjAnLCAnLXRuJywgJzgnLCAnLW1hJywgJzIwMCcsICctaW1hZScsICc8aW5maWxlLm1hZT4nLCAnLW9tYWUnLCAnPG91dGZpbGUubWFlPic=

>  <r_lp_tautomer_probability>  (259) 
1

>  <r_epik_Ionization_Penalty>  (259) 
7.48751e-06

>  <r_epik_Ionization_Penalty_Charging>  (259) 
0

>  <r_epik_Ionization_Penalty_Neutral>  (259) 
7.48751e-06

>  <r_epik_State_Penalty>  (259) 
-0

>  <r_epik_Charging_Adjusted_Penalty>  (259) 
0

>  <i_epik_Tot_Q>  (259) 
0

>  <i_epik_Tot_abs_Q>  (259) 
0

>  <s_lp_Force_Field>  (259) 
OPLS3e

>  <r_lp_Energy>  (259) 
11.3588

>  <b_lp_Chiralities_Consistent>  (259) 
1

>  <s_lp_Variant>  (259) 
66:0-1

>  <s_i_glide_gridfile>  (259) 
pfpi4k_grid

>  <i_i_glide_lignum>  (259) 
19

>  <i_i_glide_rotatable_bonds>  (259) 
4

>  <r_i_docking_score>  (259) 
-3.84672

>  <r_i_glide_ligand_efficiency>  (259) 
-0.167249

>  <r_i_glide_ligand_efficiency_sa>  (259) 
-0.475634

>  <r_i_glide_ligand_efficiency_ln>  (259) 
-0.930173

>  <r_i_glide_gscore>  (259) 
-3.84672

>  <r_i_glide_lipo>  (259) 
-0.18823

>  <r_i_glide_hbond>  (259) 
-0.32

>  <r_i_glide_metal>  (259) 
-0

>  <r_i_glide_rewards>  (259) 
-1.28808

>  <r_i_glide_evdw>  (259) 
-29.7466

>  <r_i_glide_ecoul>  (259) 
-7.03544

>  <r_i_glide_erotb>  (259) 
0.567452

>  <r_i_glide_esite>  (259) 
-0.0752175

>  <r_i_glide_emodel>  (259) 
-44.753

>  <r_i_glide_energy>  (259) 
-36.7821

>  <r_i_glide_einternal>  (259) 
4.20206

>  <r_i_glide_intrahb_reward>  (259) 
-0

>  <i_i_glide_confnum>  (259) 
3

>  <i_i_glide_posenum>  (259) 
23

>  <r_i_glide_eff_state_penalty>  (259) 
0

>  <ligand_id>  (259) 
66

>  <original_smiles>  (259) 
O=C(NC1C2CC3CC1CC(O)(C3)C2)c1nc2ncccn2n1

>  <smiles>  (259) 
[H]OC12C([H])([H])C3([H])C([H])([H])C([H])(C1([H])[H])C([H])(N([H])C(=O)c1nc4nc([H])c([H])c([H])n4n1)C([H])(C3([H])[H])C2([H])[H]

$$$$
67:0:0
     RDKit          3D

 59 63  0  0  1  0  0  0  0  0999 V2000
    3.7657   -2.0476   -2.4191 C   0  0  0  0  0  0  0  0  0  0  0  0
    4.3464   -2.4804   -1.0634 C   0  0  2  0  0  0  0  0  0  0  0  0
    3.7398   -1.6298    0.0783 C   0  0  0  0  0  0  0  0  0  0  0  0
    4.3103   -2.0598    1.4423 C   0  0  2  0  0  0  0  0  0  0  0  0
    5.8345   -1.8927    1.4386 C   0  0  0  0  0  0  0  0  0  0  0  0
    6.4326   -2.7796    0.3268 C   0  0  2  0  0  0  0  0  0  0  0  0
    5.8803   -2.3434   -1.0496 C   0  0  0  0  0  0  0  0  0  0  0  0
    6.0580   -4.2596    0.5841 C   0  0  0  0  0  0  0  0  0  0  0  0
    4.5093   -4.4359    0.5832 C   0  0  1  0  0  0  0  0  0  0  0  0
    4.1506   -5.9307    0.8243 C   0  0  0  0  0  0  0  0  0  0  0  0
    2.6605   -6.2936    0.9682 C   0  0  0  0  0  0  0  0  0  0  0  0
    1.7693   -5.5890    0.4884 O   0  0  0  0  0  0  0  0  0  0  0  0
    2.3638   -7.3680    1.6930 N   0  0  0  0  0  0  0  0  0  0  0  0
    1.0014   -7.7433    2.0308 C   0  0  2  0  0  0  0  0  0  0  0  0
    0.3517   -6.8207    3.0657 C   0  0  2  0  0  0  0  0  0  0  0  0
    1.3486   -6.5982    4.2089 C   0  0  0  0  0  0  0  0  0  0  0  0
    1.7711   -8.0668    4.3608 C   0  0  0  0  0  0  0  0  0  0  0  0
    0.8762   -8.6653    3.2500 C   0  0  2  0  0  0  0  0  0  0  0  0
    1.0126  -10.1755    3.0796 C   0  0  0  0  0  0  0  0  0  0  0  0
   -0.5466   -8.0442    3.3803 C   0  0  0  0  0  0  0  0  0  0  0  0
   -1.2162   -8.0568    4.7607 C   0  0  0  0  0  0  0  0  0  0  0  0
   -1.7069   -8.4828    2.4283 C   0  0  0  0  0  0  0  0  0  0  0  0
    3.9424   -3.5296    1.7102 C   0  0  0  0  0  0  0  0  0  0  0  0
    3.9958   -3.9552   -0.8056 C   0  0  0  0  0  0  0  0  0  0  0  0
    2.6839   -2.1743   -2.4399 H   0  0  0  0  0  0  0  0  0  0  0  0
    4.1756   -2.6436   -3.2336 H   0  0  0  0  0  0  0  0  0  0  0  0
    3.9724   -0.9995   -2.6262 H   0  0  0  0  0  0  0  0  0  0  0  0
    3.9233   -0.5688   -0.0830 H   0  0  0  0  0  0  0  0  0  0  0  0
    2.6641   -1.7619    0.0947 H   0  0  0  0  0  0  0  0  0  0  0  0
    3.8756   -1.4392    2.2257 H   0  0  0  0  0  0  0  0  0  0  0  0
    6.0980   -0.8467    1.2787 H   0  0  0  0  0  0  0  0  0  0  0  0
    6.2312   -2.1769    2.4116 H   0  0  0  0  0  0  0  0  0  0  0  0
    7.5184   -2.6724    0.3269 H   0  0  0  0  0  0  0  0  0  0  0  0
    6.3174   -2.9691   -1.8305 H   0  0  0  0  0  0  0  0  0  0  0  0
    6.1625   -1.3129   -1.2638 H   0  0  0  0  0  0  0  0  0  0  0  0
    6.5179   -4.8865   -0.1812 H   0  0  0  0  0  0  0  0  0  0  0  0
    6.4905   -4.5798    1.5334 H   0  0  0  0  0  0  0  0  0  0  0  0
    4.5525   -6.5445    0.0208 H   0  0  0  0  0  0  0  0  0  0  0  0
    4.6670   -6.2729    1.7248 H   0  0  0  0  0  0  0  0  0  0  0  0
    3.1133   -7.9177    2.1082 H   0  0  0  0  0  0  0  0  0  0  0  0
    0.4090   -7.9722    1.1363 H   0  0  0  0  0  0  0  0  0  0  0  0
   -0.1595   -5.9574    2.6623 H   0  0  0  0  0  0  0  0  0  0  0  0
    2.1657   -5.9408    3.9184 H   0  0  0  0  0  0  0  0  0  0  0  0
    0.8778   -6.1736    5.0907 H   0  0  0  0  0  0  0  0  0  0  0  0
    2.8312   -8.2191    4.1652 H   0  0  0  0  0  0  0  0  0  0  0  0
    1.5377   -8.4801    5.3363 H   0  0  0  0  0  0  0  0  0  0  0  0
    0.6682  -10.6972    3.9717 H   0  0  0  0  0  0  0  0  0  0  0  0
    2.0407  -10.4739    2.8730 H   0  0  0  0  0  0  0  0  0  0  0  0
    0.3987  -10.5220    2.2449 H   0  0  0  0  0  0  0  0  0  0  0  0
   -1.5693   -9.0507    5.0254 H   0  0  0  0  0  0  0  0  0  0  0  0
   -2.0696   -7.3783    4.8130 H   0  0  0  0  0  0  0  0  0  0  0  0
   -0.5511   -7.7731    5.5732 H   0  0  0  0  0  0  0  0  0  0  0  0
   -2.1682   -9.4038    2.7938 H   0  0  0  0  0  0  0  0  0  0  0  0
   -1.4344   -8.7046    1.4040 H   0  0  0  0  0  0  0  0  0  0  0  0
   -2.4905   -7.7242    2.4010 H   0  0  0  0  0  0  0  0  0  0  0  0
    4.3306   -3.8451    2.6808 H   0  0  0  0  0  0  0  0  0  0  0  0
    2.8587   -3.5933    1.7820 H   0  0  0  0  0  0  0  0  0  0  0  0
    2.9160   -4.0271   -0.9093 H   0  0  0  0  0  0  0  0  0  0  0  0
    4.4229   -4.5864   -1.5871 H   0  0  0  0  0  0  0  0  0  0  0  0
  2  1  1  6
  1 25  1  0
  1 26  1  0
  1 27  1  0
  2  7  1  0
  2 24  1  0
  2  3  1  0
  3  4  1  0
  3 28  1  0
  3 29  1  0
  4 23  1  0
  4  5  1  0
  4 30  1  1
  5  6  1  0
  5 31  1  0
  5 32  1  0
  6  7  1  0
  6  8  1  0
  6 33  1  6
  7 34  1  0
  7 35  1  0
  8  9  1  0
  8 36  1  0
  8 37  1  0
  9 10  1  1
  9 23  1  0
  9 24  1  0
 10 11  1  0
 10 38  1  0
 10 39  1  0
 11 12  2  0
 11 13  1  0
 13 14  1  0
 13 40  1  0
 14 18  1  0
 14 15  1  0
 14 41  1  6
 15 20  1  0
 15 16  1  0
 15 42  1  6
 16 17  1  0
 16 43  1  0
 16 44  1  0
 17 18  1  0
 17 45  1  0
 17 46  1  0
 18 19  1  6
 18 20  1  0
 19 47  1  0
 19 48  1  0
 19 49  1  0
 20 21  1  0
 20 22  1  0
 21 50  1  0
 21 51  1  0
 21 52  1  0
 22 53  1  0
 22 54  1  0
 22 55  1  0
 23 56  1  0
 23 57  1  0
 24 58  1  0
 24 59  1  0
M  END
>  <i_m_ct_stereo_status>  (260) 
1

>  <s_m_source_file>  (260) 
/var/tmp/pbs.5076255.sched01/tmpn8rdt6mw/90ee43ygr2.sdf

>  <i_m_source_file_index>  (260) 
20

>  <i_lp_mmshare_version>  (260) 
48012

>  <i_f3d_flags>  (260) 
0

>  <s_epik_input>  (260) 
W0NIM11bQ0BdMTJbQ0gyXVtDQEBIXTNbQ0gyXVtDQEhdKFtDSDJdMSlbQ0gyXVtDQEBdKFtDSDJdMykoW0NIMl0yKVtDSDJdQyg9TylbTkhdW0NAQEhdKFtDQEBdNDVbQ0gzXSlbQ0BIXShbQ0gyXVtDSDJdNClDNShbQ0gzXSlbQ0gzXQ==

>  <s_epik_cmdline>  (260) 
J2VwaWtfcHl0aG9uJywgJy1waHQnLCAnMi4wJywgJy1waCcsICc3LjAnLCAnLXRuJywgJzgnLCAnLW1hJywgJzIwMCcsICctaW1hZScsICc8aW5maWxlLm1hZT4nLCAnLW9tYWUnLCAnPG91dGZpbGUubWFlPic=

>  <r_lp_tautomer_probability>  (260) 
1

>  <r_epik_Ionization_Penalty>  (260) 
1.04067e-07

>  <r_epik_Ionization_Penalty_Charging>  (260) 
0

>  <r_epik_Ionization_Penalty_Neutral>  (260) 
1.04067e-07

>  <r_epik_State_Penalty>  (260) 
-0

>  <r_epik_Charging_Adjusted_Penalty>  (260) 
0

>  <i_epik_Tot_Q>  (260) 
0

>  <i_epik_Tot_abs_Q>  (260) 
0

>  <s_lp_Force_Field>  (260) 
OPLS3e

>  <r_lp_Energy>  (260) 
46.5589

>  <b_lp_Chiralities_Consistent>  (260) 
1

>  <s_lp_Variant>  (260) 
67:0-1

>  <s_i_glide_gridfile>  (260) 
pfpi4k_grid

>  <i_i_glide_lignum>  (260) 
20

>  <i_i_glide_rotatable_bonds>  (260) 
4

>  <r_i_docking_score>  (260) 
-2.77373

>  <r_i_glide_ligand_efficiency>  (260) 
-0.115572

>  <r_i_glide_ligand_efficiency_sa>  (260) 
-0.333367

>  <r_i_glide_ligand_efficiency_ln>  (260) 
-0.66388

>  <r_i_glide_gscore>  (260) 
-2.77373

>  <r_i_glide_lipo>  (260) 
-0.713598

>  <r_i_glide_hbond>  (260) 
-0.106671

>  <r_i_glide_metal>  (260) 
-0

>  <r_i_glide_rewards>  (260) 
-1.16237

>  <r_i_glide_evdw>  (260) 
-23.229

>  <r_i_glide_ecoul>  (260) 
-2.00837

>  <r_i_glide_erotb>  (260) 
0.692408

>  <r_i_glide_esite>  (260) 
-0.0207946

>  <r_i_glide_emodel>  (260) 
-29.7124

>  <r_i_glide_energy>  (260) 
-25.2373

>  <r_i_glide_einternal>  (260) 
0.194482

>  <r_i_glide_intrahb_reward>  (260) 
-0

>  <i_i_glide_confnum>  (260) 
6

>  <i_i_glide_posenum>  (260) 
30

>  <r_i_glide_eff_state_penalty>  (260) 
0

>  <ligand_id>  (260) 
67

>  <original_smiles>  (260) 
CC12CC3CC(C1)CC(CC(=O)NC1C4CCC1(C)C4(C)C)(C3)C2

>  <smiles>  (260) 
[H]N(C(=O)C([H])([H])C12C([H])([H])C3([H])C([H])([H])C([H])(C([H])([H])C(C([H])([H])[H])(C3([H])[H])C1([H])[H])C2([H])[H])C1([H])C2([H])C([H])([H])C([H])([H])C1(C([H])([H])[H])C2(C([H])([H])[H])C([H])([H])[H]

$$$$
67:0:1
     RDKit          3D

 59 63  0  0  1  0  0  0  0  0999 V2000
    4.5059   -2.9609   -3.2304 C   0  0  0  0  0  0  0  0  0  0  0  0
    4.9391   -2.9050   -1.7548 C   0  0  2  0  0  0  0  0  0  0  0  0
    4.2236   -1.7407   -1.0261 C   0  0  0  0  0  0  0  0  0  0  0  0
    4.6654   -1.6772    0.4507 C   0  0  2  0  0  0  0  0  0  0  0  0
    6.1864   -1.4810    0.5385 C   0  0  0  0  0  0  0  0  0  0  0  0
    6.8843   -2.6706   -0.1566 C   0  0  2  0  0  0  0  0  0  0  0  0
    6.4661   -2.7348   -1.6421 C   0  0  0  0  0  0  0  0  0  0  0  0
    6.4773   -3.9929    0.5402 C   0  0  0  0  0  0  0  0  0  0  0  0
    4.9381   -4.2009    0.4521 C   0  0  1  0  0  0  0  0  0  0  0  0
    4.5471   -5.5464    1.1283 C   0  0  0  0  0  0  0  0  0  0  0  0
    3.0567   -5.9387    1.1323 C   0  0  0  0  0  0  0  0  0  0  0  0
    2.1884   -5.1943    0.6760 O   0  0  0  0  0  0  0  0  0  0  0  0
    2.7405   -7.0930    1.7217 N   0  0  0  0  0  0  0  0  0  0  0  0
    1.3586   -7.4683    2.0129 C   0  0  2  0  0  0  0  0  0  0  0  0
    0.7199   -6.6475    3.1429 C   0  0  2  0  0  0  0  0  0  0  0  0
    1.7148   -6.5717    4.3077 C   0  0  0  0  0  0  0  0  0  0  0  0
    2.1113   -8.0558    4.3001 C   0  0  0  0  0  0  0  0  0  0  0  0
    1.2148   -8.5120    3.1329 C   0  0  2  0  0  0  0  0  0  0  0  0
    1.3274   -9.9948    2.7986 C   0  0  0  0  0  0  0  0  0  0  0  0
   -0.2054   -7.8831    3.3267 C   0  0  0  0  0  0  0  0  0  0  0  0
   -0.8840   -8.0413    4.6955 C   0  0  0  0  0  0  0  0  0  0  0  0
   -1.3601   -8.1884    2.3246 C   0  0  0  0  0  0  0  0  0  0  0  0
    4.2696   -2.9846    1.1570 C   0  0  0  0  0  0  0  0  0  0  0  0
    4.5514   -4.2189   -1.0532 C   0  0  0  0  0  0  0  0  0  0  0  0
    3.4318   -3.1239   -3.3215 H   0  0  0  0  0  0  0  0  0  0  0  0
    5.0007   -3.7745   -3.7613 H   0  0  0  0  0  0  0  0  0  0  0  0
    4.7397   -2.0311   -3.7489 H   0  0  0  0  0  0  0  0  0  0  0  0
    4.4302   -0.7881   -1.5149 H   0  0  0  0  0  0  0  0  0  0  0  0
    3.1419   -1.8788   -1.0729 H   0  0  0  0  0  0  0  0  0  0  0  0
    4.1605   -0.8439    0.9406 H   0  0  0  0  0  0  0  0  0  0  0  0
    6.4668   -0.5329    0.0785 H   0  0  0  0  0  0  0  0  0  0  0  0
    6.4959   -1.4186    1.5821 H   0  0  0  0  0  0  0  0  0  0  0  0
    7.9653   -2.5407   -0.0919 H   0  0  0  0  0  0  0  0  0  0  0  0
    6.9776   -3.5619   -2.1347 H   0  0  0  0  0  0  0  0  0  0  0  0
    6.7800   -1.8382   -2.1691 H   0  0  0  0  0  0  0  0  0  0  0  0
    7.0125   -4.8270    0.0808 H   0  0  0  0  0  0  0  0  0  0  0  0
    6.8091   -3.9705    1.5803 H   0  0  0  0  0  0  0  0  0  0  0  0
    5.0860   -6.3612    0.6486 H   0  0  0  0  0  0  0  0  0  0  0  0
    4.8953   -5.5392    2.1632 H   0  0  0  0  0  0  0  0  0  0  0  0
    3.4689   -7.6698    2.1176 H   0  0  0  0  0  0  0  0  0  0  0  0
    0.7840   -7.6026    1.0988 H   0  0  0  0  0  0  0  0  0  0  0  0
    0.2293   -5.7270    2.8418 H   0  0  0  0  0  0  0  0  0  0  0  0
    2.5503   -5.9015    4.0997 H   0  0  0  0  0  0  0  0  0  0  0  0
    1.2505   -6.2405    5.2347 H   0  0  0  0  0  0  0  0  0  0  0  0
    3.1717   -8.2032    4.0951 H   0  0  0  0  0  0  0  0  0  0  0  0
    1.8696   -8.5686    5.2278 H   0  0  0  0  0  0  0  0  0  0  0  0
    0.9723  -10.6075    3.6257 H   0  0  0  0  0  0  0  0  0  0  0  0
    2.3524  -10.2837    2.5592 H   0  0  0  0  0  0  0  0  0  0  0  0
    0.7112  -10.2396    1.9300 H   0  0  0  0  0  0  0  0  0  0  0  0
   -1.2597   -9.0508    4.8373 H   0  0  0  0  0  0  0  0  0  0  0  0
   -1.7229   -7.3576    4.8184 H   0  0  0  0  0  0  0  0  0  0  0  0
   -0.2175   -7.8605    5.5374 H   0  0  0  0  0  0  0  0  0  0  0  0
   -1.8382   -9.1377    2.5793 H   0  0  0  0  0  0  0  0  0  0  0  0
   -1.0868   -8.2943    1.2778 H   0  0  0  0  0  0  0  0  0  0  0  0
   -2.1318   -7.4201    2.3815 H   0  0  0  0  0  0  0  0  0  0  0  0
    4.5699   -2.9485    2.2073 H   0  0  0  0  0  0  0  0  0  0  0  0
    3.1818   -3.0363    1.1495 H   0  0  0  0  0  0  0  0  0  0  0  0
    3.4796   -4.3441   -1.1799 H   0  0  0  0  0  0  0  0  0  0  0  0
    5.0228   -5.0688   -1.5536 H   0  0  0  0  0  0  0  0  0  0  0  0
  2  1  1  6
  1 25  1  0
  1 26  1  0
  1 27  1  0
  2  7  1  0
  2 24  1  0
  2  3  1  0
  3  4  1  0
  3 28  1  0
  3 29  1  0
  4 23  1  0
  4  5  1  0
  4 30  1  1
  5  6  1  0
  5 31  1  0
  5 32  1  0
  6  7  1  0
  6  8  1  0
  6 33  1  6
  7 34  1  0
  7 35  1  0
  8  9  1  0
  8 36  1  0
  8 37  1  0
  9 10  1  1
  9 23  1  0
  9 24  1  0
 10 11  1  0
 10 38  1  0
 10 39  1  0
 11 12  2  0
 11 13  1  0
 13 14  1  0
 13 40  1  0
 14 18  1  0
 14 15  1  0
 14 41  1  6
 15 20  1  0
 15 16  1  0
 15 42  1  6
 16 17  1  0
 16 43  1  0
 16 44  1  0
 17 18  1  0
 17 45  1  0
 17 46  1  0
 18 19  1  6
 18 20  1  0
 19 47  1  0
 19 48  1  0
 19 49  1  0
 20 21  1  0
 20 22  1  0
 21 50  1  0
 21 51  1  0
 21 52  1  0
 22 53  1  0
 22 54  1  0
 22 55  1  0
 23 56  1  0
 23 57  1  0
 24 58  1  0
 24 59  1  0
M  END
>  <i_m_ct_stereo_status>  (261) 
1

>  <s_m_source_file>  (261) 
/var/tmp/pbs.5076255.sched01/tmpn8rdt6mw/90ee43ygr2.sdf

>  <i_m_source_file_index>  (261) 
20

>  <i_lp_mmshare_version>  (261) 
48012

>  <i_f3d_flags>  (261) 
0

>  <s_epik_input>  (261) 
W0NIM11bQ0BdMTJbQ0gyXVtDQEBIXTNbQ0gyXVtDQEhdKFtDSDJdMSlbQ0gyXVtDQEBdKFtDSDJdMykoW0NIMl0yKVtDSDJdQyg9TylbTkhdW0NAQEhdKFtDQEBdNDVbQ0gzXSlbQ0BIXShbQ0gyXVtDSDJdNClDNShbQ0gzXSlbQ0gzXQ==

>  <s_epik_cmdline>  (261) 
J2VwaWtfcHl0aG9uJywgJy1waHQnLCAnMi4wJywgJy1waCcsICc3LjAnLCAnLXRuJywgJzgnLCAnLW1hJywgJzIwMCcsICctaW1hZScsICc8aW5maWxlLm1hZT4nLCAnLW9tYWUnLCAnPG91dGZpbGUubWFlPic=

>  <r_lp_tautomer_probability>  (261) 
1

>  <r_epik_Ionization_Penalty>  (261) 
1.04067e-07

>  <r_epik_Ionization_Penalty_Charging>  (261) 
0

>  <r_epik_Ionization_Penalty_Neutral>  (261) 
1.04067e-07

>  <r_epik_State_Penalty>  (261) 
-0

>  <r_epik_Charging_Adjusted_Penalty>  (261) 
0

>  <i_epik_Tot_Q>  (261) 
0

>  <i_epik_Tot_abs_Q>  (261) 
0

>  <s_lp_Force_Field>  (261) 
OPLS3e

>  <r_lp_Energy>  (261) 
46.5589

>  <b_lp_Chiralities_Consistent>  (261) 
1

>  <s_lp_Variant>  (261) 
67:0-1

>  <s_i_glide_gridfile>  (261) 
pfpi4k_grid

>  <i_i_glide_lignum>  (261) 
20

>  <i_i_glide_rotatable_bonds>  (261) 
4

>  <r_i_docking_score>  (261) 
-2.50621

>  <r_i_glide_ligand_efficiency>  (261) 
-0.104426

>  <r_i_glide_ligand_efficiency_sa>  (261) 
-0.301215

>  <r_i_glide_ligand_efficiency_ln>  (261) 
-0.599852

>  <r_i_glide_gscore>  (261) 
-2.50621

>  <r_i_glide_lipo>  (261) 
-0.611456

>  <r_i_glide_hbond>  (261) 
-0.0232677

>  <r_i_glide_metal>  (261) 
-0

>  <r_i_glide_rewards>  (261) 
-1.16237

>  <r_i_glide_evdw>  (261) 
-25.353

>  <r_i_glide_ecoul>  (261) 
-0.891543

>  <r_i_glide_erotb>  (261) 
0.692408

>  <r_i_glide_esite>  (261) 
-0.000149667

>  <r_i_glide_emodel>  (261) 
-30.3144

>  <r_i_glide_energy>  (261) 
-26.2445

>  <r_i_glide_einternal>  (261) 
0.108248

>  <r_i_glide_intrahb_reward>  (261) 
-0

>  <i_i_glide_confnum>  (261) 
6

>  <i_i_glide_posenum>  (261) 
1

>  <r_i_glide_eff_state_penalty>  (261) 
0

>  <ligand_id>  (261) 
67

>  <original_smiles>  (261) 
CC12CC3CC(C1)CC(CC(=O)NC1C4CCC1(C)C4(C)C)(C3)C2

>  <smiles>  (261) 
[H]N(C(=O)C([H])([H])C12C([H])([H])C3([H])C([H])([H])C([H])(C([H])([H])C(C([H])([H])[H])(C3([H])[H])C1([H])[H])C2([H])[H])C1([H])C2([H])C([H])([H])C([H])([H])C1(C([H])([H])[H])C2(C([H])([H])[H])C([H])([H])[H]

$$$$
67:0:2
     RDKit          3D

 59 63  0  0  1  0  0  0  0  0999 V2000
    3.9229   -0.4853    1.0836 C   0  0  0  0  0  0  0  0  0  0  0  0
    4.6423   -1.6653    0.4107 C   0  0  2  0  0  0  0  0  0  0  0  0
    6.1738   -1.4976    0.5043 C   0  0  0  0  0  0  0  0  0  0  0  0
    6.8758   -2.6917   -0.1797 C   0  0  2  0  0  0  0  0  0  0  0  0
    6.4638   -2.7606   -1.6637 C   0  0  0  0  0  0  0  0  0  0  0  0
    4.9440   -2.9505   -1.7558 C   0  0  2  0  0  0  0  0  0  0  0  0
    4.2161   -1.7746   -1.0725 C   0  0  0  0  0  0  0  0  0  0  0  0
    4.5491   -4.2555   -1.0543 C   0  0  0  0  0  0  0  0  0  0  0  0
    4.9264   -4.2095    0.4483 C   0  0  1  0  0  0  0  0  0  0  0  0
    4.5276   -5.5373    1.1567 C   0  0  0  0  0  0  0  0  0  0  0  0
    3.0401   -5.9366    1.1513 C   0  0  0  0  0  0  0  0  0  0  0  0
    2.1643   -5.1983    0.6929 O   0  0  0  0  0  0  0  0  0  0  0  0
    2.7256   -7.0955    1.7332 N   0  0  0  0  0  0  0  0  0  0  0  0
    1.3489   -7.4752    2.0243 C   0  0  2  0  0  0  0  0  0  0  0  0
    0.7022   -6.6380    3.1371 C   0  0  2  0  0  0  0  0  0  0  0  0
    1.6910   -6.5365    4.3065 C   0  0  0  0  0  0  0  0  0  0  0  0
    2.0963   -8.0164    4.3243 C   0  0  0  0  0  0  0  0  0  0  0  0
    1.2064   -8.4981    3.1606 C   0  0  2  0  0  0  0  0  0  0  0  0
    1.3306   -9.9851    2.8548 C   0  0  0  0  0  0  0  0  0  0  0  0
   -0.2183   -7.8766    3.3412 C   0  0  0  0  0  0  0  0  0  0  0  0
   -0.9029   -8.0245    4.7095 C   0  0  0  0  0  0  0  0  0  0  0  0
   -1.3677   -8.2081    2.3387 C   0  0  0  0  0  0  0  0  0  0  0  0
    6.4657   -4.0044    0.5329 C   0  0  0  0  0  0  0  0  0  0  0  0
    4.2556   -2.9764    1.1251 C   0  0  0  0  0  0  0  0  0  0  0  0
    4.1762   -0.4164    2.1414 H   0  0  0  0  0  0  0  0  0  0  0  0
    2.8394   -0.5955    1.0156 H   0  0  0  0  0  0  0  0  0  0  0  0
    4.1852    0.4636    0.6141 H   0  0  0  0  0  0  0  0  0  0  0  0
    6.4829   -0.5558    0.0482 H   0  0  0  0  0  0  0  0  0  0  0  0
    6.4801   -1.4475    1.5497 H   0  0  0  0  0  0  0  0  0  0  0  0
    7.9565   -2.5582   -0.1139 H   0  0  0  0  0  0  0  0  0  0  0  0
    6.7497   -1.8564   -2.1889 H   0  0  0  0  0  0  0  0  0  0  0  0
    6.9810   -3.5722   -2.1732 H   0  0  0  0  0  0  0  0  0  0  0  0
    4.6415   -3.0118   -2.8015 H   0  0  0  0  0  0  0  0  0  0  0  0
    3.1379   -1.9319   -1.1398 H   0  0  0  0  0  0  0  0  0  0  0  0
    4.4222   -0.8447   -1.6036 H   0  0  0  0  0  0  0  0  0  0  0  0
    3.4791   -4.3779   -1.1852 H   0  0  0  0  0  0  0  0  0  0  0  0
    5.0239   -5.1090   -1.5437 H   0  0  0  0  0  0  0  0  0  0  0  0
    5.0814   -6.3620    0.7097 H   0  0  0  0  0  0  0  0  0  0  0  0
    4.8597   -5.4967    2.1972 H   0  0  0  0  0  0  0  0  0  0  0  0
    3.4597   -7.6716    2.1247 H   0  0  0  0  0  0  0  0  0  0  0  0
    0.7727   -7.6287    1.1092 H   0  0  0  0  0  0  0  0  0  0  0  0
    0.2185   -5.7240    2.8150 H   0  0  0  0  0  0  0  0  0  0  0  0
    2.5200   -5.8621    4.0886 H   0  0  0  0  0  0  0  0  0  0  0  0
    1.2170   -6.1909    5.2235 H   0  0  0  0  0  0  0  0  0  0  0  0
    3.1585   -8.1585    4.1254 H   0  0  0  0  0  0  0  0  0  0  0  0
    1.8539   -8.5140    5.2602 H   0  0  0  0  0  0  0  0  0  0  0  0
    0.9765  -10.5862    3.6910 H   0  0  0  0  0  0  0  0  0  0  0  0
    2.3577  -10.2727    2.6233 H   0  0  0  0  0  0  0  0  0  0  0  0
    0.7177  -10.2476    1.9894 H   0  0  0  0  0  0  0  0  0  0  0  0
   -1.2647   -9.0429    4.8670 H   0  0  0  0  0  0  0  0  0  0  0  0
   -1.7473   -7.3414    4.8176 H   0  0  0  0  0  0  0  0  0  0  0  0
   -0.2390   -7.8161    5.5479 H   0  0  0  0  0  0  0  0  0  0  0  0
   -1.8402   -9.1566    2.6084 H   0  0  0  0  0  0  0  0  0  0  0  0
   -1.0905   -8.3316    1.2958 H   0  0  0  0  0  0  0  0  0  0  0  0
   -2.1459   -7.4456    2.3788 H   0  0  0  0  0  0  0  0  0  0  0  0
    6.9955   -4.8461    0.0807 H   0  0  0  0  0  0  0  0  0  0  0  0
    6.7958   -3.9709    1.5728 H   0  0  0  0  0  0  0  0  0  0  0  0
    4.5469   -2.9310    2.1777 H   0  0  0  0  0  0  0  0  0  0  0  0
    3.1680   -3.0349    1.1129 H   0  0  0  0  0  0  0  0  0  0  0  0
  2  1  1  1
  1 25  1  0
  1 26  1  0
  1 27  1  0
  2  7  1  0
  2 24  1  0
  2  3  1  0
  3  4  1  0
  3 28  1  0
  3 29  1  0
  4 23  1  0
  4  5  1  0
  4 30  1  6
  5  6  1  0
  5 31  1  0
  5 32  1  0
  6  7  1  0
  6  8  1  0
  6 33  1  6
  7 34  1  0
  7 35  1  0
  8  9  1  0
  8 36  1  0
  8 37  1  0
  9 10  1  1
  9 23  1  0
  9 24  1  0
 10 11  1  0
 10 38  1  0
 10 39  1  0
 11 12  2  0
 11 13  1  0
 13 14  1  0
 13 40  1  0
 14 18  1  0
 14 15  1  0
 14 41  1  6
 15 20  1  0
 15 16  1  0
 15 42  1  6
 16 17  1  0
 16 43  1  0
 16 44  1  0
 17 18  1  0
 17 45  1  0
 17 46  1  0
 18 19  1  6
 18 20  1  0
 19 47  1  0
 19 48  1  0
 19 49  1  0
 20 21  1  0
 20 22  1  0
 21 50  1  0
 21 51  1  0
 21 52  1  0
 22 53  1  0
 22 54  1  0
 22 55  1  0
 23 56  1  0
 23 57  1  0
 24 58  1  0
 24 59  1  0
M  END
>  <i_m_ct_stereo_status>  (262) 
1

>  <s_m_source_file>  (262) 
/var/tmp/pbs.5076255.sched01/tmpn8rdt6mw/90ee43ygr2.sdf

>  <i_m_source_file_index>  (262) 
20

>  <i_lp_mmshare_version>  (262) 
48012

>  <i_f3d_flags>  (262) 
0

>  <s_epik_input>  (262) 
W0NIM11bQ0BdMTJbQ0gyXVtDQEBIXTNbQ0gyXVtDQEhdKFtDSDJdMSlbQ0gyXVtDQEBdKFtDSDJdMykoW0NIMl0yKVtDSDJdQyg9TylbTkhdW0NAQEhdKFtDQEBdNDVbQ0gzXSlbQ0BIXShbQ0gyXVtDSDJdNClDNShbQ0gzXSlbQ0gzXQ==

>  <s_epik_cmdline>  (262) 
J2VwaWtfcHl0aG9uJywgJy1waHQnLCAnMi4wJywgJy1waCcsICc3LjAnLCAnLXRuJywgJzgnLCAnLW1hJywgJzIwMCcsICctaW1hZScsICc8aW5maWxlLm1hZT4nLCAnLW9tYWUnLCAnPG91dGZpbGUubWFlPic=

>  <r_lp_tautomer_probability>  (262) 
1

>  <r_epik_Ionization_Penalty>  (262) 
1.04067e-07

>  <r_epik_Ionization_Penalty_Charging>  (262) 
0

>  <r_epik_Ionization_Penalty_Neutral>  (262) 
1.04067e-07

>  <r_epik_State_Penalty>  (262) 
-0

>  <r_epik_Charging_Adjusted_Penalty>  (262) 
0

>  <i_epik_Tot_Q>  (262) 
0

>  <i_epik_Tot_abs_Q>  (262) 
0

>  <s_lp_Force_Field>  (262) 
OPLS3e

>  <r_lp_Energy>  (262) 
46.5589

>  <b_lp_Chiralities_Consistent>  (262) 
1

>  <s_lp_Variant>  (262) 
67:0-1

>  <s_i_glide_gridfile>  (262) 
pfpi4k_grid

>  <i_i_glide_lignum>  (262) 
20

>  <i_i_glide_rotatable_bonds>  (262) 
4

>  <r_i_docking_score>  (262) 
-2.40657

>  <r_i_glide_ligand_efficiency>  (262) 
-0.100274

>  <r_i_glide_ligand_efficiency_sa>  (262) 
-0.289239

>  <r_i_glide_ligand_efficiency_ln>  (262) 
-0.576002

>  <r_i_glide_gscore>  (262) 
-2.40657

>  <r_i_glide_lipo>  (262) 
-0.513645

>  <r_i_glide_hbond>  (262) 
-0.0278444

>  <r_i_glide_metal>  (262) 
-0

>  <r_i_glide_rewards>  (262) 
-1.16237

>  <r_i_glide_evdw>  (262) 
-24.4672

>  <r_i_glide_ecoul>  (262) 
-1.14355

>  <r_i_glide_erotb>  (262) 
0.692408

>  <r_i_glide_esite>  (262) 
-0.000224928

>  <r_i_glide_emodel>  (262) 
-29.4621

>  <r_i_glide_energy>  (262) 
-25.6107

>  <r_i_glide_einternal>  (262) 
0.139803

>  <r_i_glide_intrahb_reward>  (262) 
-0

>  <i_i_glide_confnum>  (262) 
4

>  <i_i_glide_posenum>  (262) 
8

>  <r_i_glide_eff_state_penalty>  (262) 
0

>  <ligand_id>  (262) 
67

>  <original_smiles>  (262) 
CC12CC3CC(C1)CC(CC(=O)NC1C4CCC1(C)C4(C)C)(C3)C2

>  <smiles>  (262) 
[H]N(C(=O)C([H])([H])C12C([H])([H])C3([H])C([H])([H])C([H])(C([H])([H])C(C([H])([H])[H])(C3([H])[H])C1([H])[H])C2([H])[H])C1([H])C2([H])C([H])([H])C([H])([H])C1(C([H])([H])[H])C2(C([H])([H])[H])C([H])([H])[H]

$$$$
68:0:0
     RDKit          3D

 85 91  0  0  1  0  0  0  0  0999 V2000
    5.8907   -4.4607    5.7911 C   0  0  0  0  0  0  0  0  0  0  0  0
    5.4889   -4.9645    7.1713 C   0  0  0  0  0  0  0  0  0  0  0  0
    6.0701   -4.5697    8.1905 O   0  0  0  0  0  0  0  0  0  0  0  0
    4.4675   -5.8544    7.1873 O   0  0  0  0  0  0  0  0  0  0  0  0
    3.7416   -6.3340    6.0303 C   0  0  2  0  0  0  0  0  0  0  0  0
    2.3800   -5.5823    6.0087 C   0  0  0  0  0  0  0  0  0  0  0  0
    1.4736   -5.6713    4.7242 C   0  0  1  0  0  0  0  0  0  0  0  0
    0.8961   -4.2679    4.2445 C   0  0  0  0  0  0  0  0  0  0  0  0
    1.6901   -2.9454    4.3516 C   0  0  1  0  0  0  0  0  0  0  0  0
    1.5109   -2.4001    5.6486 O   0  0  0  0  0  0  0  0  0  0  0  0
    3.1723   -2.9695    4.0092 C   0  0  1  0  0  0  0  0  0  0  0  0
    3.8859   -4.1338    3.3619 C   0  0  1  0  0  0  0  0  0  0  0  0
    3.3009   -5.4399    2.9688 C   0  0  0  0  0  0  0  0  0  0  0  0
    2.2897   -6.1989    3.4976 C   0  0  0  0  0  0  0  0  0  0  0  0
    1.9289   -7.5497    2.8024 C   0  0  2  0  0  0  0  0  0  0  0  0
    2.7714   -7.7836    1.4945 C   0  0  0  0  0  0  0  0  0  0  0  0
    0.5217   -7.3638    2.1493 C   0  0  0  0  0  0  0  0  0  0  0  0
    0.3012   -6.3702    1.4406 O   0  0  0  0  0  0  0  0  0  0  0  0
   -0.5246   -8.3560    2.3809 C   0  0  0  0  0  0  0  0  0  0  0  0
   -0.4598   -9.1157    3.4905 C   0  0  0  0  0  0  0  0  0  0  0  0
    0.6402   -9.0161    4.5360 C   0  0  2  0  0  0  0  0  0  0  0  0
    0.6964  -10.2561    5.1906 O   0  0  0  0  0  0  0  0  0  0  0  0
    0.1562   -7.9634    5.5826 C   0  0  1  0  0  0  0  0  0  0  0  0
    0.3673   -8.2704    7.0964 C   0  0  0  0  0  0  0  0  0  0  0  0
    0.1544   -6.4686    5.1378 C   0  0  1  0  0  0  0  0  0  0  0  0
   -0.5799   -5.7865    6.1425 O   0  0  0  0  0  0  0  0  0  0  0  0
    2.0493   -8.7990    3.8124 C   0  0  1  0  0  0  0  0  0  0  0  0
    2.2250  -10.1120    2.9603 C   0  0  0  0  0  0  0  0  0  0  0  0
    3.2490   -8.8246    4.8804 C   0  0  1  0  0  0  0  0  0  0  0  0
    4.6914   -9.1882    4.5143 C   0  0  2  0  0  0  0  0  0  0  0  0
    5.3088   -9.0094    3.2404 O   0  0  0  0  0  0  0  0  0  0  0  0
    5.6378  -10.1451    2.5522 C   0  0  0  0  0  0  0  0  0  0  0  0
    6.1264   -9.9437    1.1193 C   0  0  0  0  0  0  0  0  0  0  0  0
    5.5582  -11.2854    3.0059 O   0  0  0  0  0  0  0  0  0  0  0  0
    5.6008   -9.7894    5.5752 C   0  0  0  0  0  0  0  0  0  0  0  0
    5.1633   -8.3431    5.6819 C   0  0  2  0  0  0  0  0  0  0  0  0
    3.7444   -7.8914    6.0524 C   0  0  1  0  0  0  0  0  0  0  0  0
    3.5300   -8.3872    7.5043 C   0  0  0  0  0  0  0  0  0  0  0  0
    3.6743   -2.8704    2.5744 C   0  0  0  0  0  0  0  0  0  0  0  0
    2.7241   -2.8725    1.3919 C   0  0  0  0  0  0  0  0  0  0  0  0
    4.8758   -1.9822    2.3026 C   0  0  0  0  0  0  0  0  0  0  0  0
    6.1789   -5.2688    5.1315 H   0  0  0  0  0  0  0  0  0  0  0  0
    6.6975   -3.7293    5.8089 H   0  0  0  0  0  0  0  0  0  0  0  0
    5.0458   -3.9831    5.3423 H   0  0  0  0  0  0  0  0  0  0  0  0
    4.2763   -6.0623    5.1365 H   0  0  0  0  0  0  0  0  0  0  0  0
    1.8361   -5.8033    6.9243 H   0  0  0  0  0  0  0  0  0  0  0  0
    2.6661   -4.5458    6.1584 H   0  0  0  0  0  0  0  0  0  0  0  0
    0.6255   -4.3854    3.1998 H   0  0  0  0  0  0  0  0  0  0  0  0
   -0.0624   -4.0357    4.6906 H   0  0  0  0  0  0  0  0  0  0  0  0
    1.2312   -2.2163    3.6853 H   0  0  0  0  0  0  0  0  0  0  0  0
    1.9546   -1.5571    5.6917 H   0  0  0  0  0  0  0  0  0  0  0  0
    3.7597   -2.3817    4.7066 H   0  0  0  0  0  0  0  0  0  0  0  0
    4.9111   -4.2802    3.6168 H   0  0  0  0  0  0  0  0  0  0  0  0
    3.8622   -5.8058    2.1375 H   0  0  0  0  0  0  0  0  0  0  0  0
    2.7129   -6.9295    0.8277 H   0  0  0  0  0  0  0  0  0  0  0  0
    2.4124   -8.6024    0.8586 H   0  0  0  0  0  0  0  0  0  0  0  0
    3.8273   -7.9471    1.6815 H   0  0  0  0  0  0  0  0  0  0  0  0
   -1.3239   -8.4745    1.6612 H   0  0  0  0  0  0  0  0  0  0  0  0
   -1.2339   -9.8566    3.6721 H   0  0  0  0  0  0  0  0  0  0  0  0
   -0.2335  -10.5851    5.2900 H   0  0  0  0  0  0  0  0  0  0  0  0
   -0.9164   -8.1606    5.5723 H   0  0  0  0  0  0  0  0  0  0  0  0
    1.0636   -9.0829    7.2817 H   0  0  0  0  0  0  0  0  0  0  0  0
   -0.5637   -8.6043    7.5546 H   0  0  0  0  0  0  0  0  0  0  0  0
    0.6785   -7.4092    7.6807 H   0  0  0  0  0  0  0  0  0  0  0  0
   -0.5318   -6.3903    4.2978 H   0  0  0  0  0  0  0  0  0  0  0  0
   -0.0763   -5.8300    6.9479 H   0  0  0  0  0  0  0  0  0  0  0  0
    2.3066  -11.0042    3.5837 H   0  0  0  0  0  0  0  0  0  0  0  0
    3.1361  -10.1053    2.3774 H   0  0  0  0  0  0  0  0  0  0  0  0
    1.4292  -10.2854    2.2359 H   0  0  0  0  0  0  0  0  0  0  0  0
    2.9510   -9.6824    5.4508 H   0  0  0  0  0  0  0  0  0  0  0  0
    7.1002   -9.4611    1.0616 H   0  0  0  0  0  0  0  0  0  0  0  0
    5.3941   -9.3950    0.5428 H   0  0  0  0  0  0  0  0  0  0  0  0
    6.2171  -10.9234    0.6460 H   0  0  0  0  0  0  0  0  0  0  0  0
    5.1521  -10.5715    6.1934 H   0  0  0  0  0  0  0  0  0  0  0  0
    6.6385   -9.9742    5.2792 H   0  0  0  0  0  0  0  0  0  0  0  0
    5.9468   -7.6017    5.6170 H   0  0  0  0  0  0  0  0  0  0  0  0
    3.2453   -9.4371    7.5494 H   0  0  0  0  0  0  0  0  0  0  0  0
    2.7895   -7.8022    8.0413 H   0  0  0  0  0  0  0  0  0  0  0  0
    4.4451   -8.3007    8.0965 H   0  0  0  0  0  0  0  0  0  0  0  0
    3.2600   -3.2171    0.5050 H   0  0  0  0  0  0  0  0  0  0  0  0
    2.3175   -1.8711    1.2179 H   0  0  0  0  0  0  0  0  0  0  0  0
    1.9078   -3.5586    1.5831 H   0  0  0  0  0  0  0  0  0  0  0  0
    5.4221   -2.3509    1.4340 H   0  0  0  0  0  0  0  0  0  0  0  0
    5.5543   -2.0014    3.1538 H   0  0  0  0  0  0  0  0  0  0  0  0
    4.5766   -0.9487    2.1299 H   0  0  0  0  0  0  0  0  0  0  0  0
  1  2  1  0
  1 42  1  0
  1 43  1  0
  1 44  1  0
  2  3  2  0
  2  4  1  0
  4  5  1  0
  5 37  1  0
  5  6  1  0
  5 45  1  6
  7  6  1  1
  6 46  1  0
  6 47  1  0
  7 14  1  0
  7 25  1  0
  7  8  1  0
  8  9  1  0
  8 48  1  0
  8 49  1  0
  9 10  1  0
  9 11  1  0
  9 50  1  6
 10 51  1  0
 11 39  1  0
 11 12  1  0
 11 52  1  1
 12 13  1  0
 12 39  1  0
 12 53  1  1
 13 14  2  0
 13 54  1  0
 14 15  1  0
 15 27  1  0
 15 16  1  6
 15 17  1  0
 16 55  1  0
 16 56  1  0
 16 57  1  0
 17 18  2  0
 17 19  1  0
 19 20  2  0
 19 58  1  0
 20 21  1  0
 20 59  1  0
 21 22  1  1
 21 23  1  0
 21 27  1  0
 22 60  1  0
 23 24  1  0
 23 25  1  0
 23 61  1  1
 24 62  1  0
 24 63  1  0
 24 64  1  0
 25 26  1  0
 25 65  1  6
 26 66  1  0
 27 28  1  6
 27 29  1  0
 28 67  1  0
 28 68  1  0
 28 69  1  0
 29 37  1  0
 29 30  1  0
 29 70  1  1
 30 36  1  0
 30 31  1  6
 30 35  1  0
 31 32  1  0
 32 33  1  0
 32 34  2  0
 33 71  1  0
 33 72  1  0
 33 73  1  0
 35 36  1  0
 35 74  1  0
 35 75  1  0
 36 37  1  0
 36 76  1  6
 37 38  1  1
 38 77  1  0
 38 78  1  0
 38 79  1  0
 39 40  1  0
 39 41  1  0
 40 80  1  0
 40 81  1  0
 40 82  1  0
 41 83  1  0
 41 84  1  0
 41 85  1  0
M  END
>  <i_m_ct_stereo_status>  (263) 
1

>  <s_m_source_file>  (263) 
/var/tmp/pbs.5076255.sched01/tmpn8rdt6mw/90ee43ygr2.sdf

>  <i_m_source_file_index>  (263) 
21

>  <i_lp_mmshare_version>  (263) 
48012

>  <i_f3d_flags>  (263) 
0

>  <s_epik_input>  (263) 
W0NIM11DKD1PKU9bQ0BIXShbQ0gyXTEpW0NAXTIoW0NIM10pW0NAQEhdKFtDSDJdMylbQ0BdMyhPQyg9TylbQ0gzXSlbQ0BASF0yW0NAQF0oW0NIM10pKFtDQF0oW09IXSkoW0NIXT1bQ0hdQzQ9TylbQ0BASF0oW0NIM10pW0NASF01W09IXSlbQ0BdNChbQ0gzXSlDKFtDQF0xNTYpPVtDSF1bQ0BASF03W0NASF0oW0NAQEhdKFtDSDJdNilbT0hdKUM3KFtDSDNdKVtDSDNd

>  <s_epik_cmdline>  (263) 
J2VwaWtfcHl0aG9uJywgJy1waHQnLCAnMi4wJywgJy1waCcsICc3LjAnLCAnLXRuJywgJzgnLCAnLW1hJywgJzIwMCcsICctaW1hZScsICc8aW5maWxlLm1hZT4nLCAnLW9tYWUnLCAnPG91dGZpbGUubWFlPic=

>  <r_lp_tautomer_probability>  (263) 
1

>  <r_epik_Ionization_Penalty>  (263) 
5.02886e-07

>  <r_epik_Ionization_Penalty_Charging>  (263) 
0

>  <r_epik_Ionization_Penalty_Neutral>  (263) 
5.02886e-07

>  <r_epik_State_Penalty>  (263) 
-0

>  <r_epik_Charging_Adjusted_Penalty>  (263) 
0

>  <i_epik_Tot_Q>  (263) 
0

>  <i_epik_Tot_abs_Q>  (263) 
0

>  <s_epik_Chemistry_Notes>  (263) 
This compound has an ester and may undergo hydrolysis at high or low pH.

>  <s_lp_Force_Field>  (263) 
OPLS3e

>  <r_lp_Energy>  (263) 
148.986

>  <b_lp_Chiralities_Consistent>  (263) 
1

>  <s_lp_Variant>  (263) 
68:0-1

>  <s_i_glide_gridfile>  (263) 
pfpi4k_grid

>  <i_i_glide_lignum>  (263) 
21

>  <i_i_glide_rotatable_bonds>  (263) 
7

>  <r_i_docking_score>  (263) 
-2.76315

>  <r_i_glide_ligand_efficiency>  (263) 
-0.0673939

>  <r_i_glide_ligand_efficiency_sa>  (263) 
-0.232389

>  <r_i_glide_ligand_efficiency_ln>  (263) 
-0.586211

>  <r_i_glide_gscore>  (263) 
-2.76315

>  <r_i_glide_lipo>  (263) 
-0.102083

>  <r_i_glide_hbond>  (263) 
-0.357634

>  <r_i_glide_metal>  (263) 
-0

>  <r_i_glide_rewards>  (263) 
0

>  <r_i_glide_evdw>  (263) 
-26.7363

>  <r_i_glide_ecoul>  (263) 
-6.09427

>  <r_i_glide_erotb>  (263) 
0.0403331

>  <r_i_glide_esite>  (263) 
-0.0928086

>  <r_i_glide_emodel>  (263) 
-32.0747

>  <r_i_glide_energy>  (263) 
-32.8306

>  <r_i_glide_einternal>  (263) 
7.12667

>  <r_i_glide_intrahb_reward>  (263) 
-0

>  <i_i_glide_confnum>  (263) 
4

>  <i_i_glide_posenum>  (263) 
6

>  <r_i_glide_eff_state_penalty>  (263) 
0

>  <ligand_id>  (263) 
68

>  <original_smiles>  (263) 
CC(=O)OC1CC23CC(O)C4C(C=C2C2(C)C(=O)C=CC(O)(C(C)C3O)C2(C)C2C3(OC(C)=O)CC3C12C)C4(C)C

>  <smiles>  (263) 
[H]OC1([H])C([H])([H])C23C(=C([H])C4([H])C1([H])C4(C([H])([H])[H])C([H])([H])[H])C1(C([H])([H])[H])C(=O)C([H])=C([H])C(O[H])(C([H])(C([H])([H])[H])C2([H])O[H])C1(C([H])([H])[H])C1([H])C2(OC(=O)C([H])([H])[H])C([H])([H])C2([H])C1(C([H])([H])[H])C([H])(OC(=O)C([H])([H])[H])C3([H])[H]

$$$$
68:0:1
     RDKit          3D

 85 91  0  0  1  0  0  0  0  0999 V2000
    6.7487   -5.6595    5.0028 C   0  0  0  0  0  0  0  0  0  0  0  0
    6.2882   -5.4112    6.4339 C   0  0  0  0  0  0  0  0  0  0  0  0
    7.0379   -4.9070    7.2861 O   0  0  0  0  0  0  0  0  0  0  0  0
    4.9846   -5.7136    6.6851 O   0  0  0  0  0  0  0  0  0  0  0  0
    4.0448   -6.2647    5.7258 C   0  0  2  0  0  0  0  0  0  0  0  0
    2.9686   -5.1677    5.4782 C   0  0  0  0  0  0  0  0  0  0  0  0
    1.9554   -5.3231    4.2801 C   0  0  1  0  0  0  0  0  0  0  0  0
    1.7908   -4.0085    3.4069 C   0  0  0  0  0  0  0  0  0  0  0  0
    2.9498   -3.0239    3.1172 C   0  0  1  0  0  0  0  0  0  0  0  0
    3.0334   -2.0952    4.1844 O   0  0  0  0  0  0  0  0  0  0  0  0
    4.3171   -3.6155    2.8140 C   0  0  1  0  0  0  0  0  0  0  0  0
    4.6096   -5.0778    2.5120 C   0  0  1  0  0  0  0  0  0  0  0  0
    3.5931   -6.1737    2.5342 C   0  0  0  0  0  0  0  0  0  0  0  0
    2.4681   -6.3966    3.2520 C   0  0  0  0  0  0  0  0  0  0  0  0
    1.6499   -7.6991    3.0033 C   0  0  2  0  0  0  0  0  0  0  0  0
    2.2307   -8.5373    1.8041 C   0  0  0  0  0  0  0  0  0  0  0  0
    0.3046   -7.2951    2.3296 C   0  0  0  0  0  0  0  0  0  0  0  0
    0.3119   -6.5153    1.3589 O   0  0  0  0  0  0  0  0  0  0  0  0
   -0.9665   -7.8261    2.8322 C   0  0  0  0  0  0  0  0  0  0  0  0
   -1.0277   -8.2217    4.1220 C   0  0  0  0  0  0  0  0  0  0  0  0
    0.1531   -8.1639    5.0835 C   0  0  2  0  0  0  0  0  0  0  0  0
   -0.1766   -9.0988    6.1054 O   0  0  0  0  0  0  0  0  0  0  0  0
    0.1153   -6.7535    5.7725 C   0  0  1  0  0  0  0  0  0  0  0  0
    0.3591   -6.6687    7.3091 C   0  0  0  0  0  0  0  0  0  0  0  0
    0.5151   -5.5233    4.9064 C   0  0  1  0  0  0  0  0  0  0  0  0
    0.1157   -4.3923    5.6767 O   0  0  0  0  0  0  0  0  0  0  0  0
    1.4994   -8.6006    4.3343 C   0  0  1  0  0  0  0  0  0  0  0  0
    1.2518  -10.1003    3.9151 C   0  0  0  0  0  0  0  0  0  0  0  0
    2.7483   -8.6720    5.3226 C   0  0  1  0  0  0  0  0  0  0  0  0
    3.9907   -9.5222    5.0565 C   0  0  2  0  0  0  0  0  0  0  0  0
    4.4937   -9.9782    3.7700 O   0  0  0  0  0  0  0  0  0  0  0  0
    5.4516   -9.3985    2.9954 C   0  0  0  0  0  0  0  0  0  0  0  0
    5.7054  -10.2132    1.7236 C   0  0  0  0  0  0  0  0  0  0  0  0
    6.0513   -8.3466    3.2132 O   0  0  0  0  0  0  0  0  0  0  0  0
    4.7187  -10.1352    6.2356 C   0  0  0  0  0  0  0  0  0  0  0  0
    4.7683   -8.6390    5.9886 C   0  0  2  0  0  0  0  0  0  0  0  0
    3.5910   -7.6710    6.2111 C   0  0  1  0  0  0  0  0  0  0  0  0
    3.3646   -7.6468    7.7411 C   0  0  0  0  0  0  0  0  0  0  0  0
    4.6869   -4.0678    1.4019 C   0  0  0  0  0  0  0  0  0  0  0  0
    3.6705   -4.1103    0.2711 C   0  0  0  0  0  0  0  0  0  0  0  0
    6.0632   -3.7126    0.8681 C   0  0  0  0  0  0  0  0  0  0  0  0
    6.6402   -6.7115    4.7386 H   0  0  0  0  0  0  0  0  0  0  0  0
    7.8042   -5.4441    4.8414 H   0  0  0  0  0  0  0  0  0  0  0  0
    6.1415   -5.0603    4.3506 H   0  0  0  0  0  0  0  0  0  0  0  0
    4.5382   -6.4340    4.7821 H   0  0  0  0  0  0  0  0  0  0  0  0
    2.4713   -4.9386    6.4216 H   0  0  0  0  0  0  0  0  0  0  0  0
    3.5672   -4.2739    5.3121 H   0  0  0  0  0  0  0  0  0  0  0  0
    1.4104   -4.3294    2.4408 H   0  0  0  0  0  0  0  0  0  0  0  0
    0.9682   -3.3808    3.7527 H   0  0  0  0  0  0  0  0  0  0  0  0
    2.6648   -2.4079    2.2638 H   0  0  0  0  0  0  0  0  0  0  0  0
    2.2397   -1.5829    4.2217 H   0  0  0  0  0  0  0  0  0  0  0  0
    5.1114   -3.0626    3.3168 H   0  0  0  0  0  0  0  0  0  0  0  0
    5.5761   -5.5038    2.7317 H   0  0  0  0  0  0  0  0  0  0  0  0
    3.9430   -6.9154    1.8445 H   0  0  0  0  0  0  0  0  0  0  0  0
    2.3756   -7.9374    0.8988 H   0  0  0  0  0  0  0  0  0  0  0  0
    1.5760   -9.3546    1.4868 H   0  0  0  0  0  0  0  0  0  0  0  0
    3.1796   -8.9917    2.0193 H   0  0  0  0  0  0  0  0  0  0  0  0
   -1.8213   -7.8766    2.1810 H   0  0  0  0  0  0  0  0  0  0  0  0
   -1.9530   -8.6018    4.5279 H   0  0  0  0  0  0  0  0  0  0  0  0
   -0.5227   -9.8852    5.6932 H   0  0  0  0  0  0  0  0  0  0  0  0
   -0.9622   -6.5829    5.8090 H   0  0  0  0  0  0  0  0  0  0  0  0
    0.7905   -7.5695    7.7333 H   0  0  0  0  0  0  0  0  0  0  0  0
   -0.5852   -6.5328    7.8367 H   0  0  0  0  0  0  0  0  0  0  0  0
    0.9638   -5.8243    7.6120 H   0  0  0  0  0  0  0  0  0  0  0  0
   -0.1887   -5.4782    4.0863 H   0  0  0  0  0  0  0  0  0  0  0  0
    0.7072   -4.3097    6.4026 H   0  0  0  0  0  0  0  0  0  0  0  0
    1.0830  -10.7494    4.7747 H   0  0  0  0  0  0  0  0  0  0  0  0
    2.1056  -10.5492    3.4139 H   0  0  0  0  0  0  0  0  0  0  0  0
    0.4017  -10.2387    3.2487 H   0  0  0  0  0  0  0  0  0  0  0  0
    2.2742   -9.2356    6.1213 H   0  0  0  0  0  0  0  0  0  0  0  0
    4.8106  -10.2712    1.1191 H   0  0  0  0  0  0  0  0  0  0  0  0
    5.9807  -11.2438    1.9275 H   0  0  0  0  0  0  0  0  0  0  0  0
    6.4785   -9.7710    1.1108 H   0  0  0  0  0  0  0  0  0  0  0  0
    4.1087  -10.5134    7.0690 H   0  0  0  0  0  0  0  0  0  0  0  0
    5.6285  -10.6936    6.0240 H   0  0  0  0  0  0  0  0  0  0  0  0
    5.7564   -8.2465    5.8158 H   0  0  0  0  0  0  0  0  0  0  0  0
    2.7850   -8.5050    8.0944 H   0  0  0  0  0  0  0  0  0  0  0  0
    2.8805   -6.7326    8.0821 H   0  0  0  0  0  0  0  0  0  0  0  0
    4.3141   -7.6852    8.2846 H   0  0  0  0  0  0  0  0  0  0  0  0
    3.9972   -4.8424   -0.4704 H   0  0  0  0  0  0  0  0  0  0  0  0
    3.5613   -3.1239   -0.1929 H   0  0  0  0  0  0  0  0  0  0  0  0
    2.6981   -4.4302    0.6495 H   0  0  0  0  0  0  0  0  0  0  0  0
    6.3835   -4.4638    0.1548 H   0  0  0  0  0  0  0  0  0  0  0  0
    6.7830   -3.7032    1.6834 H   0  0  0  0  0  0  0  0  0  0  0  0
    6.0695   -2.7299    0.4006 H   0  0  0  0  0  0  0  0  0  0  0  0
  1  2  1  0
  1 42  1  0
  1 43  1  0
  1 44  1  0
  2  3  2  0
  2  4  1  0
  4  5  1  0
  5 37  1  0
  5  6  1  0
  5 45  1  6
  7  6  1  1
  6 46  1  0
  6 47  1  0
  7 14  1  0
  7 25  1  0
  7  8  1  0
  8  9  1  0
  8 48  1  0
  8 49  1  0
  9 10  1  0
  9 11  1  0
  9 50  1  6
 10 51  1  0
 11 39  1  0
 11 12  1  0
 11 52  1  1
 12 13  1  0
 12 39  1  0
 12 53  1  1
 13 14  2  0
 13 54  1  0
 14 15  1  0
 15 27  1  0
 15 16  1  6
 15 17  1  0
 16 55  1  0
 16 56  1  0
 16 57  1  0
 17 18  2  0
 17 19  1  0
 19 20  2  0
 19 58  1  0
 20 21  1  0
 20 59  1  0
 21 22  1  1
 21 23  1  0
 21 27  1  0
 22 60  1  0
 23 24  1  0
 23 25  1  0
 23 61  1  1
 24 62  1  0
 24 63  1  0
 24 64  1  0
 25 26  1  0
 25 65  1  6
 26 66  1  0
 27 28  1  6
 27 29  1  0
 28 67  1  0
 28 68  1  0
 28 69  1  0
 29 37  1  0
 29 30  1  0
 29 70  1  1
 30 36  1  0
 30 31  1  6
 30 35  1  0
 31 32  1  0
 32 33  1  0
 32 34  2  0
 33 71  1  0
 33 72  1  0
 33 73  1  0
 35 36  1  0
 35 74  1  0
 35 75  1  0
 36 37  1  0
 36 76  1  6
 37 38  1  1
 38 77  1  0
 38 78  1  0
 38 79  1  0
 39 40  1  0
 39 41  1  0
 40 80  1  0
 40 81  1  0
 40 82  1  0
 41 83  1  0
 41 84  1  0
 41 85  1  0
M  END
>  <i_m_ct_stereo_status>  (264) 
1

>  <s_m_source_file>  (264) 
/var/tmp/pbs.5076255.sched01/tmpn8rdt6mw/90ee43ygr2.sdf

>  <i_m_source_file_index>  (264) 
21

>  <i_lp_mmshare_version>  (264) 
48012

>  <i_f3d_flags>  (264) 
0

>  <s_epik_input>  (264) 
W0NIM11DKD1PKU9bQ0BIXShbQ0gyXTEpW0NAXTIoW0NIM10pW0NAQEhdKFtDSDJdMylbQ0BdMyhPQyg9TylbQ0gzXSlbQ0BASF0yW0NAQF0oW0NIM10pKFtDQF0oW09IXSkoW0NIXT1bQ0hdQzQ9TylbQ0BASF0oW0NIM10pW0NASF01W09IXSlbQ0BdNChbQ0gzXSlDKFtDQF0xNTYpPVtDSF1bQ0BASF03W0NASF0oW0NAQEhdKFtDSDJdNilbT0hdKUM3KFtDSDNdKVtDSDNd

>  <s_epik_cmdline>  (264) 
J2VwaWtfcHl0aG9uJywgJy1waHQnLCAnMi4wJywgJy1waCcsICc3LjAnLCAnLXRuJywgJzgnLCAnLW1hJywgJzIwMCcsICctaW1hZScsICc8aW5maWxlLm1hZT4nLCAnLW9tYWUnLCAnPG91dGZpbGUubWFlPic=

>  <r_lp_tautomer_probability>  (264) 
1

>  <r_epik_Ionization_Penalty>  (264) 
5.02886e-07

>  <r_epik_Ionization_Penalty_Charging>  (264) 
0

>  <r_epik_Ionization_Penalty_Neutral>  (264) 
5.02886e-07

>  <r_epik_State_Penalty>  (264) 
-0

>  <r_epik_Charging_Adjusted_Penalty>  (264) 
0

>  <i_epik_Tot_Q>  (264) 
0

>  <i_epik_Tot_abs_Q>  (264) 
0

>  <s_epik_Chemistry_Notes>  (264) 
This compound has an ester and may undergo hydrolysis at high or low pH.

>  <s_lp_Force_Field>  (264) 
OPLS3e

>  <r_lp_Energy>  (264) 
148.986

>  <b_lp_Chiralities_Consistent>  (264) 
1

>  <s_lp_Variant>  (264) 
68:0-1

>  <s_i_glide_gridfile>  (264) 
pfpi4k_grid

>  <i_i_glide_lignum>  (264) 
21

>  <i_i_glide_rotatable_bonds>  (264) 
7

>  <r_i_docking_score>  (264) 
-2.69771

>  <r_i_glide_ligand_efficiency>  (264) 
-0.0657977

>  <r_i_glide_ligand_efficiency_sa>  (264) 
-0.226885

>  <r_i_glide_ligand_efficiency_ln>  (264) 
-0.572327

>  <r_i_glide_gscore>  (264) 
-2.69771

>  <r_i_glide_lipo>  (264) 
-0.128111

>  <r_i_glide_hbond>  (264) 
-0.287933

>  <r_i_glide_metal>  (264) 
-0

>  <r_i_glide_rewards>  (264) 
0

>  <r_i_glide_evdw>  (264) 
-27.6279

>  <r_i_glide_ecoul>  (264) 
-5.81457

>  <r_i_glide_erotb>  (264) 
0.0403331

>  <r_i_glide_esite>  (264) 
-0.0684134

>  <r_i_glide_emodel>  (264) 
-34.6199

>  <r_i_glide_energy>  (264) 
-33.4425

>  <r_i_glide_einternal>  (264) 
6.24119

>  <r_i_glide_intrahb_reward>  (264) 
-0

>  <i_i_glide_confnum>  (264) 
4

>  <i_i_glide_posenum>  (264) 
36

>  <r_i_glide_eff_state_penalty>  (264) 
0

>  <ligand_id>  (264) 
68

>  <original_smiles>  (264) 
CC(=O)OC1CC23CC(O)C4C(C=C2C2(C)C(=O)C=CC(O)(C(C)C3O)C2(C)C2C3(OC(C)=O)CC3C12C)C4(C)C

>  <smiles>  (264) 
[H]OC1([H])C([H])([H])C23C(=C([H])C4([H])C1([H])C4(C([H])([H])[H])C([H])([H])[H])C1(C([H])([H])[H])C(=O)C([H])=C([H])C(O[H])(C([H])(C([H])([H])[H])C2([H])O[H])C1(C([H])([H])[H])C1([H])C2(OC(=O)C([H])([H])[H])C([H])([H])C2([H])C1(C([H])([H])[H])C([H])(OC(=O)C([H])([H])[H])C3([H])[H]

$$$$
68:0:2
     RDKit          3D

 85 91  0  0  1  0  0  0  0  0999 V2000
    6.8227   -5.7273    5.0672 C   0  0  0  0  0  0  0  0  0  0  0  0
    6.2781   -5.4503    6.4676 C   0  0  0  0  0  0  0  0  0  0  0  0
    6.9663   -4.8851    7.3110 O   0  0  0  0  0  0  0  0  0  0  0  0
    4.9709   -5.8015    6.6578 O   0  0  0  0  0  0  0  0  0  0  0  0
    4.0951   -6.4087    5.6719 C   0  0  2  0  0  0  0  0  0  0  0  0
    3.1034   -5.3085    5.2129 C   0  0  0  0  0  0  0  0  0  0  0  0
    2.1885   -5.5585    3.9551 C   0  0  1  0  0  0  0  0  0  0  0  0
    2.1549   -4.3586    2.9253 C   0  0  0  0  0  0  0  0  0  0  0  0
    3.3772   -3.4538    2.6380 C   0  0  1  0  0  0  0  0  0  0  0  0
    3.4138   -2.4109    3.5976 O   0  0  0  0  0  0  0  0  0  0  0  0
    4.7383   -4.1239    2.5180 C   0  0  1  0  0  0  0  0  0  0  0  0
    4.9640   -5.6143    2.4052 C   0  0  1  0  0  0  0  0  0  0  0  0
    3.9313   -6.6664    2.4627 C   0  0  0  0  0  0  0  0  0  0  0  0
    2.7327   -6.7712    3.1065 C   0  0  0  0  0  0  0  0  0  0  0  0
    1.8831   -8.0589    2.9281 C   0  0  2  0  0  0  0  0  0  0  0  0
    2.5674   -9.0519    1.9039 C   0  0  0  0  0  0  0  0  0  0  0  0
    0.6291   -7.6712    2.0892 C   0  0  0  0  0  0  0  0  0  0  0  0
    0.7574   -7.0008    1.0605 O   0  0  0  0  0  0  0  0  0  0  0  0
   -0.7140   -8.0929    2.5385 C   0  0  0  0  0  0  0  0  0  0  0  0
   -0.9131   -8.3182    3.8492 C   0  0  0  0  0  0  0  0  0  0  0  0
    0.1771   -8.2147    4.9110 C   0  0  2  0  0  0  0  0  0  0  0  0
   -0.2550   -9.0475    5.9940 O   0  0  0  0  0  0  0  0  0  0  0  0
    0.1514   -6.7395    5.4322 C   0  0  1  0  0  0  0  0  0  0  0  0
    0.2822   -6.4936    6.9638 C   0  0  0  0  0  0  0  0  0  0  0  0
    0.6892   -5.6395    4.4694 C   0  0  1  0  0  0  0  0  0  0  0  0
    0.2820   -4.4096    5.0753 O   0  0  0  0  0  0  0  0  0  0  0  0
    1.5502   -8.7909    4.3328 C   0  0  1  0  0  0  0  0  0  0  0  0
    1.2293  -10.3059    4.0091 C   0  0  0  0  0  0  0  0  0  0  0  0
    2.7076   -8.8144    5.4311 C   0  0  1  0  0  0  0  0  0  0  0  0
    3.8909   -9.7664    5.4375 C   0  0  2  0  0  0  0  0  0  0  0  0
    4.5479  -10.3500    4.2745 O   0  0  0  0  0  0  0  0  0  0  0  0
    4.3498  -11.6806    4.0895 C   0  0  0  0  0  0  0  0  0  0  0  0
    5.2288  -12.3392    3.0509 C   0  0  0  0  0  0  0  0  0  0  0  0
    3.5297  -12.3424    4.7333 O   0  0  0  0  0  0  0  0  0  0  0  0
    4.5685  -10.2033    6.7292 C   0  0  0  0  0  0  0  0  0  0  0  0
    4.6681   -8.7623    6.2438 C   0  0  2  0  0  0  0  0  0  0  0  0
    3.5264   -7.7437    6.2689 C   0  0  1  0  0  0  0  0  0  0  0  0
    3.1950   -7.5287    7.7544 C   0  0  0  0  0  0  0  0  0  0  0  0
    5.2088   -4.7411    1.2101 C   0  0  0  0  0  0  0  0  0  0  0  0
    4.2967   -4.8819    0.0014 C   0  0  0  0  0  0  0  0  0  0  0  0
    6.6403   -4.5043    0.7753 C   0  0  0  0  0  0  0  0  0  0  0  0
    6.7153   -6.7922    4.7931 H   0  0  0  0  0  0  0  0  0  0  0  0
    7.8503   -5.4464    4.9203 H   0  0  0  0  0  0  0  0  0  0  0  0
    6.1980   -5.1521    4.3960 H   0  0  0  0  0  0  0  0  0  0  0  0
    4.6570   -6.7104    4.8083 H   0  0  0  0  0  0  0  0  0  0  0  0
    2.5360   -4.9581    6.0755 H   0  0  0  0  0  0  0  0  0  0  0  0
    3.7480   -4.4626    5.0063 H   0  0  0  0  0  0  0  0  0  0  0  0
    1.8359   -4.7651    1.9711 H   0  0  0  0  0  0  0  0  0  0  0  0
    1.3432   -3.6598    3.1316 H   0  0  0  0  0  0  0  0  0  0  0  0
    3.2027   -2.9276    1.6983 H   0  0  0  0  0  0  0  0  0  0  0  0
    2.6546   -1.8790    3.5112 H   0  0  0  0  0  0  0  0  0  0  0  0
    5.5148   -3.5464    3.0240 H   0  0  0  0  0  0  0  0  0  0  0  0
    5.9185   -6.0467    2.7306 H   0  0  0  0  0  0  0  0  0  0  0  0
    4.3102   -7.5017    1.9006 H   0  0  0  0  0  0  0  0  0  0  0  0
    2.8017   -8.5750    0.9460 H   0  0  0  0  0  0  0  0  0  0  0  0
    1.9080   -9.8586    1.6004 H   0  0  0  0  0  0  0  0  0  0  0  0
    3.4948   -9.4970    2.2571 H   0  0  0  0  0  0  0  0  0  0  0  0
   -1.4997   -8.2095    1.8072 H   0  0  0  0  0  0  0  0  0  0  0  0
   -1.8902   -8.6429    4.2067 H   0  0  0  0  0  0  0  0  0  0  0  0
   -0.7262   -9.7857    5.6463 H   0  0  0  0  0  0  0  0  0  0  0  0
   -0.9226   -6.5316    5.3676 H   0  0  0  0  0  0  0  0  0  0  0  0
    0.6278   -7.3583    7.5168 H   0  0  0  0  0  0  0  0  0  0  0  0
   -0.6937   -6.2646    7.3886 H   0  0  0  0  0  0  0  0  0  0  0  0
    0.9043   -5.6420    7.2193 H   0  0  0  0  0  0  0  0  0  0  0  0
    0.0599   -5.6660    3.5904 H   0  0  0  0  0  0  0  0  0  0  0  0
    0.8164   -4.2646    5.8169 H   0  0  0  0  0  0  0  0  0  0  0  0
    1.0328  -10.8588    4.9358 H   0  0  0  0  0  0  0  0  0  0  0  0
    2.0579  -10.8162    3.5629 H   0  0  0  0  0  0  0  0  0  0  0  0
    0.3380  -10.4360    3.3682 H   0  0  0  0  0  0  0  0  0  0  0  0
    2.1286   -9.2425    6.2558 H   0  0  0  0  0  0  0  0  0  0  0  0
    6.2630  -12.4490    3.4035 H   0  0  0  0  0  0  0  0  0  0  0  0
    5.2274  -11.7795    2.1540 H   0  0  0  0  0  0  0  0  0  0  0  0
    4.8510  -13.3492    2.8284 H   0  0  0  0  0  0  0  0  0  0  0  0
    3.8568  -10.4711    7.5330 H   0  0  0  0  0  0  0  0  0  0  0  0
    5.4394  -10.8201    6.6333 H   0  0  0  0  0  0  0  0  0  0  0  0
    5.6744   -8.4310    6.0380 H   0  0  0  0  0  0  0  0  0  0  0  0
    2.5426   -8.3214    8.1535 H   0  0  0  0  0  0  0  0  0  0  0  0
    2.7228   -6.5723    7.9524 H   0  0  0  0  0  0  0  0  0  0  0  0
    4.0854   -7.5424    8.3836 H   0  0  0  0  0  0  0  0  0  0  0  0
    4.6540   -5.7036   -0.6224 H   0  0  0  0  0  0  0  0  0  0  0  0
    4.2764   -3.9507   -0.5711 H   0  0  0  0  0  0  0  0  0  0  0  0
    3.2854   -5.1209    0.3248 H   0  0  0  0  0  0  0  0  0  0  0  0
    6.9981   -5.3410    0.1794 H   0  0  0  0  0  0  0  0  0  0  0  0
    7.2903   -4.4242    1.6507 H   0  0  0  0  0  0  0  0  0  0  0  0
    6.7381   -3.5809    0.2024 H   0  0  0  0  0  0  0  0  0  0  0  0
  1  2  1  0
  1 42  1  0
  1 43  1  0
  1 44  1  0
  2  3  2  0
  2  4  1  0
  4  5  1  0
  5 37  1  0
  5  6  1  0
  5 45  1  6
  7  6  1  1
  6 46  1  0
  6 47  1  0
  7 14  1  0
  7 25  1  0
  7  8  1  0
  8  9  1  0
  8 48  1  0
  8 49  1  0
  9 10  1  0
  9 11  1  0
  9 50  1  6
 10 51  1  0
 11 39  1  0
 11 12  1  0
 11 52  1  1
 12 13  1  0
 12 39  1  0
 12 53  1  1
 13 14  2  0
 13 54  1  0
 14 15  1  0
 15 27  1  0
 15 16  1  6
 15 17  1  0
 16 55  1  0
 16 56  1  0
 16 57  1  0
 17 18  2  0
 17 19  1  0
 19 20  2  0
 19 58  1  0
 20 21  1  0
 20 59  1  0
 21 22  1  1
 21 23  1  0
 21 27  1  0
 22 60  1  0
 23 24  1  0
 23 25  1  0
 23 61  1  1
 24 62  1  0
 24 63  1  0
 24 64  1  0
 25 26  1  0
 25 65  1  6
 26 66  1  0
 27 28  1  6
 27 29  1  0
 28 67  1  0
 28 68  1  0
 28 69  1  0
 29 37  1  0
 29 30  1  0
 29 70  1  1
 30 36  1  0
 30 31  1  6
 30 35  1  0
 31 32  1  0
 32 33  1  0
 32 34  2  0
 33 71  1  0
 33 72  1  0
 33 73  1  0
 35 36  1  0
 35 74  1  0
 35 75  1  0
 36 37  1  0
 36 76  1  6
 37 38  1  1
 38 77  1  0
 38 78  1  0
 38 79  1  0
 39 40  1  0
 39 41  1  0
 40 80  1  0
 40 81  1  0
 40 82  1  0
 41 83  1  0
 41 84  1  0
 41 85  1  0
M  END
>  <i_m_ct_stereo_status>  (265) 
1

>  <s_m_source_file>  (265) 
/var/tmp/pbs.5076255.sched01/tmpn8rdt6mw/90ee43ygr2.sdf

>  <i_m_source_file_index>  (265) 
21

>  <i_lp_mmshare_version>  (265) 
48012

>  <i_f3d_flags>  (265) 
0

>  <s_epik_input>  (265) 
W0NIM11DKD1PKU9bQ0BIXShbQ0gyXTEpW0NAXTIoW0NIM10pW0NAQEhdKFtDSDJdMylbQ0BdMyhPQyg9TylbQ0gzXSlbQ0BASF0yW0NAQF0oW0NIM10pKFtDQF0oW09IXSkoW0NIXT1bQ0hdQzQ9TylbQ0BASF0oW0NIM10pW0NASF01W09IXSlbQ0BdNChbQ0gzXSlDKFtDQF0xNTYpPVtDSF1bQ0BASF03W0NASF0oW0NAQEhdKFtDSDJdNilbT0hdKUM3KFtDSDNdKVtDSDNd

>  <s_epik_cmdline>  (265) 
J2VwaWtfcHl0aG9uJywgJy1waHQnLCAnMi4wJywgJy1waCcsICc3LjAnLCAnLXRuJywgJzgnLCAnLW1hJywgJzIwMCcsICctaW1hZScsICc8aW5maWxlLm1hZT4nLCAnLW9tYWUnLCAnPG91dGZpbGUubWFlPic=

>  <r_lp_tautomer_probability>  (265) 
1

>  <r_epik_Ionization_Penalty>  (265) 
5.02886e-07

>  <r_epik_Ionization_Penalty_Charging>  (265) 
0

>  <r_epik_Ionization_Penalty_Neutral>  (265) 
5.02886e-07

>  <r_epik_State_Penalty>  (265) 
-0

>  <r_epik_Charging_Adjusted_Penalty>  (265) 
0

>  <i_epik_Tot_Q>  (265) 
0

>  <i_epik_Tot_abs_Q>  (265) 
0

>  <s_epik_Chemistry_Notes>  (265) 
This compound has an ester and may undergo hydrolysis at high or low pH.

>  <s_lp_Force_Field>  (265) 
OPLS3e

>  <r_lp_Energy>  (265) 
148.986

>  <b_lp_Chiralities_Consistent>  (265) 
1

>  <s_lp_Variant>  (265) 
68:0-1

>  <s_i_glide_gridfile>  (265) 
pfpi4k_grid

>  <i_i_glide_lignum>  (265) 
21

>  <i_i_glide_rotatable_bonds>  (265) 
7

>  <r_i_docking_score>  (265) 
-2.39136

>  <r_i_glide_ligand_efficiency>  (265) 
-0.0583259

>  <r_i_glide_ligand_efficiency_sa>  (265) 
-0.20112

>  <r_i_glide_ligand_efficiency_ln>  (265) 
-0.507335

>  <r_i_glide_gscore>  (265) 
-2.39136

>  <r_i_glide_lipo>  (265) 
-0.188739

>  <r_i_glide_hbond>  (265) 
-0.16

>  <r_i_glide_metal>  (265) 
-0

>  <r_i_glide_rewards>  (265) 
0

>  <r_i_glide_evdw>  (265) 
-29.6105

>  <r_i_glide_ecoul>  (265) 
-3.5406

>  <r_i_glide_erotb>  (265) 
0.0403331

>  <r_i_glide_esite>  (265) 
-0.0713396

>  <r_i_glide_emodel>  (265) 
-31.4732

>  <r_i_glide_energy>  (265) 
-33.1511

>  <r_i_glide_einternal>  (265) 
7.72257

>  <r_i_glide_intrahb_reward>  (265) 
-0

>  <i_i_glide_confnum>  (265) 
4

>  <i_i_glide_posenum>  (265) 
1

>  <r_i_glide_eff_state_penalty>  (265) 
0

>  <ligand_id>  (265) 
68

>  <original_smiles>  (265) 
CC(=O)OC1CC23CC(O)C4C(C=C2C2(C)C(=O)C=CC(O)(C(C)C3O)C2(C)C2C3(OC(C)=O)CC3C12C)C4(C)C

>  <smiles>  (265) 
[H]OC1([H])C([H])([H])C23C(=C([H])C4([H])C1([H])C4(C([H])([H])[H])C([H])([H])[H])C1(C([H])([H])[H])C(=O)C([H])=C([H])C(O[H])(C([H])(C([H])([H])[H])C2([H])O[H])C1(C([H])([H])[H])C1([H])C2(OC(=O)C([H])([H])[H])C([H])([H])C2([H])C1(C([H])([H])[H])C([H])(OC(=O)C([H])([H])[H])C3([H])[H]

$$$$
70:0:0
     RDKit          3D

 90 96  0  0  1  0  0  0  0  0999 V2000
    1.0758   -6.6748    1.4569 C   0  0  0  0  0  0  0  0  0  0  0  0
    2.4236   -6.5288    2.1976 C   0  0  0  0  0  0  0  0  0  0  0  0
    3.0172   -5.1294    1.9347 C   0  0  0  0  0  0  0  0  0  0  0  0
    2.1438   -6.6255    3.5512 O   0  0  0  0  0  0  0  0  0  0  0  0
    2.5442   -7.8305    4.1861 C   0  0  0  0  0  0  0  0  0  0  0  0
    3.9985   -7.7160    4.7575 C   0  0  1  0  0  0  0  0  0  0  0  0
    4.0007   -6.3095    5.5322 C   0  0  0  0  0  0  0  0  0  0  0  0
    2.8055   -5.7259    6.3729 C   0  0  0  0  0  0  0  0  0  0  0  0
    3.0147   -5.8209    7.9010 C   0  0  1  0  0  0  0  0  0  0  0  0
    2.8661   -4.6305    8.8394 C   0  0  0  0  0  0  0  0  0  0  0  0
    2.8769   -3.4552    8.4677 O   0  0  0  0  0  0  0  0  0  0  0  0
    2.7783   -5.1338   10.0588 O   0  0  0  0  0  0  0  0  0  0  0  0
    2.7380   -6.5491   10.0982 C   0  0  0  0  0  0  0  0  0  0  0  0
    2.2978   -6.9073    8.6684 C   0  0  1  0  0  0  0  0  0  0  0  0
    0.7407   -7.0587    8.6617 C   0  0  0  0  0  0  0  0  0  0  0  0
   -0.1967   -6.2699    8.5789 O   0  0  0  0  0  0  0  0  0  0  0  0
    0.8802   -8.6271    8.5845 C   0  0  0  0  0  0  0  0  0  0  0  0
    0.7878   -9.2747    9.9638 C   0  0  0  0  0  0  0  0  0  0  0  0
   -0.1395   -9.2220    7.6343 C   0  0  0  0  0  0  0  0  0  0  0  0
    2.2823   -8.3081    8.0333 C   0  0  2  0  0  0  0  0  0  0  0  0
    3.4376   -9.2269    8.1421 C   0  0  0  0  0  0  0  0  0  0  0  0
    4.5914   -8.8570    7.1756 C   0  0  0  0  0  0  0  0  0  0  0  0
    4.4682   -9.0500    5.5996 C   0  0  1  0  0  0  0  0  0  0  0  0
    3.4321  -10.1992    5.4446 C   0  0  0  0  0  0  0  0  0  0  0  0
    5.8890   -9.6804    5.1450 C   0  0  2  0  0  0  0  0  0  0  0  0
    7.2182   -8.8608    5.3991 C   0  0  2  0  0  0  0  0  0  0  0  0
    7.7707   -8.9605    6.8450 C   0  0  0  0  0  0  0  0  0  0  0  0
    7.1011   -7.3643    5.0388 C   0  0  0  0  0  0  0  0  0  0  0  0
    6.2969   -7.2000    3.7653 C   0  0  0  0  0  0  0  0  0  0  0  0
    4.9919   -7.5130    3.5716 C   0  0  0  0  0  0  0  0  0  0  0  0
    4.5703   -7.8118    2.0992 C   0  0  2  0  0  0  0  0  0  0  0  0
    5.3996   -7.0423    1.0347 C   0  0  0  0  0  0  0  0  0  0  0  0
    3.2235   -7.5499    1.6978 O   0  0  0  0  0  0  0  0  0  0  0  0
    4.7574   -9.3378    1.8020 C   0  0  2  0  0  0  0  0  0  0  0  0
    3.6456  -10.1566    2.0813 O   0  0  0  0  0  0  0  0  0  0  0  0
    6.0431   -9.9912    2.3804 C   0  0  0  0  0  0  0  0  0  0  0  0
    6.1310  -10.5808    3.8427 C   0  0  2  0  0  0  0  0  0  0  0  0
    5.4702  -11.9881    3.8845 C   0  0  0  0  0  0  0  0  0  0  0  0
    7.6353  -10.8610    4.0434 C   0  0  0  0  0  0  0  0  0  0  0  0
    8.2598   -9.5425    4.4842 C   0  0  0  0  0  0  0  0  0  0  0  0
    0.6717   -7.6754    1.6393 H   0  0  0  0  0  0  0  0  0  0  0  0
    1.2291   -6.5639    0.3862 H   0  0  0  0  0  0  0  0  0  0  0  0
    0.3632   -5.9364    1.8094 H   0  0  0  0  0  0  0  0  0  0  0  0
    3.9254   -4.9890    2.5234 H   0  0  0  0  0  0  0  0  0  0  0  0
    2.3065   -4.3673    2.2468 H   0  0  0  0  0  0  0  0  0  0  0  0
    3.2398   -4.9914    0.8791 H   0  0  0  0  0  0  0  0  0  0  0  0
    1.8150   -7.9662    4.9800 H   0  0  0  0  0  0  0  0  0  0  0  0
    2.3512   -8.6854    3.5569 H   0  0  0  0  0  0  0  0  0  0  0  0
    4.8866   -6.1524    6.1249 H   0  0  0  0  0  0  0  0  0  0  0  0
    4.1343   -5.5586    4.7530 H   0  0  0  0  0  0  0  0  0  0  0  0
    2.7670   -4.6551    6.1408 H   0  0  0  0  0  0  0  0  0  0  0  0
    1.8247   -6.0810    6.0722 H   0  0  0  0  0  0  0  0  0  0  0  0
    4.0829   -6.0076    8.0255 H   0  0  0  0  0  0  0  0  0  0  0  0
    3.7290   -6.9664   10.3236 H   0  0  0  0  0  0  0  0  0  0  0  0
    2.0424   -6.8841   10.8697 H   0  0  0  0  0  0  0  0  0  0  0  0
    1.0225  -10.3430    9.8603 H   0  0  0  0  0  0  0  0  0  0  0  0
   -0.1978   -9.1943   10.4087 H   0  0  0  0  0  0  0  0  0  0  0  0
    1.5177   -8.8908   10.6764 H   0  0  0  0  0  0  0  0  0  0  0  0
    0.1704  -10.2410    7.3716 H   0  0  0  0  0  0  0  0  0  0  0  0
   -0.2228   -8.6772    6.6960 H   0  0  0  0  0  0  0  0  0  0  0  0
   -1.1249   -9.2810    8.0664 H   0  0  0  0  0  0  0  0  0  0  0  0
    2.0918   -8.1612    6.9701 H   0  0  0  0  0  0  0  0  0  0  0  0
    3.8326   -9.1689    9.1615 H   0  0  0  0  0  0  0  0  0  0  0  0
    3.1228  -10.2668    8.0364 H   0  0  0  0  0  0  0  0  0  0  0  0
    4.9842   -7.8788    7.4255 H   0  0  0  0  0  0  0  0  0  0  0  0
    5.3468   -9.5368    7.5543 H   0  0  0  0  0  0  0  0  0  0  0  0
    3.7554  -11.1031    5.9649 H   0  0  0  0  0  0  0  0  0  0  0  0
    3.2665  -10.4798    4.4161 H   0  0  0  0  0  0  0  0  0  0  0  0
    2.4412   -9.9671    5.8284 H   0  0  0  0  0  0  0  0  0  0  0  0
    5.9934  -10.4846    5.8730 H   0  0  0  0  0  0  0  0  0  0  0  0
    8.7916   -8.5842    6.9027 H   0  0  0  0  0  0  0  0  0  0  0  0
    7.7873   -9.9923    7.2014 H   0  0  0  0  0  0  0  0  0  0  0  0
    7.2018   -8.3662    7.5579 H   0  0  0  0  0  0  0  0  0  0  0  0
    6.7175   -6.7998    5.8732 H   0  0  0  0  0  0  0  0  0  0  0  0
    8.0903   -6.9424    4.8659 H   0  0  0  0  0  0  0  0  0  0  0  0
    6.9630   -7.0941    2.9288 H   0  0  0  0  0  0  0  0  0  0  0  0
    6.4070   -7.4317    0.9111 H   0  0  0  0  0  0  0  0  0  0  0  0
    5.4887   -5.9788    1.2422 H   0  0  0  0  0  0  0  0  0  0  0  0
    4.9280   -7.1305    0.0525 H   0  0  0  0  0  0  0  0  0  0  0  0
    4.8300   -9.4203    0.7151 H   0  0  0  0  0  0  0  0  0  0  0  0
    3.7289  -10.9295    1.5172 H   0  0  0  0  0  0  0  0  0  0  0  0
    6.2568  -10.8265    1.7107 H   0  0  0  0  0  0  0  0  0  0  0  0
    6.8644   -9.3081    2.1903 H   0  0  0  0  0  0  0  0  0  0  0  0
    5.9957  -12.6800    3.2261 H   0  0  0  0  0  0  0  0  0  0  0  0
    4.4367  -12.0052    3.5461 H   0  0  0  0  0  0  0  0  0  0  0  0
    5.4890  -12.4286    4.8809 H   0  0  0  0  0  0  0  0  0  0  0  0
    7.7825  -11.5909    4.8385 H   0  0  0  0  0  0  0  0  0  0  0  0
    8.1225  -11.2579    3.1551 H   0  0  0  0  0  0  0  0  0  0  0  0
    8.4932   -8.9299    3.6147 H   0  0  0  0  0  0  0  0  0  0  0  0
    9.2161   -9.7210    4.9773 H   0  0  0  0  0  0  0  0  0  0  0  0
  1  2  1  0
  1 41  1  0
  1 42  1  0
  1 43  1  0
  2 33  1  0
  2  3  1  0
  2  4  1  0
  3 44  1  0
  3 45  1  0
  3 46  1  0
  4  5  1  0
  6  5  1  6
  5 47  1  0
  5 48  1  0
  6 23  1  0
  6 30  1  0
  6  7  1  0
  7  8  1  0
  7 49  1  0
  7 50  1  0
  8  9  1  0
  8 51  1  0
  8 52  1  0
  9 14  1  0
  9 10  1  0
  9 53  1  6
 10 11  2  0
 10 12  1  0
 12 13  1  0
 14 13  1  1
 13 54  1  0
 13 55  1  0
 14 20  1  0
 14 15  1  0
 15 16  2  0
 15 17  1  0
 17 18  1  0
 17 19  1  0
 17 20  1  0
 18 56  1  0
 18 57  1  0
 18 58  1  0
 19 59  1  0
 19 60  1  0
 19 61  1  0
 20 21  1  0
 20 62  1  6
 21 22  1  0
 21 63  1  0
 21 64  1  0
 22 23  1  0
 22 65  1  0
 22 66  1  0
 23 24  1  1
 23 25  1  0
 24 67  1  0
 24 68  1  0
 24 69  1  0
 25 37  1  0
 25 26  1  0
 25 70  1  1
 26 40  1  0
 26 27  1  1
 26 28  1  0
 27 71  1  0
 27 72  1  0
 27 73  1  0
 28 29  1  0
 28 74  1  0
 28 75  1  0
 29 30  2  0
 29 76  1  0
 30 31  1  0
 31 32  1  6
 31 33  1  0
 31 34  1  0
 32 77  1  0
 32 78  1  0
 32 79  1  0
 34 35  1  0
 34 36  1  0
 34 80  1  6
 35 81  1  0
 36 37  1  0
 36 82  1  0
 36 83  1  0
 37 38  1  6
 37 39  1  0
 38 84  1  0
 38 85  1  0
 38 86  1  0
 39 40  1  0
 39 87  1  0
 39 88  1  0
 40 89  1  0
 40 90  1  0
M  END
>  <i_m_ct_stereo_status>  (266) 
1

>  <s_m_source_file>  (266) 
/var/tmp/pbs.5076255.sched01/tmpn8rdt6mw/90ee43ygr2.sdf

>  <i_m_source_file_index>  (266) 
23

>  <i_lp_mmshare_version>  (266) 
48012

>  <i_f3d_flags>  (266) 
0

>  <s_epik_input>  (266) 
W0NIMl0xW0NIMl1bQ0BdMihbQ0gzXSlbQ0gyXVtDSF0oW09IXSlbQ0BAXShbQ0gzXSkoT0MoW0NIM10pKFtDSDNdKU9bQ0gyXTMpQzQ9W0NIXVtDSDJdW0NAQF0xKFtDSDNdKVtDQEhdMltDQEBdKFtDQF0zNDUpKFtDSDNdKVtDSDJdW0NIMl1bQ0BASF02W0NAXTcoQyg9TylDNihbQ0gzXSlbQ0gzXSlbQ0BASF0oW0NIMl1bQ0gyXTUpQyg9TylPW0NIMl03

>  <s_epik_cmdline>  (266) 
J2VwaWtfcHl0aG9uJywgJy1waHQnLCAnMi4wJywgJy1waCcsICc3LjAnLCAnLXRuJywgJzgnLCAnLW1hJywgJzIwMCcsICctaW1hZScsICc8aW5maWxlLm1hZT4nLCAnLW9tYWUnLCAnPG91dGZpbGUubWFlPic=

>  <r_lp_tautomer_probability>  (266) 
1

>  <r_epik_Ionization_Penalty>  (266) 
7.33012e-08

>  <r_epik_Ionization_Penalty_Charging>  (266) 
0

>  <r_epik_Ionization_Penalty_Neutral>  (266) 
7.33012e-08

>  <r_epik_State_Penalty>  (266) 
-0

>  <r_epik_Charging_Adjusted_Penalty>  (266) 
0

>  <i_epik_Tot_Q>  (266) 
0

>  <i_epik_Tot_abs_Q>  (266) 
0

>  <s_epik_Chemistry_Notes>  (266) 
This compound has an ester and may undergo hydrolysis at high or low pH.

>  <s_lp_Force_Field>  (266) 
OPLS3e

>  <r_lp_Energy>  (266) 
140.994

>  <b_lp_Chiralities_Consistent>  (266) 
1

>  <s_lp_Variant>  (266) 
70:0-1

>  <s_i_glide_gridfile>  (266) 
pfpi4k_grid

>  <i_i_glide_lignum>  (266) 
23

>  <i_i_glide_rotatable_bonds>  (266) 
1

>  <r_i_docking_score>  (266) 
-1.97631

>  <r_i_glide_ligand_efficiency>  (266) 
-0.0494078

>  <r_i_glide_ligand_efficiency_sa>  (266) 
-0.168972

>  <r_i_glide_ligand_efficiency_ln>  (266) 
-0.421489

>  <r_i_glide_gscore>  (266) 
-1.97631

>  <r_i_glide_lipo>  (266) 
-0.110025

>  <r_i_glide_hbond>  (266) 
-0.159592

>  <r_i_glide_metal>  (266) 
-0

>  <r_i_glide_rewards>  (266) 
0

>  <r_i_glide_evdw>  (266) 
-19.4576

>  <r_i_glide_ecoul>  (266) 
-4.70927

>  <r_i_glide_erotb>  (266) 
0

>  <r_i_glide_esite>  (266) 
-0.0274226

>  <r_i_glide_emodel>  (266) 
-27.339

>  <r_i_glide_energy>  (266) 
-24.1669

>  <r_i_glide_einternal>  (266) 
0.472095

>  <r_i_glide_intrahb_reward>  (266) 
-0

>  <i_i_glide_confnum>  (266) 
1

>  <i_i_glide_posenum>  (266) 
26

>  <r_i_glide_eff_state_penalty>  (266) 
0

>  <ligand_id>  (266) 
70

>  <original_smiles>  (266) 
CC1(C)OCC23CCC4C(=O)OCC45C(=O)C(C)(C)C5CCC2(C)C2C4(C)CC=C3C(C)(O1)C(O)CC2(C)CC4

>  <smiles>  (266) 
[H]OC1([H])C([H])([H])C2(C([H])([H])[H])C([H])([H])C([H])([H])C3(C([H])([H])[H])C([H])([H])C([H])=C4C1(C([H])([H])[H])OC(C([H])([H])[H])(C([H])([H])[H])OC([H])([H])C41C([H])([H])C([H])([H])C4([H])C(=O)OC([H])([H])C45C(=O)C(C([H])([H])[H])(C([H])([H])[H])C5([H])C([H])([H])C([H])([H])C1(C([H])([H])[H])C32[H]

$$$$
70:0:1
     RDKit          3D

 90 96  0  0  1  0  0  0  0  0999 V2000
   -1.4032   -7.4810    4.4487 C   0  0  0  0  0  0  0  0  0  0  0  0
   -0.2715   -7.8838    3.5007 C   0  0  0  0  0  0  0  0  0  0  0  0
   -0.8351   -8.4089    2.1799 C   0  0  0  0  0  0  0  0  0  0  0  0
    0.4458   -6.7269    3.2262 O   0  0  0  0  0  0  0  0  0  0  0  0
    1.7253   -6.6222    3.8357 C   0  0  0  0  0  0  0  0  0  0  0  0
    2.8537   -7.2390    2.9352 C   0  0  1  0  0  0  0  0  0  0  0  0
    2.5662   -6.6079    1.4865 C   0  0  0  0  0  0  0  0  0  0  0  0
    2.0849   -5.1431    1.2032 C   0  0  0  0  0  0  0  0  0  0  0  0
    3.1876   -4.1974    0.6757 C   0  0  1  0  0  0  0  0  0  0  0  0
    3.0096   -3.3611   -0.5781 C   0  0  0  0  0  0  0  0  0  0  0  0
    2.1412   -3.5159   -1.4373 O   0  0  0  0  0  0  0  0  0  0  0  0
    3.9913   -2.4485   -0.5646 O   0  0  0  0  0  0  0  0  0  0  0  0
    4.7589   -2.4832    0.6411 C   0  0  0  0  0  0  0  0  0  0  0  0
    3.8259   -3.2087    1.6202 C   0  0  1  0  0  0  0  0  0  0  0  0
    2.9896   -2.1413    2.3988 C   0  0  0  0  0  0  0  0  0  0  0  0
    1.9428   -1.5346    2.1842 O   0  0  0  0  0  0  0  0  0  0  0  0
    3.8820   -2.3662    3.6678 C   0  0  0  0  0  0  0  0  0  0  0  0
    5.0428   -1.3781    3.7926 C   0  0  0  0  0  0  0  0  0  0  0  0
    3.0668   -2.3672    4.9628 C   0  0  0  0  0  0  0  0  0  0  0  0
    4.1672   -3.7320    3.0250 C   0  0  2  0  0  0  0  0  0  0  0  0
    5.4211   -4.5192    3.2463 C   0  0  0  0  0  0  0  0  0  0  0  0
    5.2883   -5.9948    2.7918 C   0  0  0  0  0  0  0  0  0  0  0  0
    4.3637   -7.0432    3.5558 C   0  0  1  0  0  0  0  0  0  0  0  0
    4.2986   -6.5009    5.0113 C   0  0  0  0  0  0  0  0  0  0  0  0
    5.2516   -8.3970    3.6409 C   0  0  2  0  0  0  0  0  0  0  0  0
    5.7248   -9.0940    2.2979 C   0  0  2  0  0  0  0  0  0  0  0  0
    6.9788   -8.4551    1.6439 C   0  0  0  0  0  0  0  0  0  0  0  0
    4.6160   -9.1660    1.2287 C   0  0  0  0  0  0  0  0  0  0  0  0
    3.2874   -9.5109    1.8668 C   0  0  0  0  0  0  0  0  0  0  0  0
    2.5844   -8.7656    2.7562 C   0  0  0  0  0  0  0  0  0  0  0  0
    1.6098   -9.5376    3.6987 C   0  0  2  0  0  0  0  0  0  0  0  0
    1.0153  -10.8339    3.0745 C   0  0  0  0  0  0  0  0  0  0  0  0
    0.4479   -8.8598    4.1903 O   0  0  0  0  0  0  0  0  0  0  0  0
    2.3639   -9.9786    4.9961 C   0  0  2  0  0  0  0  0  0  0  0  0
    2.3185   -9.0526    6.0565 O   0  0  0  0  0  0  0  0  0  0  0  0
    3.8161  -10.4895    4.7981 C   0  0  0  0  0  0  0  0  0  0  0  0
    5.0859   -9.5480    4.7417 C   0  0  2  0  0  0  0  0  0  0  0  0
    5.4964   -9.1373    6.1846 C   0  0  0  0  0  0  0  0  0  0  0  0
    6.2240  -10.4750    4.2625 C   0  0  0  0  0  0  0  0  0  0  0  0
    6.1348  -10.5167    2.7434 C   0  0  0  0  0  0  0  0  0  0  0  0
   -0.9741   -7.1137    5.3805 H   0  0  0  0  0  0  0  0  0  0  0  0
   -2.0189   -8.3548    4.6685 H   0  0  0  0  0  0  0  0  0  0  0  0
   -2.0297   -6.7018    4.0140 H   0  0  0  0  0  0  0  0  0  0  0  0
   -0.0176   -8.6052    1.4951 H   0  0  0  0  0  0  0  0  0  0  0  0
   -1.4639   -7.6479    1.7266 H   0  0  0  0  0  0  0  0  0  0  0  0
   -1.4264   -9.3145    2.3292 H   0  0  0  0  0  0  0  0  0  0  0  0
    1.8641   -5.5627    3.9891 H   0  0  0  0  0  0  0  0  0  0  0  0
    1.6999   -6.9935    4.8534 H   0  0  0  0  0  0  0  0  0  0  0  0
    3.3478   -6.7946    0.7729 H   0  0  0  0  0  0  0  0  0  0  0  0
    1.7554   -7.2095    1.0732 H   0  0  0  0  0  0  0  0  0  0  0  0
    1.3871   -5.2440    0.3751 H   0  0  0  0  0  0  0  0  0  0  0  0
    1.5143   -4.6942    2.0145 H   0  0  0  0  0  0  0  0  0  0  0  0
    3.9745   -4.8634    0.3313 H   0  0  0  0  0  0  0  0  0  0  0  0
    5.6878   -3.0400    0.4917 H   0  0  0  0  0  0  0  0  0  0  0  0
    5.0041   -1.4641    0.9434 H   0  0  0  0  0  0  0  0  0  0  0  0
    5.6851   -1.6809    4.6174 H   0  0  0  0  0  0  0  0  0  0  0  0
    4.6999   -0.3641    3.9976 H   0  0  0  0  0  0  0  0  0  0  0  0
    5.6818   -1.3515    2.9105 H   0  0  0  0  0  0  0  0  0  0  0  0
    3.6385   -2.8381    5.7629 H   0  0  0  0  0  0  0  0  0  0  0  0
    2.1333   -2.9222    4.8670 H   0  0  0  0  0  0  0  0  0  0  0  0
    2.8241   -1.3562    5.2837 H   0  0  0  0  0  0  0  0  0  0  0  0
    3.3474   -4.3566    3.3459 H   0  0  0  0  0  0  0  0  0  0  0  0
    6.2180   -4.0643    2.6672 H   0  0  0  0  0  0  0  0  0  0  0  0
    5.7452   -4.4351    4.2845 H   0  0  0  0  0  0  0  0  0  0  0  0
    5.1350   -6.0370    1.7205 H   0  0  0  0  0  0  0  0  0  0  0  0
    6.3246   -6.2919    2.9070 H   0  0  0  0  0  0  0  0  0  0  0  0
    5.2949   -6.4131    5.4452 H   0  0  0  0  0  0  0  0  0  0  0  0
    3.7265   -7.1385    5.6674 H   0  0  0  0  0  0  0  0  0  0  0  0
    3.8350   -5.5220    5.1017 H   0  0  0  0  0  0  0  0  0  0  0  0
    6.1945   -7.9991    4.0104 H   0  0  0  0  0  0  0  0  0  0  0  0
    7.3897   -9.1021    0.8695 H   0  0  0  0  0  0  0  0  0  0  0  0
    7.7720   -8.2794    2.3702 H   0  0  0  0  0  0  0  0  0  0  0  0
    6.7595   -7.5146    1.1456 H   0  0  0  0  0  0  0  0  0  0  0  0
    4.5985   -8.2757    0.6217 H   0  0  0  0  0  0  0  0  0  0  0  0
    4.8616   -9.9437    0.5091 H   0  0  0  0  0  0  0  0  0  0  0  0
    3.0986  -10.5658    1.7821 H   0  0  0  0  0  0  0  0  0  0  0  0
    1.7365  -11.6494    3.0052 H   0  0  0  0  0  0  0  0  0  0  0  0
    0.6040  -10.6785    2.0798 H   0  0  0  0  0  0  0  0  0  0  0  0
    0.2082  -11.2211    3.6992 H   0  0  0  0  0  0  0  0  0  0  0  0
    1.7953  -10.8182    5.4041 H   0  0  0  0  0  0  0  0  0  0  0  0
    2.3984   -9.5367    6.8652 H   0  0  0  0  0  0  0  0  0  0  0  0
    3.9901  -11.1746    5.6296 H   0  0  0  0  0  0  0  0  0  0  0  0
    3.8014  -11.1582    3.9411 H   0  0  0  0  0  0  0  0  0  0  0  0
    5.7785  -10.0145    6.7687 H   0  0  0  0  0  0  0  0  0  0  0  0
    4.7018   -8.6589    6.7487 H   0  0  0  0  0  0  0  0  0  0  0  0
    6.3580   -8.4687    6.1981 H   0  0  0  0  0  0  0  0  0  0  0  0
    7.1954  -10.0621    4.5416 H   0  0  0  0  0  0  0  0  0  0  0  0
    6.1781  -11.4720    4.7009 H   0  0  0  0  0  0  0  0  0  0  0  0
    5.4011  -11.2623    2.4370 H   0  0  0  0  0  0  0  0  0  0  0  0
    7.0787  -10.8484    2.3156 H   0  0  0  0  0  0  0  0  0  0  0  0
  1  2  1  0
  1 41  1  0
  1 42  1  0
  1 43  1  0
  2 33  1  0
  2  3  1  0
  2  4  1  0
  3 44  1  0
  3 45  1  0
  3 46  1  0
  4  5  1  0
  6  5  1  1
  5 47  1  0
  5 48  1  0
  6 23  1  0
  6 30  1  0
  6  7  1  0
  7  8  1  0
  7 49  1  0
  7 50  1  0
  8  9  1  0
  8 51  1  0
  8 52  1  0
  9 14  1  0
  9 10  1  0
  9 53  1  6
 10 11  2  0
 10 12  1  0
 12 13  1  0
 14 13  1  6
 13 54  1  0
 13 55  1  0
 14 20  1  0
 14 15  1  0
 15 16  2  0
 15 17  1  0
 17 18  1  0
 17 19  1  0
 17 20  1  0
 18 56  1  0
 18 57  1  0
 18 58  1  0
 19 59  1  0
 19 60  1  0
 19 61  1  0
 20 21  1  0
 20 62  1  1
 21 22  1  0
 21 63  1  0
 21 64  1  0
 22 23  1  0
 22 65  1  0
 22 66  1  0
 23 24  1  1
 23 25  1  0
 24 67  1  0
 24 68  1  0
 24 69  1  0
 25 37  1  0
 25 26  1  0
 25 70  1  1
 26 40  1  0
 26 27  1  6
 26 28  1  0
 27 71  1  0
 27 72  1  0
 27 73  1  0
 28 29  1  0
 28 74  1  0
 28 75  1  0
 29 30  2  0
 29 76  1  0
 30 31  1  0
 31 32  1  6
 31 33  1  0
 31 34  1  0
 32 77  1  0
 32 78  1  0
 32 79  1  0
 34 35  1  0
 34 36  1  0
 34 80  1  1
 35 81  1  0
 36 37  1  0
 36 82  1  0
 36 83  1  0
 37 38  1  1
 37 39  1  0
 38 84  1  0
 38 85  1  0
 38 86  1  0
 39 40  1  0
 39 87  1  0
 39 88  1  0
 40 89  1  0
 40 90  1  0
M  END
>  <i_m_ct_stereo_status>  (267) 
1

>  <s_m_source_file>  (267) 
/var/tmp/pbs.5076255.sched01/tmpn8rdt6mw/90ee43ygr2.sdf

>  <i_m_source_file_index>  (267) 
23

>  <i_lp_mmshare_version>  (267) 
48012

>  <i_f3d_flags>  (267) 
0

>  <s_epik_input>  (267) 
W0NIMl0xW0NIMl1bQ0BdMihbQ0gzXSlbQ0gyXVtDSF0oW09IXSlbQ0BAXShbQ0gzXSkoT0MoW0NIM10pKFtDSDNdKU9bQ0gyXTMpQzQ9W0NIXVtDSDJdW0NAQF0xKFtDSDNdKVtDQEhdMltDQEBdKFtDQF0zNDUpKFtDSDNdKVtDSDJdW0NIMl1bQ0BASF02W0NAXTcoQyg9TylDNihbQ0gzXSlbQ0gzXSlbQ0BASF0oW0NIMl1bQ0gyXTUpQyg9TylPW0NIMl03

>  <s_epik_cmdline>  (267) 
J2VwaWtfcHl0aG9uJywgJy1waHQnLCAnMi4wJywgJy1waCcsICc3LjAnLCAnLXRuJywgJzgnLCAnLW1hJywgJzIwMCcsICctaW1hZScsICc8aW5maWxlLm1hZT4nLCAnLW9tYWUnLCAnPG91dGZpbGUubWFlPic=

>  <r_lp_tautomer_probability>  (267) 
1

>  <r_epik_Ionization_Penalty>  (267) 
7.33012e-08

>  <r_epik_Ionization_Penalty_Charging>  (267) 
0

>  <r_epik_Ionization_Penalty_Neutral>  (267) 
7.33012e-08

>  <r_epik_State_Penalty>  (267) 
-0

>  <r_epik_Charging_Adjusted_Penalty>  (267) 
0

>  <i_epik_Tot_Q>  (267) 
0

>  <i_epik_Tot_abs_Q>  (267) 
0

>  <s_epik_Chemistry_Notes>  (267) 
This compound has an ester and may undergo hydrolysis at high or low pH.

>  <s_lp_Force_Field>  (267) 
OPLS3e

>  <r_lp_Energy>  (267) 
140.994

>  <b_lp_Chiralities_Consistent>  (267) 
1

>  <s_lp_Variant>  (267) 
70:0-1

>  <s_i_glide_gridfile>  (267) 
pfpi4k_grid

>  <i_i_glide_lignum>  (267) 
23

>  <i_i_glide_rotatable_bonds>  (267) 
1

>  <r_i_docking_score>  (267) 
-1.84631

>  <r_i_glide_ligand_efficiency>  (267) 
-0.0461577

>  <r_i_glide_ligand_efficiency_sa>  (267) 
-0.157857

>  <r_i_glide_ligand_efficiency_ln>  (267) 
-0.393763

>  <r_i_glide_gscore>  (267) 
-1.84631

>  <r_i_glide_lipo>  (267) 
-0.402072

>  <r_i_glide_hbond>  (267) 
0

>  <r_i_glide_metal>  (267) 
-0

>  <r_i_glide_rewards>  (267) 
-0.0591579

>  <r_i_glide_evdw>  (267) 
-29.9945

>  <r_i_glide_ecoul>  (267) 
1.08641

>  <r_i_glide_erotb>  (267) 
0

>  <r_i_glide_esite>  (267) 
-0.0483169

>  <r_i_glide_emodel>  (267) 
-31.7543

>  <r_i_glide_energy>  (267) 
-28.908

>  <r_i_glide_einternal>  (267) 
0.541125

>  <r_i_glide_intrahb_reward>  (267) 
-0

>  <i_i_glide_confnum>  (267) 
2

>  <i_i_glide_posenum>  (267) 
18

>  <r_i_glide_eff_state_penalty>  (267) 
0

>  <ligand_id>  (267) 
70

>  <original_smiles>  (267) 
CC1(C)OCC23CCC4C(=O)OCC45C(=O)C(C)(C)C5CCC2(C)C2C4(C)CC=C3C(C)(O1)C(O)CC2(C)CC4

>  <smiles>  (267) 
[H]OC1([H])C([H])([H])C2(C([H])([H])[H])C([H])([H])C([H])([H])C3(C([H])([H])[H])C([H])([H])C([H])=C4C1(C([H])([H])[H])OC(C([H])([H])[H])(C([H])([H])[H])OC([H])([H])C41C([H])([H])C([H])([H])C4([H])C(=O)OC([H])([H])C45C(=O)C(C([H])([H])[H])(C([H])([H])[H])C5([H])C([H])([H])C([H])([H])C1(C([H])([H])[H])C32[H]

$$$$
70:0:2
     RDKit          3D

 90 96  0  0  1  0  0  0  0  0999 V2000
   -1.6917   -7.5533    4.0884 C   0  0  0  0  0  0  0  0  0  0  0  0
   -0.3741   -7.8969    3.3868 C   0  0  0  0  0  0  0  0  0  0  0  0
   -0.6164   -8.2384    1.9163 C   0  0  0  0  0  0  0  0  0  0  0  0
    0.4054   -6.7508    3.4324 O   0  0  0  0  0  0  0  0  0  0  0  0
    1.5095   -6.7793    4.3253 C   0  0  0  0  0  0  0  0  0  0  0  0
    2.8039   -7.3413    3.6367 C   0  0  1  0  0  0  0  0  0  0  0  0
    2.8686   -6.5323    2.2487 C   0  0  0  0  0  0  0  0  0  0  0  0
    2.4811   -5.0201    2.0459 C   0  0  0  0  0  0  0  0  0  0  0  0
    3.7062   -4.0830    1.9071 C   0  0  1  0  0  0  0  0  0  0  0  0
    3.8492   -3.1127    0.7537 C   0  0  0  0  0  0  0  0  0  0  0  0
    3.2297   -3.1589   -0.3090 O   0  0  0  0  0  0  0  0  0  0  0  0
    4.8109   -2.2443    1.1071 O   0  0  0  0  0  0  0  0  0  0  0  0
    5.2818   -2.4517    2.4423 C   0  0  0  0  0  0  0  0  0  0  0  0
    4.1331   -3.2397    3.0864 C   0  0  1  0  0  0  0  0  0  0  0  0
    3.1622   -2.2278    3.7762 C   0  0  0  0  0  0  0  0  0  0  0  0
    2.2137   -1.5439    3.3965 O   0  0  0  0  0  0  0  0  0  0  0  0
    3.7265   -2.6388    5.1805 C   0  0  0  0  0  0  0  0  0  0  0  0
    4.8450   -1.7275    5.6888 C   0  0  0  0  0  0  0  0  0  0  0  0
    2.6288   -2.7480    6.2410 C   0  0  0  0  0  0  0  0  0  0  0  0
    4.1298   -3.9341    4.4594 C   0  0  2  0  0  0  0  0  0  0  0  0
    5.2815   -4.8011    4.8704 C   0  0  0  0  0  0  0  0  0  0  0  0
    5.2283   -6.2060    4.2169 C   0  0  0  0  0  0  0  0  0  0  0  0
    4.1285   -7.2896    4.6103 C   0  0  1  0  0  0  0  0  0  0  0  0
    3.7333   -6.9136    6.0674 C   0  0  0  0  0  0  0  0  0  0  0  0
    4.9430   -8.6865    4.7327 C   0  0  2  0  0  0  0  0  0  0  0  0
    5.7040   -9.2507    3.4605 C   0  0  2  0  0  0  0  0  0  0  0  0
    7.0874   -8.5984    3.2000 C   0  0  0  0  0  0  0  0  0  0  0  0
    4.8775   -9.1633    2.1596 C   0  0  0  0  0  0  0  0  0  0  0  0
    3.4309   -9.5072    2.4314 C   0  0  0  0  0  0  0  0  0  0  0  0
    2.5573   -8.8261    3.2166 C   0  0  0  0  0  0  0  0  0  0  0  0
    1.3761   -9.6459    3.8140 C   0  0  2  0  0  0  0  0  0  0  0  0
    0.9175  -10.8299    2.9209 C   0  0  0  0  0  0  0  0  0  0  0  0
    0.1456   -8.9754    4.1005 O   0  0  0  0  0  0  0  0  0  0  0  0
    1.7915  -10.2645    5.1878 C   0  0  2  0  0  0  0  0  0  0  0  0
    1.5123   -9.4743    6.3212 O   0  0  0  0  0  0  0  0  0  0  0  0
    3.2361  -10.8232    5.2707 C   0  0  0  0  0  0  0  0  0  0  0  0
    4.5027   -9.9441    5.6204 C   0  0  2  0  0  0  0  0  0  0  0  0
    4.5709   -9.7196    7.1575 C   0  0  0  0  0  0  0  0  0  0  0  0
    5.7023  -10.8636    5.3085 C   0  0  0  0  0  0  0  0  0  0  0  0
    5.9725  -10.7301    3.8167 C   0  0  0  0  0  0  0  0  0  0  0  0
   -1.4808   -7.3132    5.1296 H   0  0  0  0  0  0  0  0  0  0  0  0
   -2.3606   -8.4147    4.0581 H   0  0  0  0  0  0  0  0  0  0  0  0
   -2.1834   -6.7003    3.6219 H   0  0  0  0  0  0  0  0  0  0  0  0
    0.3314   -8.3872    1.4048 H   0  0  0  0  0  0  0  0  0  0  0  0
   -1.1040   -7.3999    1.4314 H   0  0  0  0  0  0  0  0  0  0  0  0
   -1.2487   -9.1228    1.8138 H   0  0  0  0  0  0  0  0  0  0  0  0
    1.6290   -5.7517    4.6338 H   0  0  0  0  0  0  0  0  0  0  0  0
    1.2388   -7.2618    5.2573 H   0  0  0  0  0  0  0  0  0  0  0  0
    3.7950   -6.6760    1.7202 H   0  0  0  0  0  0  0  0  0  0  0  0
    2.1707   -7.0478    1.5885 H   0  0  0  0  0  0  0  0  0  0  0  0
    1.9475   -4.9690    1.0953 H   0  0  0  0  0  0  0  0  0  0  0  0
    1.7605   -4.6380    2.7657 H   0  0  0  0  0  0  0  0  0  0  0  0
    4.5392   -4.7440    1.6792 H   0  0  0  0  0  0  0  0  0  0  0  0
    6.2101   -3.0299    2.4422 H   0  0  0  0  0  0  0  0  0  0  0  0
    5.4736   -1.4870    2.9161 H   0  0  0  0  0  0  0  0  0  0  0  0
    5.2784   -2.1523    6.5929 H   0  0  0  0  0  0  0  0  0  0  0  0
    4.4819   -0.7292    5.9321 H   0  0  0  0  0  0  0  0  0  0  0  0
    5.6692   -1.6280    4.9838 H   0  0  0  0  0  0  0  0  0  0  0  0
    2.9864   -3.3332    7.0887 H   0  0  0  0  0  0  0  0  0  0  0  0
    1.7336   -3.2432    5.8645 H   0  0  0  0  0  0  0  0  0  0  0  0
    2.3376   -1.7695    6.6165 H   0  0  0  0  0  0  0  0  0  0  0  0
    3.2455   -4.5525    4.5023 H   0  0  0  0  0  0  0  0  0  0  0  0
    6.2092   -4.3243    4.5635 H   0  0  0  0  0  0  0  0  0  0  0  0
    5.3477   -4.8549    5.9576 H   0  0  0  0  0  0  0  0  0  0  0  0
    5.3289   -6.1181    3.1418 H   0  0  0  0  0  0  0  0  0  0  0  0
    6.2020   -6.5658    4.5297 H   0  0  0  0  0  0  0  0  0  0  0  0
    4.6012   -6.9231    6.7276 H   0  0  0  0  0  0  0  0  0  0  0  0
    3.0110   -7.5937    6.4922 H   0  0  0  0  0  0  0  0  0  0  0  0
    3.2813   -5.9303    6.1677 H   0  0  0  0  0  0  0  0  0  0  0  0
    5.7796   -8.3780    5.3561 H   0  0  0  0  0  0  0  0  0  0  0  0
    7.6587   -9.1765    2.4774 H   0  0  0  0  0  0  0  0  0  0  0  0
    7.6877   -8.5410    4.1075 H   0  0  0  0  0  0  0  0  0  0  0  0
    7.0131   -7.6002    2.7756 H   0  0  0  0  0  0  0  0  0  0  0  0
    5.0164   -8.2079    1.6789 H   0  0  0  0  0  0  0  0  0  0  0  0
    5.2544   -9.8802    1.4283 H   0  0  0  0  0  0  0  0  0  0  0  0
    3.2468  -10.5366    2.1774 H   0  0  0  0  0  0  0  0  0  0  0  0
    1.6128  -11.6699    2.9168 H   0  0  0  0  0  0  0  0  0  0  0  0
    0.7394  -10.5448    1.8880 H   0  0  0  0  0  0  0  0  0  0  0  0
   -0.0177  -11.2274    3.3082 H   0  0  0  0  0  0  0  0  0  0  0  0
    1.1259  -11.1160    5.3450 H   0  0  0  0  0  0  0  0  0  0  0  0
    1.4224  -10.0732    7.0520 H   0  0  0  0  0  0  0  0  0  0  0  0
    3.1941  -11.6057    6.0314 H   0  0  0  0  0  0  0  0  0  0  0  0
    3.4082  -11.3911    4.3593 H   0  0  0  0  0  0  0  0  0  0  0  0
    4.6887  -10.6710    7.6786 H   0  0  0  0  0  0  0  0  0  0  0  0
    3.6749   -9.2722    7.5771 H   0  0  0  0  0  0  0  0  0  0  0  0
    5.4182   -9.0994    7.4514 H   0  0  0  0  0  0  0  0  0  0  0  0
    6.5883  -10.5314    5.8523 H   0  0  0  0  0  0  0  0  0  0  0  0
    5.5343  -11.8999    5.6003 H   0  0  0  0  0  0  0  0  0  0  0  0
    5.3169  -11.4014    3.2620 H   0  0  0  0  0  0  0  0  0  0  0  0
    6.9851  -11.0531    3.5819 H   0  0  0  0  0  0  0  0  0  0  0  0
  1  2  1  0
  1 41  1  0
  1 42  1  0
  1 43  1  0
  2 33  1  0
  2  3  1  0
  2  4  1  0
  3 44  1  0
  3 45  1  0
  3 46  1  0
  4  5  1  0
  6  5  1  1
  5 47  1  0
  5 48  1  0
  6 23  1  0
  6 30  1  0
  6  7  1  0
  7  8  1  0
  7 49  1  0
  7 50  1  0
  8  9  1  0
  8 51  1  0
  8 52  1  0
  9 14  1  0
  9 10  1  0
  9 53  1  6
 10 11  2  0
 10 12  1  0
 12 13  1  0
 14 13  1  6
 13 54  1  0
 13 55  1  0
 14 20  1  0
 14 15  1  0
 15 16  2  0
 15 17  1  0
 17 18  1  0
 17 19  1  0
 17 20  1  0
 18 56  1  0
 18 57  1  0
 18 58  1  0
 19 59  1  0
 19 60  1  0
 19 61  1  0
 20 21  1  0
 20 62  1  6
 21 22  1  0
 21 63  1  0
 21 64  1  0
 22 23  1  0
 22 65  1  0
 22 66  1  0
 23 24  1  1
 23 25  1  0
 24 67  1  0
 24 68  1  0
 24 69  1  0
 25 37  1  0
 25 26  1  0
 25 70  1  1
 26 40  1  0
 26 27  1  6
 26 28  1  0
 27 71  1  0
 27 72  1  0
 27 73  1  0
 28 29  1  0
 28 74  1  0
 28 75  1  0
 29 30  2  0
 29 76  1  0
 30 31  1  0
 31 32  1  6
 31 33  1  0
 31 34  1  0
 32 77  1  0
 32 78  1  0
 32 79  1  0
 34 35  1  0
 34 36  1  0
 34 80  1  1
 35 81  1  0
 36 37  1  0
 36 82  1  0
 36 83  1  0
 37 38  1  1
 37 39  1  0
 38 84  1  0
 38 85  1  0
 38 86  1  0
 39 40  1  0
 39 87  1  0
 39 88  1  0
 40 89  1  0
 40 90  1  0
M  END
>  <i_m_ct_stereo_status>  (268) 
1

>  <s_m_source_file>  (268) 
/var/tmp/pbs.5076255.sched01/tmpn8rdt6mw/90ee43ygr2.sdf

>  <i_m_source_file_index>  (268) 
23

>  <i_lp_mmshare_version>  (268) 
48012

>  <i_f3d_flags>  (268) 
0

>  <s_epik_input>  (268) 
W0NIMl0xW0NIMl1bQ0BdMihbQ0gzXSlbQ0gyXVtDSF0oW09IXSlbQ0BAXShbQ0gzXSkoT0MoW0NIM10pKFtDSDNdKU9bQ0gyXTMpQzQ9W0NIXVtDSDJdW0NAQF0xKFtDSDNdKVtDQEhdMltDQEBdKFtDQF0zNDUpKFtDSDNdKVtDSDJdW0NIMl1bQ0BASF02W0NAXTcoQyg9TylDNihbQ0gzXSlbQ0gzXSlbQ0BASF0oW0NIMl1bQ0gyXTUpQyg9TylPW0NIMl03

>  <s_epik_cmdline>  (268) 
J2VwaWtfcHl0aG9uJywgJy1waHQnLCAnMi4wJywgJy1waCcsICc3LjAnLCAnLXRuJywgJzgnLCAnLW1hJywgJzIwMCcsICctaW1hZScsICc8aW5maWxlLm1hZT4nLCAnLW9tYWUnLCAnPG91dGZpbGUubWFlPic=

>  <r_lp_tautomer_probability>  (268) 
1

>  <r_epik_Ionization_Penalty>  (268) 
7.33012e-08

>  <r_epik_Ionization_Penalty_Charging>  (268) 
0

>  <r_epik_Ionization_Penalty_Neutral>  (268) 
7.33012e-08

>  <r_epik_State_Penalty>  (268) 
-0

>  <r_epik_Charging_Adjusted_Penalty>  (268) 
0

>  <i_epik_Tot_Q>  (268) 
0

>  <i_epik_Tot_abs_Q>  (268) 
0

>  <s_epik_Chemistry_Notes>  (268) 
This compound has an ester and may undergo hydrolysis at high or low pH.

>  <s_lp_Force_Field>  (268) 
OPLS3e

>  <r_lp_Energy>  (268) 
140.994

>  <b_lp_Chiralities_Consistent>  (268) 
1

>  <s_lp_Variant>  (268) 
70:0-1

>  <s_i_glide_gridfile>  (268) 
pfpi4k_grid

>  <i_i_glide_lignum>  (268) 
23

>  <i_i_glide_rotatable_bonds>  (268) 
1

>  <r_i_docking_score>  (268) 
-1.61859

>  <r_i_glide_ligand_efficiency>  (268) 
-0.0404647

>  <r_i_glide_ligand_efficiency_sa>  (268) 
-0.138387

>  <r_i_glide_ligand_efficiency_ln>  (268) 
-0.345197

>  <r_i_glide_gscore>  (268) 
-1.61859

>  <r_i_glide_lipo>  (268) 
-0.251546

>  <r_i_glide_hbond>  (268) 
0

>  <r_i_glide_metal>  (268) 
-0

>  <r_i_glide_rewards>  (268) 
-4.1027e-06

>  <r_i_glide_evdw>  (268) 
-24.728

>  <r_i_glide_ecoul>  (268) 
-0.532214

>  <r_i_glide_erotb>  (268) 
0

>  <r_i_glide_esite>  (268) 
-0.0508062

>  <r_i_glide_emodel>  (268) 
-27.7362

>  <r_i_glide_energy>  (268) 
-25.2602

>  <r_i_glide_einternal>  (268) 
0.507145

>  <r_i_glide_intrahb_reward>  (268) 
-0

>  <i_i_glide_confnum>  (268) 
2

>  <i_i_glide_posenum>  (268) 
25

>  <r_i_glide_eff_state_penalty>  (268) 
0

>  <ligand_id>  (268) 
70

>  <original_smiles>  (268) 
CC1(C)OCC23CCC4C(=O)OCC45C(=O)C(C)(C)C5CCC2(C)C2C4(C)CC=C3C(C)(O1)C(O)CC2(C)CC4

>  <smiles>  (268) 
[H]OC1([H])C([H])([H])C2(C([H])([H])[H])C([H])([H])C([H])([H])C3(C([H])([H])[H])C([H])([H])C([H])=C4C1(C([H])([H])[H])OC(C([H])([H])[H])(C([H])([H])[H])OC([H])([H])C41C([H])([H])C([H])([H])C4([H])C(=O)OC([H])([H])C45C(=O)C(C([H])([H])[H])(C([H])([H])[H])C5([H])C([H])([H])C([H])([H])C1(C([H])([H])[H])C32[H]

$$$$
70:1:0
     RDKit          3D

 90 96  0  0  1  0  0  0  0  0999 V2000
   -0.2371    1.1471    2.2292 C   0  0  0  0  0  0  0  0  0  0  0  0
    0.2777    0.3813    3.4667 C   0  0  0  0  0  0  0  0  0  0  0  0
   -0.8937    0.0740    4.4249 C   0  0  0  0  0  0  0  0  0  0  0  0
    0.7862   -0.8232    3.0124 O   0  0  0  0  0  0  0  0  0  0  0  0
    2.1986   -0.9475    3.0348 C   0  0  0  0  0  0  0  0  0  0  0  0
    2.6875   -1.5443    4.4022 C   0  0  1  0  0  0  0  0  0  0  0  0
    1.7361   -2.8121    4.6311 C   0  0  0  0  0  0  0  0  0  0  0  0
    1.2359   -3.7802    3.5045 C   0  0  0  0  0  0  0  0  0  0  0  0
    1.9343   -5.1561    3.4881 C   0  0  1  0  0  0  0  0  0  0  0  0
    1.1742   -6.4750    3.4871 C   0  0  0  0  0  0  0  0  0  0  0  0
   -0.0226   -6.5812    3.7851 O   0  0  0  0  0  0  0  0  0  0  0  0
    2.0485   -7.4000    3.1365 O   0  0  0  0  0  0  0  0  0  0  0  0
    3.3194   -6.8849    2.7725 C   0  0  0  0  0  0  0  0  0  0  0  0
    2.9954   -5.4173    2.4467 C   0  0  1  0  0  0  0  0  0  0  0  0
    2.7127   -5.3154    0.9141 C   0  0  0  0  0  0  0  0  0  0  0  0
    1.7114   -5.5164    0.2150 O   0  0  0  0  0  0  0  0  0  0  0  0
    4.1152   -4.6260    0.6897 C   0  0  0  0  0  0  0  0  0  0  0  0
    5.1877   -5.6281    0.2774 C   0  0  0  0  0  0  0  0  0  0  0  0
    4.0342   -3.4964   -0.3204 C   0  0  0  0  0  0  0  0  0  0  0  0
    3.9953   -4.2774    2.1870 C   0  0  2  0  0  0  0  0  0  0  0  0
    5.1529   -4.0436    3.0809 C   0  0  0  0  0  0  0  0  0  0  0  0
    4.7611   -3.3317    4.4014 C   0  0  0  0  0  0  0  0  0  0  0  0
    4.3124   -1.8037    4.4418 C   0  0  1  0  0  0  0  0  0  0  0  0
    4.9974   -1.1729    3.1956 C   0  0  0  0  0  0  0  0  0  0  0  0
    5.0741   -1.1868    5.7304 C   0  0  2  0  0  0  0  0  0  0  0  0
    4.7705   -1.7665    7.1682 C   0  0  2  0  0  0  0  0  0  0  0  0
    5.5375   -3.0722    7.5017 C   0  0  0  0  0  0  0  0  0  0  0  0
    3.2693   -2.0116    7.4420 C   0  0  0  0  0  0  0  0  0  0  0  0
    2.4369   -0.8844    6.8606 C   0  0  0  0  0  0  0  0  0  0  0  0
    2.3084   -0.5548    5.5534 C   0  0  0  0  0  0  0  0  0  0  0  0
    1.9447    0.9371    5.2493 C   0  0  2  0  0  0  0  0  0  0  0  0
    1.1208    1.6417    6.3592 C   0  0  0  0  0  0  0  0  0  0  0  0
    1.2362    1.2083    4.0400 O   0  0  0  0  0  0  0  0  0  0  0  0
    3.3002    1.6706    5.0000 C   0  0  1  0  0  0  0  0  0  0  0  0
    3.0588    3.0665    4.9069 O   0  0  0  0  0  0  0  0  0  0  0  0
    4.3675    1.4514    6.1012 C   0  0  0  0  0  0  0  0  0  0  0  0
    5.4655    0.3477    5.9233 C   0  0  2  0  0  0  0  0  0  0  0  0
    6.5307    0.8876    4.9443 C   0  0  0  0  0  0  0  0  0  0  0  0
    6.1725    0.2485    7.2842 C   0  0  0  0  0  0  0  0  0  0  0  0
    5.3107   -0.6821    8.1290 C   0  0  0  0  0  0  0  0  0  0  0  0
    0.5969    1.3671    1.5558 H   0  0  0  0  0  0  0  0  0  0  0  0
   -0.6785    2.0932    2.5363 H   0  0  0  0  0  0  0  0  0  0  0  0
   -0.9816    0.5658    1.6911 H   0  0  0  0  0  0  0  0  0  0  0  0
   -0.5533   -0.5337    5.2626 H   0  0  0  0  0  0  0  0  0  0  0  0
   -1.6519   -0.4937    3.8940 H   0  0  0  0  0  0  0  0  0  0  0  0
   -1.3462    0.9929    4.7909 H   0  0  0  0  0  0  0  0  0  0  0  0
    2.4230   -1.6023    2.1973 H   0  0  0  0  0  0  0  0  0  0  0  0
    2.6792   -0.0297    2.7264 H   0  0  0  0  0  0  0  0  0  0  0  0
    2.0473   -3.4429    5.4470 H   0  0  0  0  0  0  0  0  0  0  0  0
    0.8056   -2.4010    5.0234 H   0  0  0  0  0  0  0  0  0  0  0  0
    0.2007   -3.9944    3.7625 H   0  0  0  0  0  0  0  0  0  0  0  0
    1.1737   -3.3335    2.5186 H   0  0  0  0  0  0  0  0  0  0  0  0
    2.4244   -5.2336    4.4613 H   0  0  0  0  0  0  0  0  0  0  0  0
    4.0318   -6.9553    3.6039 H   0  0  0  0  0  0  0  0  0  0  0  0
    3.7253   -7.4448    1.9258 H   0  0  0  0  0  0  0  0  0  0  0  0
    6.1629   -5.1228    0.2768 H   0  0  0  0  0  0  0  0  0  0  0  0
    5.0171   -6.0245   -0.7200 H   0  0  0  0  0  0  0  0  0  0  0  0
    5.2963   -6.4613    0.9714 H   0  0  0  0  0  0  0  0  0  0  0  0
    4.9175   -2.8525   -0.2142 H   0  0  0  0  0  0  0  0  0  0  0  0
    3.1646   -2.8547   -0.1803 H   0  0  0  0  0  0  0  0  0  0  0  0
    4.0241   -3.8582   -1.3444 H   0  0  0  0  0  0  0  0  0  0  0  0
    3.4149   -3.3553    2.1719 H   0  0  0  0  0  0  0  0  0  0  0  0
    5.5852   -5.0132    3.3471 H   0  0  0  0  0  0  0  0  0  0  0  0
    5.9527   -3.5265    2.5531 H   0  0  0  0  0  0  0  0  0  0  0  0
    4.0860   -3.9579    4.9721 H   0  0  0  0  0  0  0  0  0  0  0  0
    5.7015   -3.4372    4.9312 H   0  0  0  0  0  0  0  0  0  0  0  0
    6.0789   -1.2980    3.2286 H   0  0  0  0  0  0  0  0  0  0  0  0
    4.8044   -0.1152    3.0939 H   0  0  0  0  0  0  0  0  0  0  0  0
    4.6725   -1.5944    2.2481 H   0  0  0  0  0  0  0  0  0  0  0  0
    6.0870   -1.5487    5.5715 H   0  0  0  0  0  0  0  0  0  0  0  0
    5.4788   -3.2983    8.5660 H   0  0  0  0  0  0  0  0  0  0  0  0
    6.5961   -2.9965    7.2466 H   0  0  0  0  0  0  0  0  0  0  0  0
    5.1283   -3.9444    6.9946 H   0  0  0  0  0  0  0  0  0  0  0  0
    2.9757   -2.9920    7.1029 H   0  0  0  0  0  0  0  0  0  0  0  0
    3.0885   -2.0400    8.5151 H   0  0  0  0  0  0  0  0  0  0  0  0
    2.2079   -0.1658    7.6276 H   0  0  0  0  0  0  0  0  0  0  0  0
    1.7047    1.8840    7.2434 H   0  0  0  0  0  0  0  0  0  0  0  0
    0.2664    1.0556    6.6898 H   0  0  0  0  0  0  0  0  0  0  0  0
    0.7232    2.5955    6.0030 H   0  0  0  0  0  0  0  0  0  0  0  0
    3.7156    1.4052    4.0370 H   0  0  0  0  0  0  0  0  0  0  0  0
    2.5397    3.2121    4.1465 H   0  0  0  0  0  0  0  0  0  0  0  0
    4.9096    2.3937    6.2022 H   0  0  0  0  0  0  0  0  0  0  0  0
    3.8703    1.3637    7.0612 H   0  0  0  0  0  0  0  0  0  0  0  0
    7.0502    1.7489    5.3643 H   0  0  0  0  0  0  0  0  0  0  0  0
    6.0531    1.2080    4.0301 H   0  0  0  0  0  0  0  0  0  0  0  0
    7.3105    0.1891    4.6761 H   0  0  0  0  0  0  0  0  0  0  0  0
    7.1581   -0.2001    7.1641 H   0  0  0  0  0  0  0  0  0  0  0  0
    6.3158    1.2154    7.7646 H   0  0  0  0  0  0  0  0  0  0  0  0
    4.5001   -0.1163    8.5863 H   0  0  0  0  0  0  0  0  0  0  0  0
    5.8929   -1.0895    8.9566 H   0  0  0  0  0  0  0  0  0  0  0  0
  1  2  1  0
  1 41  1  0
  1 42  1  0
  1 43  1  0
  2 33  1  0
  2  3  1  0
  2  4  1  0
  3 44  1  0
  3 45  1  0
  3 46  1  0
  4  5  1  0
  6  5  1  6
  5 47  1  0
  5 48  1  0
  6 23  1  0
  6 30  1  0
  6  7  1  0
  7  8  1  0
  7 49  1  0
  7 50  1  0
  8  9  1  0
  8 51  1  0
  8 52  1  0
  9 14  1  0
  9 10  1  0
  9 53  1  1
 10 11  2  0
 10 12  1  0
 12 13  1  0
 14 13  1  6
 13 54  1  0
 13 55  1  0
 14 20  1  0
 14 15  1  0
 15 16  2  0
 15 17  1  0
 17 18  1  0
 17 19  1  0
 17 20  1  0
 18 56  1  0
 18 57  1  0
 18 58  1  0
 19 59  1  0
 19 60  1  0
 19 61  1  0
 20 21  1  0
 20 62  1  6
 21 22  1  0
 21 63  1  0
 21 64  1  0
 22 23  1  0
 22 65  1  0
 22 66  1  0
 23 24  1  6
 23 25  1  0
 24 67  1  0
 24 68  1  0
 24 69  1  0
 25 37  1  0
 25 26  1  0
 25 70  1  6
 26 40  1  0
 26 27  1  1
 26 28  1  0
 27 71  1  0
 27 72  1  0
 27 73  1  0
 28 29  1  0
 28 74  1  0
 28 75  1  0
 29 30  2  0
 29 76  1  0
 30 31  1  0
 31 32  1  1
 31 33  1  0
 31 34  1  0
 32 77  1  0
 32 78  1  0
 32 79  1  0
 34 35  1  0
 34 36  1  0
 34 80  1  6
 35 81  1  0
 36 37  1  0
 36 82  1  0
 36 83  1  0
 37 38  1  6
 37 39  1  0
 38 84  1  0
 38 85  1  0
 38 86  1  0
 39 40  1  0
 39 87  1  0
 39 88  1  0
 40 89  1  0
 40 90  1  0
M  END
>  <i_m_ct_stereo_status>  (269) 
1

>  <s_m_source_file>  (269) 
/var/tmp/pbs.5076255.sched01/tmpn8rdt6mw/90ee43ygr2.sdf

>  <i_m_source_file_index>  (269) 
24

>  <i_lp_mmshare_version>  (269) 
48012

>  <i_f3d_flags>  (269) 
0

>  <s_epik_input>  (269) 
W0NIMl0xW0NIMl1bQ0BdMihbQ0gzXSlbQ0gyXVtDSF0oW09IXSlbQ0BAXShbQ0gzXSkoT0MoW0NIM10pKFtDSDNdKU9bQ0gyXTMpQzQ9W0NIXVtDSDJdW0NAQF0xKFtDSDNdKVtDQEhdMltDQEBdKFtDQF0zNDUpKFtDSDNdKVtDSDJdW0NIMl1bQ0BASF02W0NAXTcoQyg9TylDNihbQ0gzXSlbQ0gzXSlbQ0BASF0oW0NIMl1bQ0gyXTUpQyg9TylPW0NIMl03

>  <s_epik_cmdline>  (269) 
J2VwaWtfcHl0aG9uJywgJy1waHQnLCAnMi4wJywgJy1waCcsICc3LjAnLCAnLXRuJywgJzgnLCAnLW1hJywgJzIwMCcsICctaW1hZScsICc8aW5maWxlLm1hZT4nLCAnLW9tYWUnLCAnPG91dGZpbGUubWFlPic=

>  <r_lp_tautomer_probability>  (269) 
1

>  <r_epik_Ionization_Penalty>  (269) 
7.33012e-08

>  <r_epik_Ionization_Penalty_Charging>  (269) 
0

>  <r_epik_Ionization_Penalty_Neutral>  (269) 
7.33012e-08

>  <r_epik_State_Penalty>  (269) 
-0

>  <r_epik_Charging_Adjusted_Penalty>  (269) 
0

>  <i_epik_Tot_Q>  (269) 
0

>  <i_epik_Tot_abs_Q>  (269) 
0

>  <s_epik_Chemistry_Notes>  (269) 
This compound has an ester and may undergo hydrolysis at high or low pH.

>  <s_lp_Force_Field>  (269) 
OPLS3e

>  <r_lp_Energy>  (269) 
137.88

>  <b_lp_Chiralities_Consistent>  (269) 
1

>  <s_lp_Variant>  (269) 
70:0-2

>  <s_i_glide_gridfile>  (269) 
pfpi4k_grid

>  <i_i_glide_lignum>  (269) 
24

>  <i_i_glide_rotatable_bonds>  (269) 
1

>  <r_i_docking_score>  (269) 
-2.14055

>  <r_i_glide_ligand_efficiency>  (269) 
-0.0535137

>  <r_i_glide_ligand_efficiency_sa>  (269) 
-0.183014

>  <r_i_glide_ligand_efficiency_ln>  (269) 
-0.456516

>  <r_i_glide_gscore>  (269) 
-2.14055

>  <r_i_glide_lipo>  (269) 
-0.562083

>  <r_i_glide_hbond>  (269) 
-0.112738

>  <r_i_glide_metal>  (269) 
-0

>  <r_i_glide_rewards>  (269) 
0

>  <r_i_glide_evdw>  (269) 
-22.2001

>  <r_i_glide_ecoul>  (269) 
-1.91908

>  <r_i_glide_erotb>  (269) 
0

>  <r_i_glide_esite>  (269) 
-0.0678621

>  <r_i_glide_emodel>  (269) 
-27.5737

>  <r_i_glide_energy>  (269) 
-24.1192

>  <r_i_glide_einternal>  (269) 
0.361342

>  <r_i_glide_intrahb_reward>  (269) 
-0

>  <i_i_glide_confnum>  (269) 
1

>  <i_i_glide_posenum>  (269) 
2

>  <r_i_glide_eff_state_penalty>  (269) 
0

>  <ligand_id>  (269) 
70

>  <original_smiles>  (269) 
CC1(C)OCC23CCC4C(=O)OCC45C(=O)C(C)(C)C5CCC2(C)C2C4(C)CC=C3C(C)(O1)C(O)CC2(C)CC4

>  <smiles>  (269) 
[H]OC1([H])C([H])([H])C2(C([H])([H])[H])C([H])([H])C([H])([H])C3(C([H])([H])[H])C([H])([H])C([H])=C4C1(C([H])([H])[H])OC(C([H])([H])[H])(C([H])([H])[H])OC([H])([H])C41C([H])([H])C([H])([H])C4([H])C(=O)OC([H])([H])C45C(=O)C(C([H])([H])[H])(C([H])([H])[H])C5([H])C([H])([H])C([H])([H])C1(C([H])([H])[H])C32[H]

$$$$
70:1:1
     RDKit          3D

 90 96  0  0  1  0  0  0  0  0999 V2000
   -1.3491   -7.1269    4.3225 C   0  0  0  0  0  0  0  0  0  0  0  0
   -0.2028   -7.5770    3.4105 C   0  0  0  0  0  0  0  0  0  0  0  0
   -0.7515   -8.1908    2.1204 C   0  0  0  0  0  0  0  0  0  0  0  0
    0.5114   -6.4370    3.0757 O   0  0  0  0  0  0  0  0  0  0  0  0
    1.7936   -6.3180    3.6778 C   0  0  0  0  0  0  0  0  0  0  0  0
    2.9122   -7.0042    2.8106 C   0  0  1  0  0  0  0  0  0  0  0  0
    2.6443   -6.4352    1.3318 C   0  0  0  0  0  0  0  0  0  0  0  0
    2.1795   -4.9784    0.9778 C   0  0  0  0  0  0  0  0  0  0  0  0
    3.2965   -4.0732    0.4123 C   0  0  1  0  0  0  0  0  0  0  0  0
    3.1309   -3.2810   -0.8739 C   0  0  0  0  0  0  0  0  0  0  0  0
    2.2569   -3.4537   -1.7244 O   0  0  0  0  0  0  0  0  0  0  0  0
    4.1304   -2.3886   -0.8982 O   0  0  0  0  0  0  0  0  0  0  0  0
    4.8885   -2.3780    0.3106 C   0  0  0  0  0  0  0  0  0  0  0  0
    3.9407   -3.0478    1.3167 C   0  0  1  0  0  0  0  0  0  0  0  0
    3.1199   -1.9329    2.0473 C   0  0  0  0  0  0  0  0  0  0  0  0
    2.0802   -1.3222    1.8093 O   0  0  0  0  0  0  0  0  0  0  0  0
    3.9997   -2.1103    3.3267 C   0  0  0  0  0  0  0  0  0  0  0  0
    5.1653   -1.1237    3.4086 C   0  0  0  0  0  0  0  0  0  0  0  0
    3.1699   -2.0392    4.6097 C   0  0  0  0  0  0  0  0  0  0  0  0
    4.2695   -3.5081    2.7474 C   0  0  2  0  0  0  0  0  0  0  0  0
    5.5080   -4.2985    3.0203 C   0  0  0  0  0  0  0  0  0  0  0  0
    5.3601   -5.7900    2.6319 C   0  0  0  0  0  0  0  0  0  0  0  0
    4.4192   -6.7912    3.4381 C   0  0  1  0  0  0  0  0  0  0  0  0
    4.3463   -6.1819    4.8695 C   0  0  0  0  0  0  0  0  0  0  0  0
    5.2975   -8.1433    3.5911 C   0  0  2  0  0  0  0  0  0  0  0  0
    5.7512   -8.9215    2.2877 C   0  0  2  0  0  0  0  0  0  0  0  0
    7.0091   -8.3354    1.6009 C   0  0  0  0  0  0  0  0  0  0  0  0
    4.6453   -9.0452    1.2176 C   0  0  0  0  0  0  0  0  0  0  0  0
    3.3099   -9.3447    1.8600 C   0  0  0  0  0  0  0  0  0  0  0  0
    2.6163   -8.5390    2.7039 C   0  0  0  0  0  0  0  0  0  0  0  0
    1.6488   -9.2437    3.7035 C   0  0  2  0  0  0  0  0  0  0  0  0
    1.0554  -10.5930    3.2022 C   0  0  0  0  0  0  0  0  0  0  0  0
    0.5249   -8.4923    4.1652 O   0  0  0  0  0  0  0  0  0  0  0  0
    2.4493   -9.4503    5.0267 C   0  0  1  0  0  0  0  0  0  0  0  0
    1.6897  -10.2087    5.9524 O   0  0  0  0  0  0  0  0  0  0  0  0
    3.8376  -10.1154    4.8544 C   0  0  0  0  0  0  0  0  0  0  0  0
    5.1272   -9.2287    4.7497 C   0  0  2  0  0  0  0  0  0  0  0  0
    5.5063   -8.7421    6.1746 C   0  0  0  0  0  0  0  0  0  0  0  0
    6.2476  -10.1991    4.3266 C   0  0  0  0  0  0  0  0  0  0  0  0
    6.1471  -10.3217    2.8113 C   0  0  0  0  0  0  0  0  0  0  0  0
   -0.9475   -6.7026    5.2441 H   0  0  0  0  0  0  0  0  0  0  0  0
   -1.9699   -7.9870    4.5759 H   0  0  0  0  0  0  0  0  0  0  0  0
   -1.9695   -6.3825    3.8274 H   0  0  0  0  0  0  0  0  0  0  0  0
    0.0640   -8.4282    1.4438 H   0  0  0  0  0  0  0  0  0  0  0  0
   -1.3851   -7.4623    1.6329 H   0  0  0  0  0  0  0  0  0  0  0  0
   -1.3471   -9.0821    2.3209 H   0  0  0  0  0  0  0  0  0  0  0  0
    1.9450   -5.2528    3.7813 H   0  0  0  0  0  0  0  0  0  0  0  0
    1.7645   -6.6316    4.7175 H   0  0  0  0  0  0  0  0  0  0  0  0
    3.4320   -6.6667    0.6365 H   0  0  0  0  0  0  0  0  0  0  0  0
    1.8285   -7.0469    0.9417 H   0  0  0  0  0  0  0  0  0  0  0  0
    1.4489   -5.0927    0.1748 H   0  0  0  0  0  0  0  0  0  0  0  0
    1.6373   -4.4883    1.7809 H   0  0  0  0  0  0  0  0  0  0  0  0
    4.0798   -4.7629    0.1031 H   0  0  0  0  0  0  0  0  0  0  0  0
    5.8126   -2.9510    0.1916 H   0  0  0  0  0  0  0  0  0  0  0  0
    5.1415   -1.3463    0.5641 H   0  0  0  0  0  0  0  0  0  0  0  0
    5.8056   -1.3899    4.2491 H   0  0  0  0  0  0  0  0  0  0  0  0
    4.8249   -0.1000    3.5639 H   0  0  0  0  0  0  0  0  0  0  0  0
    5.8051   -1.1428    2.5260 H   0  0  0  0  0  0  0  0  0  0  0  0
    3.7257   -2.4774    5.4385 H   0  0  0  0  0  0  0  0  0  0  0  0
    2.2295   -2.5842    4.5298 H   0  0  0  0  0  0  0  0  0  0  0  0
    2.9353   -1.0119    4.8791 H   0  0  0  0  0  0  0  0  0  0  0  0
    3.4380   -4.1042    3.0927 H   0  0  0  0  0  0  0  0  0  0  0  0
    6.3176   -3.8791    2.4282 H   0  0  0  0  0  0  0  0  0  0  0  0
    5.8171   -4.1702    4.0577 H   0  0  0  0  0  0  0  0  0  0  0  0
    5.2119   -5.8799    1.5625 H   0  0  0  0  0  0  0  0  0  0  0  0
    6.3947   -6.0910    2.7631 H   0  0  0  0  0  0  0  0  0  0  0  0
    5.3410   -6.0750    5.3019 H   0  0  0  0  0  0  0  0  0  0  0  0
    3.7666   -6.7803    5.5578 H   0  0  0  0  0  0  0  0  0  0  0  0
    3.8934   -5.1941    4.9071 H   0  0  0  0  0  0  0  0  0  0  0  0
    6.2466   -7.7373    3.9392 H   0  0  0  0  0  0  0  0  0  0  0  0
    7.3879   -9.0315    0.8536 H   0  0  0  0  0  0  0  0  0  0  0  0
    7.8143   -8.1467    2.3116 H   0  0  0  0  0  0  0  0  0  0  0  0
    6.8078   -7.4107    1.0638 H   0  0  0  0  0  0  0  0  0  0  0  0
    4.6387   -8.1871    0.5654 H   0  0  0  0  0  0  0  0  0  0  0  0
    4.8782   -9.8641    0.5393 H   0  0  0  0  0  0  0  0  0  0  0  0
    3.1113  -10.4021    1.8377 H   0  0  0  0  0  0  0  0  0  0  0  0
    1.7767  -11.4078    3.2023 H   0  0  0  0  0  0  0  0  0  0  0  0
    0.6496  -10.5280    2.1943 H   0  0  0  0  0  0  0  0  0  0  0  0
    0.2384  -10.9224    3.8464 H   0  0  0  0  0  0  0  0  0  0  0  0
    2.5794   -8.5017    5.5297 H   0  0  0  0  0  0  0  0  0  0  0  0
    1.8128  -11.1396    5.8217 H   0  0  0  0  0  0  0  0  0  0  0  0
    3.9981  -10.7531    5.7242 H   0  0  0  0  0  0  0  0  0  0  0  0
    3.7907  -10.8332    4.0397 H   0  0  0  0  0  0  0  0  0  0  0  0
    5.8260   -9.5805    6.7940 H   0  0  0  0  0  0  0  0  0  0  0  0
    4.6698   -8.2953    6.7073 H   0  0  0  0  0  0  0  0  0  0  0  0
    6.3324   -8.0292    6.1700 H   0  0  0  0  0  0  0  0  0  0  0  0
    7.2262   -9.7849    4.5814 H   0  0  0  0  0  0  0  0  0  0  0  0
    6.1819  -11.1699    4.8179 H   0  0  0  0  0  0  0  0  0  0  0  0
    5.3979  -11.0702    2.5509 H   0  0  0  0  0  0  0  0  0  0  0  0
    7.0835  -10.6919    2.3964 H   0  0  0  0  0  0  0  0  0  0  0  0
  1  2  1  0
  1 41  1  0
  1 42  1  0
  1 43  1  0
  2 33  1  0
  2  3  1  0
  2  4  1  0
  3 44  1  0
  3 45  1  0
  3 46  1  0
  4  5  1  0
  6  5  1  1
  5 47  1  0
  5 48  1  0
  6 23  1  0
  6 30  1  0
  6  7  1  0
  7  8  1  0
  7 49  1  0
  7 50  1  0
  8  9  1  0
  8 51  1  0
  8 52  1  0
  9 14  1  0
  9 10  1  0
  9 53  1  6
 10 11  2  0
 10 12  1  0
 12 13  1  0
 14 13  1  6
 13 54  1  0
 13 55  1  0
 14 20  1  0
 14 15  1  0
 15 16  2  0
 15 17  1  0
 17 18  1  0
 17 19  1  0
 17 20  1  0
 18 56  1  0
 18 57  1  0
 18 58  1  0
 19 59  1  0
 19 60  1  0
 19 61  1  0
 20 21  1  0
 20 62  1  1
 21 22  1  0
 21 63  1  0
 21 64  1  0
 22 23  1  0
 22 65  1  0
 22 66  1  0
 23 24  1  1
 23 25  1  0
 24 67  1  0
 24 68  1  0
 24 69  1  0
 25 37  1  0
 25 26  1  0
 25 70  1  1
 26 40  1  0
 26 27  1  6
 26 28  1  0
 27 71  1  0
 27 72  1  0
 27 73  1  0
 28 29  1  0
 28 74  1  0
 28 75  1  0
 29 30  2  0
 29 76  1  0
 30 31  1  0
 31 32  1  6
 31 33  1  0
 31 34  1  0
 32 77  1  0
 32 78  1  0
 32 79  1  0
 34 35  1  0
 34 36  1  0
 34 80  1  1
 35 81  1  0
 36 37  1  0
 36 82  1  0
 36 83  1  0
 37 38  1  1
 37 39  1  0
 38 84  1  0
 38 85  1  0
 38 86  1  0
 39 40  1  0
 39 87  1  0
 39 88  1  0
 40 89  1  0
 40 90  1  0
M  END
>  <i_m_ct_stereo_status>  (270) 
1

>  <s_m_source_file>  (270) 
/var/tmp/pbs.5076255.sched01/tmpn8rdt6mw/90ee43ygr2.sdf

>  <i_m_source_file_index>  (270) 
24

>  <i_lp_mmshare_version>  (270) 
48012

>  <i_f3d_flags>  (270) 
0

>  <s_epik_input>  (270) 
W0NIMl0xW0NIMl1bQ0BdMihbQ0gzXSlbQ0gyXVtDSF0oW09IXSlbQ0BAXShbQ0gzXSkoT0MoW0NIM10pKFtDSDNdKU9bQ0gyXTMpQzQ9W0NIXVtDSDJdW0NAQF0xKFtDSDNdKVtDQEhdMltDQEBdKFtDQF0zNDUpKFtDSDNdKVtDSDJdW0NIMl1bQ0BASF02W0NAXTcoQyg9TylDNihbQ0gzXSlbQ0gzXSlbQ0BASF0oW0NIMl1bQ0gyXTUpQyg9TylPW0NIMl03

>  <s_epik_cmdline>  (270) 
J2VwaWtfcHl0aG9uJywgJy1waHQnLCAnMi4wJywgJy1waCcsICc3LjAnLCAnLXRuJywgJzgnLCAnLW1hJywgJzIwMCcsICctaW1hZScsICc8aW5maWxlLm1hZT4nLCAnLW9tYWUnLCAnPG91dGZpbGUubWFlPic=

>  <r_lp_tautomer_probability>  (270) 
1

>  <r_epik_Ionization_Penalty>  (270) 
7.33012e-08

>  <r_epik_Ionization_Penalty_Charging>  (270) 
0

>  <r_epik_Ionization_Penalty_Neutral>  (270) 
7.33012e-08

>  <r_epik_State_Penalty>  (270) 
-0

>  <r_epik_Charging_Adjusted_Penalty>  (270) 
0

>  <i_epik_Tot_Q>  (270) 
0

>  <i_epik_Tot_abs_Q>  (270) 
0

>  <s_epik_Chemistry_Notes>  (270) 
This compound has an ester and may undergo hydrolysis at high or low pH.

>  <s_lp_Force_Field>  (270) 
OPLS3e

>  <r_lp_Energy>  (270) 
137.88

>  <b_lp_Chiralities_Consistent>  (270) 
1

>  <s_lp_Variant>  (270) 
70:0-2

>  <s_i_glide_gridfile>  (270) 
pfpi4k_grid

>  <i_i_glide_lignum>  (270) 
24

>  <i_i_glide_rotatable_bonds>  (270) 
1

>  <r_i_docking_score>  (270) 
-1.8528

>  <r_i_glide_ligand_efficiency>  (270) 
-0.0463201

>  <r_i_glide_ligand_efficiency_sa>  (270) 
-0.158413

>  <r_i_glide_ligand_efficiency_ln>  (270) 
-0.395149

>  <r_i_glide_gscore>  (270) 
-1.8528

>  <r_i_glide_lipo>  (270) 
-0.457081

>  <r_i_glide_hbond>  (270) 
-0.00177629

>  <r_i_glide_metal>  (270) 
-0

>  <r_i_glide_rewards>  (270) 
-0.0915163

>  <r_i_glide_evdw>  (270) 
-29.7333

>  <r_i_glide_ecoul>  (270) 
1.60336

>  <r_i_glide_erotb>  (270) 
0

>  <r_i_glide_esite>  (270) 
-0.0562714

>  <r_i_glide_emodel>  (270) 
-30.8836

>  <r_i_glide_energy>  (270) 
-28.1299

>  <r_i_glide_einternal>  (270) 
0.47616

>  <r_i_glide_intrahb_reward>  (270) 
-0

>  <i_i_glide_confnum>  (270) 
1

>  <i_i_glide_posenum>  (270) 
16

>  <r_i_glide_eff_state_penalty>  (270) 
0

>  <ligand_id>  (270) 
70

>  <original_smiles>  (270) 
CC1(C)OCC23CCC4C(=O)OCC45C(=O)C(C)(C)C5CCC2(C)C2C4(C)CC=C3C(C)(O1)C(O)CC2(C)CC4

>  <smiles>  (270) 
[H]OC1([H])C([H])([H])C2(C([H])([H])[H])C([H])([H])C([H])([H])C3(C([H])([H])[H])C([H])([H])C([H])=C4C1(C([H])([H])[H])OC(C([H])([H])[H])(C([H])([H])[H])OC([H])([H])C41C([H])([H])C([H])([H])C4([H])C(=O)OC([H])([H])C45C(=O)C(C([H])([H])[H])(C([H])([H])[H])C5([H])C([H])([H])C([H])([H])C1(C([H])([H])[H])C32[H]

$$$$
70:1:2
     RDKit          3D

 90 96  0  0  1  0  0  0  0  0999 V2000
   -1.3950   -7.4070    4.2376 C   0  0  0  0  0  0  0  0  0  0  0  0
   -0.2365   -7.7866    3.3161 C   0  0  0  0  0  0  0  0  0  0  0  0
   -0.7610   -8.2917    1.9748 C   0  0  0  0  0  0  0  0  0  0  0  0
    0.4867   -6.6268    3.0798 O   0  0  0  0  0  0  0  0  0  0  0  0
    1.7603   -6.5600    3.7071 C   0  0  0  0  0  0  0  0  0  0  0  0
    2.8904   -7.1801    2.8093 C   0  0  1  0  0  0  0  0  0  0  0  0
    2.6462   -6.5035    1.3725 C   0  0  0  0  0  0  0  0  0  0  0  0
    2.1887   -5.0230    1.1271 C   0  0  0  0  0  0  0  0  0  0  0  0
    3.3237   -4.0872    0.6551 C   0  0  1  0  0  0  0  0  0  0  0  0
    3.1914   -3.2378   -0.5851 C   0  0  0  0  0  0  0  0  0  0  0  0
    2.3767   -3.4103   -1.4951 O   0  0  0  0  0  0  0  0  0  0  0  0
    4.1704   -2.3150   -0.5224 O   0  0  0  0  0  0  0  0  0  0  0  0
    4.9172   -2.3895    0.7017 C   0  0  0  0  0  0  0  0  0  0  0  0
    3.9548   -3.1294    1.6407 C   0  0  1  0  0  0  0  0  0  0  0  0
    3.1192   -2.0736    2.4309 C   0  0  0  0  0  0  0  0  0  0  0  0
    2.0885   -1.4421    2.2136 O   0  0  0  0  0  0  0  0  0  0  0  0
    3.9755   -2.3470    3.7114 C   0  0  0  0  0  0  0  0  0  0  0  0
    5.1499   -1.3826    3.8928 C   0  0  0  0  0  0  0  0  0  0  0  0
    3.1335   -2.3772    4.9899 C   0  0  0  0  0  0  0  0  0  0  0  0
    4.2483   -3.6997    3.0390 C   0  0  2  0  0  0  0  0  0  0  0  0
    5.4825   -4.5165    3.2615 C   0  0  0  0  0  0  0  0  0  0  0  0
    5.3432   -5.9736    2.7614 C   0  0  0  0  0  0  0  0  0  0  0  0
    4.3885   -7.0299    3.4742 C   0  0  1  0  0  0  0  0  0  0  0  0
    4.2959   -6.5306    4.9463 C   0  0  0  0  0  0  0  0  0  0  0  0
    5.2631   -8.3922    3.5398 C   0  0  2  0  0  0  0  0  0  0  0  0
    5.7358   -9.0661    2.1898 C   0  0  2  0  0  0  0  0  0  0  0  0
    7.0043   -8.4328    1.5634 C   0  0  0  0  0  0  0  0  0  0  0  0
    4.6395   -9.0993    1.1074 C   0  0  0  0  0  0  0  0  0  0  0  0
    3.2939   -9.4406    1.6994 C   0  0  0  0  0  0  0  0  0  0  0  0
    2.5895   -8.6992    2.5829 C   0  0  0  0  0  0  0  0  0  0  0  0
    1.6122   -9.4683    3.5119 C   0  0  2  0  0  0  0  0  0  0  0  0
    1.0214  -10.7788    2.9024 C   0  0  0  0  0  0  0  0  0  0  0  0
    0.4756   -8.7594    4.0087 O   0  0  0  0  0  0  0  0  0  0  0  0
    2.3935   -9.7847    4.8273 C   0  0  1  0  0  0  0  0  0  0  0  0
    1.5860  -10.6498    5.6099 O   0  0  0  0  0  0  0  0  0  0  0  0
    3.7794  -10.4463    4.6162 C   0  0  0  0  0  0  0  0  0  0  0  0
    5.0730   -9.5646    4.6049 C   0  0  2  0  0  0  0  0  0  0  0  0
    5.4269   -9.1905    6.0681 C   0  0  0  0  0  0  0  0  0  0  0  0
    6.1957  -10.5046    4.1246 C   0  0  0  0  0  0  0  0  0  0  0  0
    6.1190  -10.5070    2.6047 C   0  0  0  0  0  0  0  0  0  0  0  0
   -1.0020   -7.0512    5.1908 H   0  0  0  0  0  0  0  0  0  0  0  0
   -2.0196   -8.2812    4.4254 H   0  0  0  0  0  0  0  0  0  0  0  0
   -2.0148   -6.6320    3.7886 H   0  0  0  0  0  0  0  0  0  0  0  0
    0.0642   -8.4666    1.2940 H   0  0  0  0  0  0  0  0  0  0  0  0
   -1.3845   -7.5183    1.5297 H   0  0  0  0  0  0  0  0  0  0  0  0
   -1.3641   -9.1943    2.0869 H   0  0  0  0  0  0  0  0  0  0  0  0
    1.9123   -5.5087    3.8945 H   0  0  0  0  0  0  0  0  0  0  0  0
    1.7167   -6.9563    4.7177 H   0  0  0  0  0  0  0  0  0  0  0  0
    3.4446   -6.6821    0.6740 H   0  0  0  0  0  0  0  0  0  0  0  0
    1.8377   -7.0807    0.9219 H   0  0  0  0  0  0  0  0  0  0  0  0
    1.4751   -5.0698    0.3041 H   0  0  0  0  0  0  0  0  0  0  0  0
    1.6281   -4.5897    1.9520 H   0  0  0  0  0  0  0  0  0  0  0  0
    4.1100   -4.7524    0.3100 H   0  0  0  0  0  0  0  0  0  0  0  0
    5.8425   -2.9540    0.5570 H   0  0  0  0  0  0  0  0  0  0  0  0
    5.1730   -1.3834    1.0396 H   0  0  0  0  0  0  0  0  0  0  0  0
    5.7727   -1.7209    4.7192 H   0  0  0  0  0  0  0  0  0  0  0  0
    4.8146   -0.3717    4.1261 H   0  0  0  0  0  0  0  0  0  0  0  0
    5.8024   -1.3345    3.0234 H   0  0  0  0  0  0  0  0  0  0  0  0
    3.6775   -2.8811    5.7875 H   0  0  0  0  0  0  0  0  0  0  0  0
    2.1927   -2.9104    4.8534 H   0  0  0  0  0  0  0  0  0  0  0  0
    2.9010   -1.3707    5.3337 H   0  0  0  0  0  0  0  0  0  0  0  0
    3.4133   -4.3204    3.3202 H   0  0  0  0  0  0  0  0  0  0  0  0
    6.2836   -4.0615    2.6888 H   0  0  0  0  0  0  0  0  0  0  0  0
    5.7985   -4.4634    4.3052 H   0  0  0  0  0  0  0  0  0  0  0  0
    5.2137   -5.9811    1.6861 H   0  0  0  0  0  0  0  0  0  0  0  0
    6.3739   -6.2876    2.8862 H   0  0  0  0  0  0  0  0  0  0  0  0
    5.2836   -6.4625    5.3986 H   0  0  0  0  0  0  0  0  0  0  0  0
    3.7032   -7.1764    5.5765 H   0  0  0  0  0  0  0  0  0  0  0  0
    3.8445   -5.5463    5.0511 H   0  0  0  0  0  0  0  0  0  0  0  0
    6.2082   -8.0176    3.9297 H   0  0  0  0  0  0  0  0  0  0  0  0
    7.3930   -9.0675    0.7679 H   0  0  0  0  0  0  0  0  0  0  0  0
    7.7994   -8.3019    2.2983 H   0  0  0  0  0  0  0  0  0  0  0  0
    6.8114   -7.4697    1.0970 H   0  0  0  0  0  0  0  0  0  0  0  0
    4.6515   -8.2083    0.4995 H   0  0  0  0  0  0  0  0  0  0  0  0
    4.8752   -9.8949    0.4130 H   0  0  0  0  0  0  0  0  0  0  0  0
    3.0901  -10.4925    1.6065 H   0  0  0  0  0  0  0  0  0  0  0  0
    1.7388  -11.5959    2.8616 H   0  0  0  0  0  0  0  0  0  0  0  0
    0.6165  -10.6426    1.9019 H   0  0  0  0  0  0  0  0  0  0  0  0
    0.2040  -11.1575    3.5138 H   0  0  0  0  0  0  0  0  0  0  0  0
    2.5172   -8.8918    5.4299 H   0  0  0  0  0  0  0  0  0  0  0  0
    2.0601  -10.9983    6.3577 H   0  0  0  0  0  0  0  0  0  0  0  0
    3.9222  -11.1561    5.4318 H   0  0  0  0  0  0  0  0  0  0  0  0
    3.7357  -11.0995    3.7485 H   0  0  0  0  0  0  0  0  0  0  0  0
    5.7330  -10.0760    6.6280 H   0  0  0  0  0  0  0  0  0  0  0  0
    4.5818   -8.7810    6.6168 H   0  0  0  0  0  0  0  0  0  0  0  0
    6.2561   -8.4838    6.1321 H   0  0  0  0  0  0  0  0  0  0  0  0
    7.1706  -10.1179    4.4290 H   0  0  0  0  0  0  0  0  0  0  0  0
    6.1157  -11.5107    4.5391 H   0  0  0  0  0  0  0  0  0  0  0  0
    5.3745  -11.2326    2.2761 H   0  0  0  0  0  0  0  0  0  0  0  0
    7.0585  -10.8465    2.1762 H   0  0  0  0  0  0  0  0  0  0  0  0
  1  2  1  0
  1 41  1  0
  1 42  1  0
  1 43  1  0
  2 33  1  0
  2  3  1  0
  2  4  1  0
  3 44  1  0
  3 45  1  0
  3 46  1  0
  4  5  1  0
  6  5  1  1
  5 47  1  0
  5 48  1  0
  6 23  1  0
  6 30  1  0
  6  7  1  0
  7  8  1  0
  7 49  1  0
  7 50  1  0
  8  9  1  0
  8 51  1  0
  8 52  1  0
  9 14  1  0
  9 10  1  0
  9 53  1  6
 10 11  2  0
 10 12  1  0
 12 13  1  0
 14 13  1  6
 13 54  1  0
 13 55  1  0
 14 20  1  0
 14 15  1  0
 15 16  2  0
 15 17  1  0
 17 18  1  0
 17 19  1  0
 17 20  1  0
 18 56  1  0
 18 57  1  0
 18 58  1  0
 19 59  1  0
 19 60  1  0
 19 61  1  0
 20 21  1  0
 20 62  1  1
 21 22  1  0
 21 63  1  0
 21 64  1  0
 22 23  1  0
 22 65  1  0
 22 66  1  0
 23 24  1  1
 23 25  1  0
 24 67  1  0
 24 68  1  0
 24 69  1  0
 25 37  1  0
 25 26  1  0
 25 70  1  1
 26 40  1  0
 26 27  1  6
 26 28  1  0
 27 71  1  0
 27 72  1  0
 27 73  1  0
 28 29  1  0
 28 74  1  0
 28 75  1  0
 29 30  2  0
 29 76  1  0
 30 31  1  0
 31 32  1  6
 31 33  1  0
 31 34  1  0
 32 77  1  0
 32 78  1  0
 32 79  1  0
 34 35  1  0
 34 36  1  0
 34 80  1  1
 35 81  1  0
 36 37  1  0
 36 82  1  0
 36 83  1  0
 37 38  1  1
 37 39  1  0
 38 84  1  0
 38 85  1  0
 38 86  1  0
 39 40  1  0
 39 87  1  0
 39 88  1  0
 40 89  1  0
 40 90  1  0
M  END
>  <i_m_ct_stereo_status>  (271) 
1

>  <s_m_source_file>  (271) 
/var/tmp/pbs.5076255.sched01/tmpn8rdt6mw/90ee43ygr2.sdf

>  <i_m_source_file_index>  (271) 
24

>  <i_lp_mmshare_version>  (271) 
48012

>  <i_f3d_flags>  (271) 
0

>  <s_epik_input>  (271) 
W0NIMl0xW0NIMl1bQ0BdMihbQ0gzXSlbQ0gyXVtDSF0oW09IXSlbQ0BAXShbQ0gzXSkoT0MoW0NIM10pKFtDSDNdKU9bQ0gyXTMpQzQ9W0NIXVtDSDJdW0NAQF0xKFtDSDNdKVtDQEhdMltDQEBdKFtDQF0zNDUpKFtDSDNdKVtDSDJdW0NIMl1bQ0BASF02W0NAXTcoQyg9TylDNihbQ0gzXSlbQ0gzXSlbQ0BASF0oW0NIMl1bQ0gyXTUpQyg9TylPW0NIMl03

>  <s_epik_cmdline>  (271) 
J2VwaWtfcHl0aG9uJywgJy1waHQnLCAnMi4wJywgJy1waCcsICc3LjAnLCAnLXRuJywgJzgnLCAnLW1hJywgJzIwMCcsICctaW1hZScsICc8aW5maWxlLm1hZT4nLCAnLW9tYWUnLCAnPG91dGZpbGUubWFlPic=

>  <r_lp_tautomer_probability>  (271) 
1

>  <r_epik_Ionization_Penalty>  (271) 
7.33012e-08

>  <r_epik_Ionization_Penalty_Charging>  (271) 
0

>  <r_epik_Ionization_Penalty_Neutral>  (271) 
7.33012e-08

>  <r_epik_State_Penalty>  (271) 
-0

>  <r_epik_Charging_Adjusted_Penalty>  (271) 
0

>  <i_epik_Tot_Q>  (271) 
0

>  <i_epik_Tot_abs_Q>  (271) 
0

>  <s_epik_Chemistry_Notes>  (271) 
This compound has an ester and may undergo hydrolysis at high or low pH.

>  <s_lp_Force_Field>  (271) 
OPLS3e

>  <r_lp_Energy>  (271) 
137.88

>  <b_lp_Chiralities_Consistent>  (271) 
1

>  <s_lp_Variant>  (271) 
70:0-2

>  <s_i_glide_gridfile>  (271) 
pfpi4k_grid

>  <i_i_glide_lignum>  (271) 
24

>  <i_i_glide_rotatable_bonds>  (271) 
1

>  <r_i_docking_score>  (271) 
-1.84471

>  <r_i_glide_ligand_efficiency>  (271) 
-0.0461178

>  <r_i_glide_ligand_efficiency_sa>  (271) 
-0.157721

>  <r_i_glide_ligand_efficiency_ln>  (271) 
-0.393422

>  <r_i_glide_gscore>  (271) 
-1.84471

>  <r_i_glide_lipo>  (271) 
-0.414124

>  <r_i_glide_hbond>  (271) 
0

>  <r_i_glide_metal>  (271) 
-0

>  <r_i_glide_rewards>  (271) 
-0.0502631

>  <r_i_glide_evdw>  (271) 
-28.2464

>  <r_i_glide_ecoul>  (271) 
0.535239

>  <r_i_glide_erotb>  (271) 
0

>  <r_i_glide_esite>  (271) 
-0.0482885

>  <r_i_glide_emodel>  (271) 
-30.5025

>  <r_i_glide_energy>  (271) 
-27.7112

>  <r_i_glide_einternal>  (271) 
0.546493

>  <r_i_glide_intrahb_reward>  (271) 
-0

>  <i_i_glide_confnum>  (271) 
2

>  <i_i_glide_posenum>  (271) 
1

>  <r_i_glide_eff_state_penalty>  (271) 
0

>  <ligand_id>  (271) 
70

>  <original_smiles>  (271) 
CC1(C)OCC23CCC4C(=O)OCC45C(=O)C(C)(C)C5CCC2(C)C2C4(C)CC=C3C(C)(O1)C(O)CC2(C)CC4

>  <smiles>  (271) 
[H]OC1([H])C([H])([H])C2(C([H])([H])[H])C([H])([H])C([H])([H])C3(C([H])([H])[H])C([H])([H])C([H])=C4C1(C([H])([H])[H])OC(C([H])([H])[H])(C([H])([H])[H])OC([H])([H])C41C([H])([H])C([H])([H])C4([H])C(=O)OC([H])([H])C45C(=O)C(C([H])([H])[H])(C([H])([H])[H])C5([H])C([H])([H])C([H])([H])C1(C([H])([H])[H])C32[H]

$$$$
71:0:0
     RDKit          3D

 80 84  0  0  1  0  0  0  0  0999 V2000
   -0.9725   -7.2389    4.3209 C   0  0  0  0  0  0  0  0  0  0  0  0
   -0.4824   -8.6988    4.3942 C   0  0  2  0  0  0  0  0  0  0  0  0
   -0.0629   -9.1211    5.8091 C   0  0  0  0  0  0  0  0  0  0  0  0
    1.1898   -8.3624    6.2442 C   0  0  0  0  0  0  0  0  0  0  0  0
    2.3917   -8.5300    5.2773 C   0  0  2  0  0  0  0  0  0  0  0  0
    3.0505   -9.9070    5.5336 C   0  0  0  0  0  0  0  0  0  0  0  0
    3.3858   -7.4195    5.6504 C   0  0  0  0  0  0  0  0  0  0  0  0
    4.5771   -7.3419    4.6995 C   0  0  0  0  0  0  0  0  0  0  0  0
    4.2249   -7.2049    3.1790 C   0  0  1  0  0  0  0  0  0  0  0  0
    5.3012   -8.0821    2.4662 C   0  0  0  0  0  0  0  0  0  0  0  0
    2.8311   -7.8150    2.8685 C   0  0  0  0  0  0  0  0  0  0  0  0
    2.0094   -8.4004    3.7835 C   0  0  0  0  0  0  0  0  0  0  0  0
    0.6419   -8.9942    3.3866 C   0  0  1  0  0  0  0  0  0  0  0  0
    0.7523  -10.4893    3.0278 C   0  0  0  0  0  0  0  0  0  0  0  0
    2.4826   -7.7144    1.3830 C   0  0  0  0  0  0  0  0  0  0  0  0
    2.4996   -6.2582    0.9395 C   0  0  0  0  0  0  0  0  0  0  0  0
    1.4841   -5.7494    0.4498 O   0  0  0  0  0  0  0  0  0  0  0  0
    3.8517   -5.5537    1.1550 C   0  0  1  0  0  0  0  0  0  0  0  0
    4.2747   -4.2404    0.3264 C   0  0  1  0  0  0  0  0  0  0  0  0
    5.3412   -4.7178   -0.6941 C   0  0  0  0  0  0  0  0  0  0  0  0
    3.1244   -3.5724   -0.4800 C   0  0  0  0  0  0  0  0  0  0  0  0
    3.5013   -2.2605   -1.2024 C   0  0  0  0  0  0  0  0  0  0  0  0
    4.0724   -1.2033   -0.2438 C   0  0  1  0  0  0  0  0  0  0  0  0
    3.0112   -0.7440    0.5777 O   0  0  0  0  0  0  0  0  0  0  0  0
    5.2480   -1.7560    0.6176 C   0  0  0  0  0  0  0  0  0  0  0  0
    6.5229   -1.8456   -0.2549 C   0  0  0  0  0  0  0  0  0  0  0  0
    5.5754   -0.7264    1.7359 C   0  0  0  0  0  0  0  0  0  0  0  0
    4.8159   -3.1140    1.2695 C   0  0  2  0  0  0  0  0  0  0  0  0
    5.7967   -3.6132    2.3438 C   0  0  0  0  0  0  0  0  0  0  0  0
    5.7011   -5.0924    2.7320 C   0  0  0  0  0  0  0  0  0  0  0  0
    4.2660   -5.6795    2.6691 C   0  0  2  0  0  0  0  0  0  0  0  0
    3.2924   -4.8610    3.5714 C   0  0  0  0  0  0  0  0  0  0  0  0
   -0.1595   -6.5297    4.4737 H   0  0  0  0  0  0  0  0  0  0  0  0
   -1.7391   -7.0406    5.0671 H   0  0  0  0  0  0  0  0  0  0  0  0
   -1.4182   -7.0370    3.3453 H   0  0  0  0  0  0  0  0  0  0  0  0
   -1.3395   -9.3041    4.0942 H   0  0  0  0  0  0  0  0  0  0  0  0
   -0.8780   -8.9800    6.5167 H   0  0  0  0  0  0  0  0  0  0  0  0
    0.1216  -10.1948    5.8391 H   0  0  0  0  0  0  0  0  0  0  0  0
    0.9294   -7.3084    6.3500 H   0  0  0  0  0  0  0  0  0  0  0  0
    1.4737   -8.6905    7.2435 H   0  0  0  0  0  0  0  0  0  0  0  0
    3.5502   -9.9365    6.5013 H   0  0  0  0  0  0  0  0  0  0  0  0
    3.7922  -10.1502    4.7702 H   0  0  0  0  0  0  0  0  0  0  0  0
    2.3267  -10.7214    5.5458 H   0  0  0  0  0  0  0  0  0  0  0  0
    2.8763   -6.4584    5.6721 H   0  0  0  0  0  0  0  0  0  0  0  0
    3.7486   -7.5719    6.6656 H   0  0  0  0  0  0  0  0  0  0  0  0
    5.2278   -6.5400    5.0423 H   0  0  0  0  0  0  0  0  0  0  0  0
    5.1661   -8.2447    4.8664 H   0  0  0  0  0  0  0  0  0  0  0  0
    6.3134   -7.8027    2.7625 H   0  0  0  0  0  0  0  0  0  0  0  0
    5.2701   -8.0559    1.3788 H   0  0  0  0  0  0  0  0  0  0  0  0
    5.1809   -9.1315    2.7425 H   0  0  0  0  0  0  0  0  0  0  0  0
    0.2717   -8.5187    2.4885 H   0  0  0  0  0  0  0  0  0  0  0  0
    1.5220  -10.6462    2.2721 H   0  0  0  0  0  0  0  0  0  0  0  0
   -0.1824  -10.8603    2.6155 H   0  0  0  0  0  0  0  0  0  0  0  0
    0.9984  -11.1223    3.8802 H   0  0  0  0  0  0  0  0  0  0  0  0
    3.2291   -8.2789    0.8266 H   0  0  0  0  0  0  0  0  0  0  0  0
    1.5376   -8.1568    1.0921 H   0  0  0  0  0  0  0  0  0  0  0  0
    4.4890   -6.2994    0.6979 H   0  0  0  0  0  0  0  0  0  0  0  0
    5.5881   -4.0089   -1.4683 H   0  0  0  0  0  0  0  0  0  0  0  0
    4.9960   -5.5952   -1.2381 H   0  0  0  0  0  0  0  0  0  0  0  0
    6.2763   -5.0003   -0.2067 H   0  0  0  0  0  0  0  0  0  0  0  0
    2.7402   -4.2525   -1.2372 H   0  0  0  0  0  0  0  0  0  0  0  0
    2.2993   -3.3540    0.1969 H   0  0  0  0  0  0  0  0  0  0  0  0
    4.2040   -2.4508   -2.0115 H   0  0  0  0  0  0  0  0  0  0  0  0
    2.6173   -1.8600   -1.6967 H   0  0  0  0  0  0  0  0  0  0  0  0
    4.4189   -0.3445   -0.8280 H   0  0  0  0  0  0  0  0  0  0  0  0
    2.1955   -0.7053    0.0606 H   0  0  0  0  0  0  0  0  0  0  0  0
    7.2476   -2.5819    0.0917 H   0  0  0  0  0  0  0  0  0  0  0  0
    7.0291   -0.8836   -0.2543 H   0  0  0  0  0  0  0  0  0  0  0  0
    6.3120   -2.0518   -1.3023 H   0  0  0  0  0  0  0  0  0  0  0  0
    6.5133   -0.9507    2.2483 H   0  0  0  0  0  0  0  0  0  0  0  0
    4.7929   -0.6841    2.4952 H   0  0  0  0  0  0  0  0  0  0  0  0
    5.6769    0.2757    1.3172 H   0  0  0  0  0  0  0  0  0  0  0  0
    3.9423   -2.7925    1.8266 H   0  0  0  0  0  0  0  0  0  0  0  0
    6.8191   -3.3872    2.0495 H   0  0  0  0  0  0  0  0  0  0  0  0
    5.6070   -3.0402    3.2493 H   0  0  0  0  0  0  0  0  0  0  0  0
    6.3362   -5.6414    2.0363 H   0  0  0  0  0  0  0  0  0  0  0  0
    6.1707   -5.2293    3.7065 H   0  0  0  0  0  0  0  0  0  0  0  0
    2.9689   -3.9223    3.1422 H   0  0  0  0  0  0  0  0  0  0  0  0
    3.7498   -4.6291    4.5355 H   0  0  0  0  0  0  0  0  0  0  0  0
    2.3599   -5.3923    3.7589 H   0  0  0  0  0  0  0  0  0  0  0  0
  1  2  1  0
  1 33  1  0
  1 34  1  0
  1 35  1  0
  2 13  1  0
  2  3  1  0
  2 36  1  6
  3  4  1  0
  3 37  1  0
  3 38  1  0
  4  5  1  0
  4 39  1  0
  4 40  1  0
  5 12  1  0
  5  6  1  6
  5  7  1  0
  6 41  1  0
  6 42  1  0
  6 43  1  0
  7  8  1  0
  7 44  1  0
  7 45  1  0
  8  9  1  0
  8 46  1  0
  8 47  1  0
  9 31  1  0
  9 10  1  6
  9 11  1  0
 10 48  1  0
 10 49  1  0
 10 50  1  0
 11 12  2  0
 11 15  1  0
 12 13  1  0
 13 14  1  0
 13 51  1  6
 14 52  1  0
 14 53  1  0
 14 54  1  0
 15 16  1  0
 15 55  1  0
 15 56  1  0
 16 17  2  0
 16 18  1  0
 18 31  1  0
 18 19  1  0
 18 57  1  6
 19 28  1  0
 19 20  1  6
 19 21  1  0
 20 58  1  0
 20 59  1  0
 20 60  1  0
 21 22  1  0
 21 61  1  0
 21 62  1  0
 22 23  1  0
 22 63  1  0
 22 64  1  0
 23 24  1  0
 23 25  1  0
 23 65  1  6
 24 66  1  0
 25 26  1  0
 25 27  1  0
 25 28  1  0
 26 67  1  0
 26 68  1  0
 26 69  1  0
 27 70  1  0
 27 71  1  0
 27 72  1  0
 28 29  1  0
 28 73  1  1
 29 30  1  0
 29 74  1  0
 29 75  1  0
 30 31  1  0
 30 76  1  0
 30 77  1  0
 31 32  1  1
 32 78  1  0
 32 79  1  0
 32 80  1  0
M  END
>  <i_m_ct_stereo_status>  (272) 
1

>  <s_m_source_file>  (272) 
/var/tmp/pbs.5076255.sched01/tmpn8rdt6mw/90ee43ygr2.sdf

>  <i_m_source_file_index>  (272) 
25

>  <i_lp_mmshare_version>  (272) 
48012

>  <i_f3d_flags>  (272) 
0

>  <s_epik_input>  (272) 
W0NIMl0xW0NIMl1bQ0BASF0oW0NIM10pW0NASF0oW0NIM10pQyhbQ0BdMTJbQ0gzXSk9QzNbQ0BdKFtDSDNdKShbQ0gyXVtDSDJdMilbQ0BdNChbQ0gzXSlbQ0BASF0oQyg9TylbQ0gyXTMpW0NAXTUoW0NIM10pW0NAQEhdKFtDSDJdW0NIMl00KUMoW0NIM10pKFtDSDNdKVtDQEhdKFtPSF0pW0NIMl1bQ0gyXTU=

>  <s_epik_cmdline>  (272) 
J2VwaWtfcHl0aG9uJywgJy1waHQnLCAnMi4wJywgJy1waCcsICc3LjAnLCAnLXRuJywgJzgnLCAnLW1hJywgJzIwMCcsICctaW1hZScsICc8aW5maWxlLm1hZT4nLCAnLW9tYWUnLCAnPG91dGZpbGUubWFlPic=

>  <r_lp_tautomer_probability>  (272) 
1

>  <r_epik_Ionization_Penalty>  (272) 
2.23163e-06

>  <r_epik_Ionization_Penalty_Charging>  (272) 
0

>  <r_epik_Ionization_Penalty_Neutral>  (272) 
2.23163e-06

>  <r_epik_State_Penalty>  (272) 
-0

>  <r_epik_Charging_Adjusted_Penalty>  (272) 
0

>  <i_epik_Tot_Q>  (272) 
0

>  <i_epik_Tot_abs_Q>  (272) 
0

>  <s_lp_Force_Field>  (272) 
OPLS3e

>  <r_lp_Energy>  (272) 
96.1463

>  <b_lp_Chiralities_Consistent>  (272) 
1

>  <s_lp_Variant>  (272) 
71:0-1

>  <s_i_glide_gridfile>  (272) 
pfpi4k_grid

>  <i_i_glide_lignum>  (272) 
25

>  <i_i_glide_rotatable_bonds>  (272) 
1

>  <r_i_docking_score>  (272) 
-3.39635

>  <r_i_glide_ligand_efficiency>  (272) 
-0.106136

>  <r_i_glide_ligand_efficiency_sa>  (272) 
-0.336961

>  <r_i_glide_ligand_efficiency_ln>  (272) 
-0.760536

>  <r_i_glide_gscore>  (272) 
-3.39635

>  <r_i_glide_lipo>  (272) 
-0.412076

>  <r_i_glide_hbond>  (272) 
-0.303824

>  <r_i_glide_metal>  (272) 
-0

>  <r_i_glide_rewards>  (272) 
-0.404312

>  <r_i_glide_evdw>  (272) 
-27.4446

>  <r_i_glide_ecoul>  (272) 
-5.90438

>  <r_i_glide_erotb>  (272) 
0

>  <r_i_glide_esite>  (272) 
-0.0182533

>  <r_i_glide_emodel>  (272) 
-39.9965

>  <r_i_glide_energy>  (272) 
-33.349

>  <r_i_glide_einternal>  (272) 
0.778135

>  <r_i_glide_intrahb_reward>  (272) 
-0

>  <i_i_glide_confnum>  (272) 
2

>  <i_i_glide_posenum>  (272) 
11

>  <r_i_glide_eff_state_penalty>  (272) 
0

>  <ligand_id>  (272) 
71

>  <original_smiles>  (272) 
CC1CCC2(C)CCC3(C)C(=C2C1C)CC(=O)C1C2(C)CCC(O)C(C)(C)C2CCC13C

>  <smiles>  (272) 
[H]OC1([H])C([H])([H])C([H])([H])C2(C([H])([H])[H])C3([H])C(=O)C([H])([H])C4=C5C([H])(C([H])([H])[H])C([H])(C([H])([H])[H])C([H])([H])C([H])([H])C5(C([H])([H])[H])C([H])([H])C([H])([H])C4(C([H])([H])[H])C3(C([H])([H])[H])C([H])([H])C([H])([H])C2([H])C1(C([H])([H])[H])C([H])([H])[H]

$$$$
71:0:1
     RDKit          3D

 80 84  0  0  1  0  0  0  0  0999 V2000
    0.8966  -10.0936    2.6463 C   0  0  0  0  0  0  0  0  0  0  0  0
    1.8050  -10.8651    3.6165 C   0  0  2  0  0  0  0  0  0  0  0  0
    1.2527  -10.8406    5.0341 C   0  0  0  0  0  0  0  0  0  0  0  0
    1.3035   -9.4301    5.6165 C   0  0  0  0  0  0  0  0  0  0  0  0
    2.7146   -8.7805    5.5948 C   0  0  2  0  0  0  0  0  0  0  0  0
    3.5484   -9.3570    6.7659 C   0  0  0  0  0  0  0  0  0  0  0  0
    2.4855   -7.2787    5.8375 C   0  0  0  0  0  0  0  0  0  0  0  0
    3.7621   -6.4538    5.7046 C   0  0  0  0  0  0  0  0  0  0  0  0
    4.5504   -6.6282    4.3633 C   0  0  1  0  0  0  0  0  0  0  0  0
    6.0462   -6.5816    4.8006 C   0  0  0  0  0  0  0  0  0  0  0  0
    4.2890   -8.0271    3.7280 C   0  0  0  0  0  0  0  0  0  0  0  0
    3.4709   -8.9833    4.2585 C   0  0  0  0  0  0  0  0  0  0  0  0
    3.2614  -10.3569    3.5769 C   0  0  1  0  0  0  0  0  0  0  0  0
    4.2771  -11.4022    4.0778 C   0  0  0  0  0  0  0  0  0  0  0  0
    5.0793   -8.2258    2.4264 C   0  0  0  0  0  0  0  0  0  0  0  0
    4.7164   -7.1286    1.4341 C   0  0  0  0  0  0  0  0  0  0  0  0
    4.2494   -7.4099    0.3359 O   0  0  0  0  0  0  0  0  0  0  0  0
    4.9700   -5.6953    1.9394 C   0  0  1  0  0  0  0  0  0  0  0  0
    5.1606   -4.4562    0.9246 C   0  0  1  0  0  0  0  0  0  0  0  0
    6.6858   -4.1509    0.9319 C   0  0  0  0  0  0  0  0  0  0  0  0
    4.7593   -4.7442   -0.5515 C   0  0  0  0  0  0  0  0  0  0  0  0
    4.8232   -3.5370   -1.5152 C   0  0  0  0  0  0  0  0  0  0  0  0
    3.9860   -2.3320   -1.0363 C   0  0  1  0  0  0  0  0  0  0  0  0
    2.6267   -2.6712   -1.2284 O   0  0  0  0  0  0  0  0  0  0  0  0
    4.3168   -1.9378    0.4374 C   0  0  0  0  0  0  0  0  0  0  0  0
    5.6661   -1.1683    0.4669 C   0  0  0  0  0  0  0  0  0  0  0  0
    3.2466   -0.9384    0.9382 C   0  0  0  0  0  0  0  0  0  0  0  0
    4.2863   -3.2193    1.3491 C   0  0  2  0  0  0  0  0  0  0  0  0
    4.2925   -2.9110    2.8671 C   0  0  0  0  0  0  0  0  0  0  0  0
    4.6749   -4.0786    3.7858 C   0  0  0  0  0  0  0  0  0  0  0  0
    4.2034   -5.4753    3.2957 C   0  0  2  0  0  0  0  0  0  0  0  0
    2.6614   -5.4917    3.0695 C   0  0  0  0  0  0  0  0  0  0  0  0
    0.9107   -9.0185    2.8236 H   0  0  0  0  0  0  0  0  0  0  0  0
   -0.1361  -10.4392    2.7015 H   0  0  0  0  0  0  0  0  0  0  0  0
    1.2410  -10.2545    1.6303 H   0  0  0  0  0  0  0  0  0  0  0  0
    1.8007  -11.9033    3.2794 H   0  0  0  0  0  0  0  0  0  0  0  0
    0.2302  -11.2210    5.0519 H   0  0  0  0  0  0  0  0  0  0  0  0
    1.8307  -11.5161    5.6606 H   0  0  0  0  0  0  0  0  0  0  0  0
    0.5889   -8.8163    5.0678 H   0  0  0  0  0  0  0  0  0  0  0  0
    0.9257   -9.4640    6.6380 H   0  0  0  0  0  0  0  0  0  0  0  0
    3.1732   -9.0165    7.7308 H   0  0  0  0  0  0  0  0  0  0  0  0
    4.5970   -9.0647    6.6976 H   0  0  0  0  0  0  0  0  0  0  0  0
    3.5204  -10.4448    6.7991 H   0  0  0  0  0  0  0  0  0  0  0  0
    1.7361   -6.9028    5.1448 H   0  0  0  0  0  0  0  0  0  0  0  0
    2.0576   -7.1233    6.8274 H   0  0  0  0  0  0  0  0  0  0  0  0
    3.5088   -5.4149    5.9001 H   0  0  0  0  0  0  0  0  0  0  0  0
    4.3943   -6.7255    6.5500 H   0  0  0  0  0  0  0  0  0  0  0  0
    6.2711   -5.6902    5.3870 H   0  0  0  0  0  0  0  0  0  0  0  0
    6.7639   -6.6153    3.9847 H   0  0  0  0  0  0  0  0  0  0  0  0
    6.2829   -7.4344    5.4392 H   0  0  0  0  0  0  0  0  0  0  0  0
    3.4468  -10.2701    2.5138 H   0  0  0  0  0  0  0  0  0  0  0  0
    5.2976  -11.0304    3.9768 H   0  0  0  0  0  0  0  0  0  0  0  0
    4.2082  -12.3202    3.4933 H   0  0  0  0  0  0  0  0  0  0  0  0
    4.1247  -11.6759    5.1200 H   0  0  0  0  0  0  0  0  0  0  0  0
    6.1462   -8.1699    2.6337 H   0  0  0  0  0  0  0  0  0  0  0  0
    4.9417   -9.1892    1.9452 H   0  0  0  0  0  0  0  0  0  0  0  0
    5.9880   -5.8415    2.2754 H   0  0  0  0  0  0  0  0  0  0  0  0
    7.0133   -3.4731    0.1540 H   0  0  0  0  0  0  0  0  0  0  0  0
    7.2748   -5.0563    0.7708 H   0  0  0  0  0  0  0  0  0  0  0  0
    7.0062   -3.7202    1.8791 H   0  0  0  0  0  0  0  0  0  0  0  0
    5.3831   -5.5366   -0.9630 H   0  0  0  0  0  0  0  0  0  0  0  0
    3.7327   -5.1116   -0.5716 H   0  0  0  0  0  0  0  0  0  0  0  0
    5.8592   -3.2387   -1.6750 H   0  0  0  0  0  0  0  0  0  0  0  0
    4.4719   -3.8532   -2.4987 H   0  0  0  0  0  0  0  0  0  0  0  0
    4.1852   -1.4841   -1.6964 H   0  0  0  0  0  0  0  0  0  0  0  0
    2.0467   -1.9195   -1.1015 H   0  0  0  0  0  0  0  0  0  0  0  0
    6.1691   -1.2396    1.4303 H   0  0  0  0  0  0  0  0  0  0  0  0
    5.5266   -0.1085    0.2516 H   0  0  0  0  0  0  0  0  0  0  0  0
    6.3600   -1.5162   -0.2927 H   0  0  0  0  0  0  0  0  0  0  0  0
    3.5193   -0.4646    1.8810 H   0  0  0  0  0  0  0  0  0  0  0  0
    2.2752   -1.4155    1.0754 H   0  0  0  0  0  0  0  0  0  0  0  0
    3.1035   -0.1459    0.2113 H   0  0  0  0  0  0  0  0  0  0  0  0
    3.2722   -3.5597    1.1543 H   0  0  0  0  0  0  0  0  0  0  0  0
    4.9127   -2.0451    3.1042 H   0  0  0  0  0  0  0  0  0  0  0  0
    3.2788   -2.6237    3.1387 H   0  0  0  0  0  0  0  0  0  0  0  0
    5.7622   -4.0812    3.8437 H   0  0  0  0  0  0  0  0  0  0  0  0
    4.3348   -3.8495    4.7950 H   0  0  0  0  0  0  0  0  0  0  0  0
    2.3408   -5.0188    2.1507 H   0  0  0  0  0  0  0  0  0  0  0  0
    2.1430   -4.9885    3.8864 H   0  0  0  0  0  0  0  0  0  0  0  0
    2.2683   -6.5047    2.9931 H   0  0  0  0  0  0  0  0  0  0  0  0
  1  2  1  0
  1 33  1  0
  1 34  1  0
  1 35  1  0
  2 13  1  0
  2  3  1  0
  2 36  1  6
  3  4  1  0
  3 37  1  0
  3 38  1  0
  4  5  1  0
  4 39  1  0
  4 40  1  0
  5 12  1  0
  5  6  1  1
  5  7  1  0
  6 41  1  0
  6 42  1  0
  6 43  1  0
  7  8  1  0
  7 44  1  0
  7 45  1  0
  8  9  1  0
  8 46  1  0
  8 47  1  0
  9 31  1  0
  9 10  1  1
  9 11  1  0
 10 48  1  0
 10 49  1  0
 10 50  1  0
 11 12  2  0
 11 15  1  0
 12 13  1  0
 13 14  1  0
 13 51  1  6
 14 52  1  0
 14 53  1  0
 14 54  1  0
 15 16  1  0
 15 55  1  0
 15 56  1  0
 16 17  2  0
 16 18  1  0
 18 31  1  0
 18 19  1  0
 18 57  1  1
 19 28  1  0
 19 20  1  6
 19 21  1  0
 20 58  1  0
 20 59  1  0
 20 60  1  0
 21 22  1  0
 21 61  1  0
 21 62  1  0
 22 23  1  0
 22 63  1  0
 22 64  1  0
 23 24  1  0
 23 25  1  0
 23 65  1  6
 24 66  1  0
 25 26  1  0
 25 27  1  0
 25 28  1  0
 26 67  1  0
 26 68  1  0
 26 69  1  0
 27 70  1  0
 27 71  1  0
 27 72  1  0
 28 29  1  0
 28 73  1  6
 29 30  1  0
 29 74  1  0
 29 75  1  0
 30 31  1  0
 30 76  1  0
 30 77  1  0
 31 32  1  6
 32 78  1  0
 32 79  1  0
 32 80  1  0
M  END
>  <i_m_ct_stereo_status>  (273) 
1

>  <s_m_source_file>  (273) 
/var/tmp/pbs.5076255.sched01/tmpn8rdt6mw/90ee43ygr2.sdf

>  <i_m_source_file_index>  (273) 
25

>  <i_lp_mmshare_version>  (273) 
48012

>  <i_f3d_flags>  (273) 
0

>  <s_epik_input>  (273) 
W0NIMl0xW0NIMl1bQ0BASF0oW0NIM10pW0NASF0oW0NIM10pQyhbQ0BdMTJbQ0gzXSk9QzNbQ0BdKFtDSDNdKShbQ0gyXVtDSDJdMilbQ0BdNChbQ0gzXSlbQ0BASF0oQyg9TylbQ0gyXTMpW0NAXTUoW0NIM10pW0NAQEhdKFtDSDJdW0NIMl00KUMoW0NIM10pKFtDSDNdKVtDQEhdKFtPSF0pW0NIMl1bQ0gyXTU=

>  <s_epik_cmdline>  (273) 
J2VwaWtfcHl0aG9uJywgJy1waHQnLCAnMi4wJywgJy1waCcsICc3LjAnLCAnLXRuJywgJzgnLCAnLW1hJywgJzIwMCcsICctaW1hZScsICc8aW5maWxlLm1hZT4nLCAnLW9tYWUnLCAnPG91dGZpbGUubWFlPic=

>  <r_lp_tautomer_probability>  (273) 
1

>  <r_epik_Ionization_Penalty>  (273) 
2.23163e-06

>  <r_epik_Ionization_Penalty_Charging>  (273) 
0

>  <r_epik_Ionization_Penalty_Neutral>  (273) 
2.23163e-06

>  <r_epik_State_Penalty>  (273) 
-0

>  <r_epik_Charging_Adjusted_Penalty>  (273) 
0

>  <i_epik_Tot_Q>  (273) 
0

>  <i_epik_Tot_abs_Q>  (273) 
0

>  <s_lp_Force_Field>  (273) 
OPLS3e

>  <r_lp_Energy>  (273) 
96.1463

>  <b_lp_Chiralities_Consistent>  (273) 
1

>  <s_lp_Variant>  (273) 
71:0-1

>  <s_i_glide_gridfile>  (273) 
pfpi4k_grid

>  <i_i_glide_lignum>  (273) 
25

>  <i_i_glide_rotatable_bonds>  (273) 
1

>  <r_i_docking_score>  (273) 
-3.23569

>  <r_i_glide_ligand_efficiency>  (273) 
-0.101115

>  <r_i_glide_ligand_efficiency_sa>  (273) 
-0.321021

>  <r_i_glide_ligand_efficiency_ln>  (273) 
-0.72456

>  <r_i_glide_gscore>  (273) 
-3.23569

>  <r_i_glide_lipo>  (273) 
-0.551021

>  <r_i_glide_hbond>  (273) 
-0.16

>  <r_i_glide_metal>  (273) 
-0

>  <r_i_glide_rewards>  (273) 
-0.517668

>  <r_i_glide_evdw>  (273) 
-27.118

>  <r_i_glide_ecoul>  (273) 
-4.34068

>  <r_i_glide_erotb>  (273) 
0

>  <r_i_glide_esite>  (273) 
0

>  <r_i_glide_emodel>  (273) 
-38.0347

>  <r_i_glide_energy>  (273) 
-31.4587

>  <r_i_glide_einternal>  (273) 
0.353846

>  <r_i_glide_intrahb_reward>  (273) 
-0

>  <i_i_glide_confnum>  (273) 
2

>  <i_i_glide_posenum>  (273) 
7

>  <r_i_glide_eff_state_penalty>  (273) 
0

>  <ligand_id>  (273) 
71

>  <original_smiles>  (273) 
CC1CCC2(C)CCC3(C)C(=C2C1C)CC(=O)C1C2(C)CCC(O)C(C)(C)C2CCC13C

>  <smiles>  (273) 
[H]OC1([H])C([H])([H])C([H])([H])C2(C([H])([H])[H])C3([H])C(=O)C([H])([H])C4=C5C([H])(C([H])([H])[H])C([H])(C([H])([H])[H])C([H])([H])C([H])([H])C5(C([H])([H])[H])C([H])([H])C([H])([H])C4(C([H])([H])[H])C3(C([H])([H])[H])C([H])([H])C([H])([H])C2([H])C1(C([H])([H])[H])C([H])([H])[H]

$$$$
71:0:2
     RDKit          3D

 80 84  0  0  1  0  0  0  0  0999 V2000
    2.6805   -9.3771    1.6255 C   0  0  0  0  0  0  0  0  0  0  0  0
    2.7326  -10.1366    2.9673 C   0  0  2  0  0  0  0  0  0  0  0  0
    1.3710  -10.7065    3.3722 C   0  0  0  0  0  0  0  0  0  0  0  0
    0.3938   -9.5735    3.6884 C   0  0  0  0  0  0  0  0  0  0  0  0
    0.8879   -8.5866    4.7823 C   0  0  2  0  0  0  0  0  0  0  0  0
    0.6915   -9.2396    6.1734 C   0  0  0  0  0  0  0  0  0  0  0  0
   -0.0270   -7.3539    4.6747 C   0  0  0  0  0  0  0  0  0  0  0  0
    0.4101   -6.2101    5.5872 C   0  0  0  0  0  0  0  0  0  0  0  0
    1.8997   -5.7456    5.4327 C   0  0  1  0  0  0  0  0  0  0  0  0
    2.3458   -5.4254    6.8911 C   0  0  0  0  0  0  0  0  0  0  0  0
    2.8045   -6.8965    4.9035 C   0  0  0  0  0  0  0  0  0  0  0  0
    2.3646   -8.1586    4.6052 C   0  0  0  0  0  0  0  0  0  0  0  0
    3.3224   -9.2589    4.0923 C   0  0  1  0  0  0  0  0  0  0  0  0
    3.9131  -10.0854    5.2512 C   0  0  0  0  0  0  0  0  0  0  0  0
    4.2712   -6.4623    4.7668 C   0  0  0  0  0  0  0  0  0  0  0  0
    4.3797   -5.2618    3.8315 C   0  0  0  0  0  0  0  0  0  0  0  0
    5.0690   -5.3149    2.8121 O   0  0  0  0  0  0  0  0  0  0  0  0
    3.5530   -4.0390    4.2838 C   0  0  1  0  0  0  0  0  0  0  0  0
    3.8949   -2.5467    3.7790 C   0  0  1  0  0  0  0  0  0  0  0  0
    4.5654   -1.8517    4.9985 C   0  0  0  0  0  0  0  0  0  0  0  0
    4.9038   -2.4750    2.5904 C   0  0  0  0  0  0  0  0  0  0  0  0
    5.1595   -1.0580    2.0228 C   0  0  0  0  0  0  0  0  0  0  0  0
    3.8653   -0.3437    1.5873 C   0  0  1  0  0  0  0  0  0  0  0  0
    3.4119   -0.9927    0.4117 O   0  0  0  0  0  0  0  0  0  0  0  0
    2.7811   -0.3300    2.7036 C   0  0  0  0  0  0  0  0  0  0  0  0
    3.1612    0.7283    3.7726 C   0  0  0  0  0  0  0  0  0  0  0  0
    1.4385    0.1499    2.0866 C   0  0  0  0  0  0  0  0  0  0  0  0
    2.6087   -1.7867    3.2793 C   0  0  2  0  0  0  0  0  0  0  0  0
    1.3524   -1.9718    4.1673 C   0  0  0  0  0  0  0  0  0  0  0  0
    1.3573   -3.2085    5.0776 C   0  0  0  0  0  0  0  0  0  0  0  0
    2.0482   -4.4639    4.4710 C   0  0  2  0  0  0  0  0  0  0  0  0
    1.4165   -4.8412    3.1023 C   0  0  0  0  0  0  0  0  0  0  0  0
    2.1151   -8.4483    1.6970 H   0  0  0  0  0  0  0  0  0  0  0  0
    2.2184   -9.9822    0.8480 H   0  0  0  0  0  0  0  0  0  0  0  0
    3.6855   -9.1263    1.2800 H   0  0  0  0  0  0  0  0  0  0  0  0
    3.4028  -10.9830    2.8055 H   0  0  0  0  0  0  0  0  0  0  0  0
    0.9677  -11.3285    2.5724 H   0  0  0  0  0  0  0  0  0  0  0  0
    1.4813  -11.3677    4.2325 H   0  0  0  0  0  0  0  0  0  0  0  0
    0.1815   -9.0428    2.7593 H   0  0  0  0  0  0  0  0  0  0  0  0
   -0.5614  -10.0014    3.9881 H   0  0  0  0  0  0  0  0  0  0  0  0
   -0.3647   -9.3307    6.4270 H   0  0  0  0  0  0  0  0  0  0  0  0
    1.1763   -8.6630    6.9632 H   0  0  0  0  0  0  0  0  0  0  0  0
    1.0989  -10.2492    6.2190 H   0  0  0  0  0  0  0  0  0  0  0  0
   -0.0593   -7.0056    3.6448 H   0  0  0  0  0  0  0  0  0  0  0  0
   -1.0536   -7.6328    4.9091 H   0  0  0  0  0  0  0  0  0  0  0  0
   -0.2933   -5.3908    5.4560 H   0  0  0  0  0  0  0  0  0  0  0  0
    0.2272   -6.5435    6.6093 H   0  0  0  0  0  0  0  0  0  0  0  0
    1.6638   -4.7285    7.3804 H   0  0  0  0  0  0  0  0  0  0  0  0
    3.3462   -5.0084    6.9814 H   0  0  0  0  0  0  0  0  0  0  0  0
    2.3429   -6.3339    7.4963 H   0  0  0  0  0  0  0  0  0  0  0  0
    4.1736   -8.8014    3.6046 H   0  0  0  0  0  0  0  0  0  0  0  0
    4.3755   -9.4348    5.9948 H   0  0  0  0  0  0  0  0  0  0  0  0
    4.6849  -10.7647    4.8895 H   0  0  0  0  0  0  0  0  0  0  0  0
    3.1689  -10.6946    5.7625 H   0  0  0  0  0  0  0  0  0  0  0  0
    4.6588   -6.1814    5.7453 H   0  0  0  0  0  0  0  0  0  0  0  0
    4.9502   -7.2330    4.4199 H   0  0  0  0  0  0  0  0  0  0  0  0
    3.8959   -3.9979    5.3092 H   0  0  0  0  0  0  0  0  0  0  0  0
    5.0412   -0.9067    4.7708 H   0  0  0  0  0  0  0  0  0  0  0  0
    5.3675   -2.4644    5.4146 H   0  0  0  0  0  0  0  0  0  0  0  0
    3.8548   -1.6622    5.8034 H   0  0  0  0  0  0  0  0  0  0  0  0
    5.8631   -2.9000    2.8861 H   0  0  0  0  0  0  0  0  0  0  0  0
    4.5284   -3.0891    1.7693 H   0  0  0  0  0  0  0  0  0  0  0  0
    5.7012   -0.4520    2.7473 H   0  0  0  0  0  0  0  0  0  0  0  0
    5.8347   -1.1339    1.1683 H   0  0  0  0  0  0  0  0  0  0  0  0
    4.1033    0.6841    1.3061 H   0  0  0  0  0  0  0  0  0  0  0  0
    2.5382   -0.6797    0.1861 H   0  0  0  0  0  0  0  0  0  0  0  0
    2.7364    0.5090    4.7532 H   0  0  0  0  0  0  0  0  0  0  0  0
    2.8166    1.7240    3.4868 H   0  0  0  0  0  0  0  0  0  0  0  0
    4.2369    0.8381    3.8952 H   0  0  0  0  0  0  0  0  0  0  0  0
    0.6910    0.3604    2.8540 H   0  0  0  0  0  0  0  0  0  0  0  0
    1.0103   -0.6021    1.4261 H   0  0  0  0  0  0  0  0  0  0  0  0
    1.5671    1.0661    1.5073 H   0  0  0  0  0  0  0  0  0  0  0  0
    2.3548   -2.3162    2.3671 H   0  0  0  0  0  0  0  0  0  0  0  0
    1.1594   -1.0857    4.7716 H   0  0  0  0  0  0  0  0  0  0  0  0
    0.4941   -2.0659    3.5019 H   0  0  0  0  0  0  0  0  0  0  0  0
    1.8853   -2.9280    5.9898 H   0  0  0  0  0  0  0  0  0  0  0  0
    0.3318   -3.4010    5.3893 H   0  0  0  0  0  0  0  0  0  0  0  0
    1.7321   -4.2144    2.2783 H   0  0  0  0  0  0  0  0  0  0  0  0
    0.3297   -4.7770    3.1660 H   0  0  0  0  0  0  0  0  0  0  0  0
    1.6780   -5.8490    2.7820 H   0  0  0  0  0  0  0  0  0  0  0  0
  1  2  1  0
  1 33  1  0
  1 34  1  0
  1 35  1  0
  2 13  1  0
  2  3  1  0
  2 36  1  6
  3  4  1  0
  3 37  1  0
  3 38  1  0
  4  5  1  0
  4 39  1  0
  4 40  1  0
  5 12  1  0
  5  6  1  1
  5  7  1  0
  6 41  1  0
  6 42  1  0
  6 43  1  0
  7  8  1  0
  7 44  1  0
  7 45  1  0
  8  9  1  0
  8 46  1  0
  8 47  1  0
  9 31  1  0
  9 10  1  1
  9 11  1  0
 10 48  1  0
 10 49  1  0
 10 50  1  0
 11 12  2  0
 11 15  1  0
 12 13  1  0
 13 14  1  0
 13 51  1  6
 14 52  1  0
 14 53  1  0
 14 54  1  0
 15 16  1  0
 15 55  1  0
 15 56  1  0
 16 17  2  0
 16 18  1  0
 18 31  1  0
 18 19  1  0
 18 57  1  1
 19 28  1  0
 19 20  1  1
 19 21  1  0
 20 58  1  0
 20 59  1  0
 20 60  1  0
 21 22  1  0
 21 61  1  0
 21 62  1  0
 22 23  1  0
 22 63  1  0
 22 64  1  0
 23 24  1  0
 23 25  1  0
 23 65  1  6
 24 66  1  0
 25 26  1  0
 25 27  1  0
 25 28  1  0
 26 67  1  0
 26 68  1  0
 26 69  1  0
 27 70  1  0
 27 71  1  0
 27 72  1  0
 28 29  1  0
 28 73  1  6
 29 30  1  0
 29 74  1  0
 29 75  1  0
 30 31  1  0
 30 76  1  0
 30 77  1  0
 31 32  1  6
 32 78  1  0
 32 79  1  0
 32 80  1  0
M  END
>  <i_m_ct_stereo_status>  (274) 
1

>  <s_m_source_file>  (274) 
/var/tmp/pbs.5076255.sched01/tmpn8rdt6mw/90ee43ygr2.sdf

>  <i_m_source_file_index>  (274) 
25

>  <i_lp_mmshare_version>  (274) 
48012

>  <i_f3d_flags>  (274) 
0

>  <s_epik_input>  (274) 
W0NIMl0xW0NIMl1bQ0BASF0oW0NIM10pW0NASF0oW0NIM10pQyhbQ0BdMTJbQ0gzXSk9QzNbQ0BdKFtDSDNdKShbQ0gyXVtDSDJdMilbQ0BdNChbQ0gzXSlbQ0BASF0oQyg9TylbQ0gyXTMpW0NAXTUoW0NIM10pW0NAQEhdKFtDSDJdW0NIMl00KUMoW0NIM10pKFtDSDNdKVtDQEhdKFtPSF0pW0NIMl1bQ0gyXTU=

>  <s_epik_cmdline>  (274) 
J2VwaWtfcHl0aG9uJywgJy1waHQnLCAnMi4wJywgJy1waCcsICc3LjAnLCAnLXRuJywgJzgnLCAnLW1hJywgJzIwMCcsICctaW1hZScsICc8aW5maWxlLm1hZT4nLCAnLW9tYWUnLCAnPG91dGZpbGUubWFlPic=

>  <r_lp_tautomer_probability>  (274) 
1

>  <r_epik_Ionization_Penalty>  (274) 
2.23163e-06

>  <r_epik_Ionization_Penalty_Charging>  (274) 
0

>  <r_epik_Ionization_Penalty_Neutral>  (274) 
2.23163e-06

>  <r_epik_State_Penalty>  (274) 
-0

>  <r_epik_Charging_Adjusted_Penalty>  (274) 
0

>  <i_epik_Tot_Q>  (274) 
0

>  <i_epik_Tot_abs_Q>  (274) 
0

>  <s_lp_Force_Field>  (274) 
OPLS3e

>  <r_lp_Energy>  (274) 
96.1463

>  <b_lp_Chiralities_Consistent>  (274) 
1

>  <s_lp_Variant>  (274) 
71:0-1

>  <s_i_glide_gridfile>  (274) 
pfpi4k_grid

>  <i_i_glide_lignum>  (274) 
25

>  <i_i_glide_rotatable_bonds>  (274) 
1

>  <r_i_docking_score>  (274) 
-2.71212

>  <r_i_glide_ligand_efficiency>  (274) 
-0.0847538

>  <r_i_glide_ligand_efficiency_sa>  (274) 
-0.269077

>  <r_i_glide_ligand_efficiency_ln>  (274) 
-0.607318

>  <r_i_glide_gscore>  (274) 
-2.71212

>  <r_i_glide_lipo>  (274) 
-0.400084

>  <r_i_glide_hbond>  (274) 
-0.138323

>  <r_i_glide_metal>  (274) 
-0

>  <r_i_glide_rewards>  (274) 
-0.404556

>  <r_i_glide_evdw>  (274) 
-28.8149

>  <r_i_glide_ecoul>  (274) 
-2.18943

>  <r_i_glide_erotb>  (274) 
0

>  <r_i_glide_esite>  (274) 
0

>  <r_i_glide_emodel>  (274) 
-36.3838

>  <r_i_glide_energy>  (274) 
-31.0043

>  <r_i_glide_einternal>  (274) 
0.545788

>  <r_i_glide_intrahb_reward>  (274) 
-0

>  <i_i_glide_confnum>  (274) 
2

>  <i_i_glide_posenum>  (274) 
2

>  <r_i_glide_eff_state_penalty>  (274) 
0

>  <ligand_id>  (274) 
71

>  <original_smiles>  (274) 
CC1CCC2(C)CCC3(C)C(=C2C1C)CC(=O)C1C2(C)CCC(O)C(C)(C)C2CCC13C

>  <smiles>  (274) 
[H]OC1([H])C([H])([H])C([H])([H])C2(C([H])([H])[H])C3([H])C(=O)C([H])([H])C4=C5C([H])(C([H])([H])[H])C([H])(C([H])([H])[H])C([H])([H])C([H])([H])C5(C([H])([H])[H])C([H])([H])C([H])([H])C4(C([H])([H])[H])C3(C([H])([H])[H])C([H])([H])C([H])([H])C2([H])C1(C([H])([H])[H])C([H])([H])[H]

$$$$
72:0:0
     RDKit          3D

 80 86  0  0  1  0  0  0  0  0999 V2000
    3.0745   -7.2699    6.7969 C   0  0  0  0  0  0  0  0  0  0  0  0
    2.9240   -5.8748    6.9709 O   0  0  0  0  0  0  0  0  0  0  0  0
    1.8321   -5.3553    6.2317 C   0  0  0  0  0  0  0  0  0  0  0  0
    1.7266   -3.7996    6.4421 C   0  0  1  0  0  0  0  0  0  0  0  0
    0.4332   -3.1426    5.8607 C   0  0  2  0  0  0  0  0  0  0  0  0
    0.2426   -2.5265    4.5059 C   0  0  2  0  0  0  0  0  0  0  0  0
    0.7473   -3.2058    3.3459 O   0  0  0  0  0  0  0  0  0  0  0  0
    1.2850   -1.9047    3.5732 C   0  0  2  0  0  0  0  0  0  0  0  0
    2.8231   -1.8181    3.6195 C   0  0  1  0  0  0  0  0  0  0  0  0
    3.1886   -1.6805    2.0619 C   0  0  2  0  0  0  0  0  0  0  0  0
    3.1019   -2.8995    1.1751 C   0  0  0  0  0  0  0  0  0  0  0  0
    4.2016   -3.1170    0.4326 C   0  0  0  0  0  0  0  0  0  0  0  0
    4.4790   -4.2447   -0.5507 C   0  0  0  0  0  0  0  0  0  0  0  0
    5.1525   -2.0524    0.6864 C   0  0  0  0  0  0  0  0  0  0  0  0
    6.3068   -1.9557    0.2103 O   0  0  0  0  0  0  0  0  0  0  0  0
    4.5492   -1.0249    1.6445 C   0  0  1  0  0  0  0  0  0  0  0  0
    4.2957    0.1342    0.9056 O   0  0  0  0  0  0  0  0  0  0  0  0
    5.4762   -0.6500    2.7802 C   0  0  0  0  0  0  0  0  0  0  0  0
    4.7785   -0.0965    4.0507 C   0  0  0  0  0  0  0  0  0  0  0  0
    3.2551   -0.4427    4.3297 C   0  0  1  0  0  0  0  0  0  0  0  0
    2.6165    0.6258    3.6431 O   0  0  0  0  0  0  0  0  0  0  0  0
    2.8657   -0.3460    5.8858 C   0  0  1  0  0  0  0  0  0  0  0  0
    3.6468    0.8755    6.4733 C   0  0  0  0  0  0  0  0  0  0  0  0
    1.3310   -0.0502    6.2621 C   0  0  1  0  0  0  0  0  0  0  0  0
    0.4229    0.3151    5.2235 O   0  0  0  0  0  0  0  0  0  0  0  0
   -0.8762    0.1283    5.2068 C   0  0  0  0  0  0  0  0  0  0  0  0
   -1.3367    0.4855    3.9389 N   0  0  0  0  0  0  0  0  0  0  0  0
   -1.5626   -0.3576    6.1283 O   0  0  0  0  0  0  0  0  0  0  0  0
    0.7517   -0.8936    7.4342 C   0  0  0  0  0  0  0  0  0  0  0  0
    0.3029   -2.3607    7.1789 C   0  0  2  0  0  0  0  0  0  0  0  0
    1.0036   -3.5439    7.8509 C   0  0  0  0  0  0  0  0  0  0  0  0
   -0.0622   -4.5627    8.3824 C   0  0  0  0  0  0  0  0  0  0  0  0
    1.9078   -3.3867    9.1117 C   0  0  0  0  0  0  0  0  0  0  0  0
    3.4605   -1.6356    6.5441 C   0  0  1  0  0  0  0  0  0  0  0  0
    3.6653   -1.5091    7.9346 O   0  0  0  0  0  0  0  0  0  0  0  0
    3.0847   -3.0708    5.9841 C   0  0  2  0  0  0  0  0  0  0  0  0
    3.4511   -3.0762    4.4329 C   0  0  1  0  0  0  0  0  0  0  0  0
    3.3570   -4.4556    3.7334 C   0  0  0  0  0  0  0  0  0  0  0  0
    4.8736   -3.0332    4.4110 O   0  0  0  0  0  0  0  0  0  0  0  0
    3.9418   -7.6151    7.3594 H   0  0  0  0  0  0  0  0  0  0  0  0
    3.2367   -7.5145    5.7474 H   0  0  0  0  0  0  0  0  0  0  0  0
    2.1996   -7.8163    7.1526 H   0  0  0  0  0  0  0  0  0  0  0  0
    1.8402   -5.6457    5.1936 H   0  0  0  0  0  0  0  0  0  0  0  0
    0.9332   -5.8626    6.5815 H   0  0  0  0  0  0  0  0  0  0  0  0
   -0.3019   -3.9270    5.8676 H   0  0  0  0  0  0  0  0  0  0  0  0
   -0.7522   -2.1227    4.3783 H   0  0  0  0  0  0  0  0  0  0  0  0
    0.8408   -1.1315    2.9853 H   0  0  0  0  0  0  0  0  0  0  0  0
    2.4376   -1.0287    1.6146 H   0  0  0  0  0  0  0  0  0  0  0  0
    2.2255   -3.5243    1.1555 H   0  0  0  0  0  0  0  0  0  0  0  0
    5.3402   -4.8300   -0.2278 H   0  0  0  0  0  0  0  0  0  0  0  0
    4.6986   -3.8409   -1.5391 H   0  0  0  0  0  0  0  0  0  0  0  0
    3.6341   -4.9214   -0.6524 H   0  0  0  0  0  0  0  0  0  0  0  0
    3.6689   -0.0384    0.2166 H   0  0  0  0  0  0  0  0  0  0  0  0
    6.1097   -1.4983    3.0400 H   0  0  0  0  0  0  0  0  0  0  0  0
    6.2129    0.0929    2.4438 H   0  0  0  0  0  0  0  0  0  0  0  0
    5.4266   -0.4001    4.8616 H   0  0  0  0  0  0  0  0  0  0  0  0
    4.8887    0.9814    4.0149 H   0  0  0  0  0  0  0  0  0  0  0  0
    1.6880    0.5046    3.6664 H   0  0  0  0  0  0  0  0  0  0  0  0
    3.3693    1.0735    7.5094 H   0  0  0  0  0  0  0  0  0  0  0  0
    3.4580    1.8012    5.9188 H   0  0  0  0  0  0  0  0  0  0  0  0
    4.7313    0.7481    6.5058 H   0  0  0  0  0  0  0  0  0  0  0  0
    1.3963    0.9065    6.7710 H   0  0  0  0  0  0  0  0  0  0  0  0
   -0.7349    0.9561    3.2996 H   0  0  0  0  0  0  0  0  0  0  0  0
   -2.3307    0.3677    3.7028 H   0  0  0  0  0  0  0  0  0  0  0  0
    1.4179   -0.8028    8.2630 H   0  0  0  0  0  0  0  0  0  0  0  0
   -0.1181   -0.3470    7.8179 H   0  0  0  0  0  0  0  0  0  0  0  0
   -0.7654   -2.3483    7.4154 H   0  0  0  0  0  0  0  0  0  0  0  0
   -0.7010   -4.1146    9.1470 H   0  0  0  0  0  0  0  0  0  0  0  0
    0.3947   -5.4460    8.8195 H   0  0  0  0  0  0  0  0  0  0  0  0
   -0.7537   -4.9361    7.6225 H   0  0  0  0  0  0  0  0  0  0  0  0
    1.5914   -4.0103    9.9530 H   0  0  0  0  0  0  0  0  0  0  0  0
    1.9054   -2.3865    9.5172 H   0  0  0  0  0  0  0  0  0  0  0  0
    2.9232   -3.6927    8.8797 H   0  0  0  0  0  0  0  0  0  0  0  0
    4.5286   -1.5897    6.3213 H   0  0  0  0  0  0  0  0  0  0  0  0
    4.1632   -0.7323    8.0928 H   0  0  0  0  0  0  0  0  0  0  0  0
    3.8427   -3.6981    6.4525 H   0  0  0  0  0  0  0  0  0  0  0  0
    2.3639   -4.7750    3.4400 H   0  0  0  0  0  0  0  0  0  0  0  0
    3.7637   -5.2344    4.3685 H   0  0  0  0  0  0  0  0  0  0  0  0
    3.9533   -4.5156    2.8260 H   0  0  0  0  0  0  0  0  0  0  0  0
    5.1380   -2.2321    4.8066 H   0  0  0  0  0  0  0  0  0  0  0  0
  1  2  1  0
  1 40  1  0
  1 41  1  0
  1 42  1  0
  2  3  1  0
  4  3  1  6
  3 43  1  0
  3 44  1  0
  4 31  1  0
  4 36  1  0
  4  5  1  0
  5 30  1  0
  5  6  1  0
  5 45  1  1
  6  8  1  0
  6  7  1  0
  6 46  1  6
  7  8  1  0
  8  9  1  0
  8 47  1  6
  9 20  1  1
  9 37  1  0
  9 10  1  0
 10 16  1  0
 10 11  1  0
 10 48  1  6
 11 12  2  0
 11 49  1  0
 12 13  1  0
 12 14  1  0
 13 50  1  0
 13 51  1  0
 13 52  1  0
 14 15  2  0
 14 16  1  0
 16 17  1  6
 16 18  1  0
 17 53  1  0
 18 19  1  0
 18 54  1  0
 18 55  1  0
 19 20  1  0
 19 56  1  0
 19 57  1  0
 20 21  1  6
 20 22  1  0
 21 58  1  0
 22 23  1  1
 22 24  1  0
 22 34  1  0
 23 59  1  0
 23 60  1  0
 23 61  1  0
 24 25  1  0
 24 29  1  0
 24 62  1  1
 25 26  1  0
 26 27  1  0
 26 28  2  0
 27 63  1  0
 27 64  1  0
 29 30  1  0
 29 65  1  0
 29 66  1  0
 30 31  1  0
 30 67  1  1
 31 32  1  0
 31 33  1  0
 32 68  1  0
 32 69  1  0
 32 70  1  0
 33 71  1  0
 33 72  1  0
 33 73  1  0
 34 35  1  0
 34 36  1  0
 34 74  1  6
 35 75  1  0
 36 37  1  0
 36 76  1  1
 37 38  1  0
 37 39  1  1
 38 77  1  0
 38 78  1  0
 38 79  1  0
 39 80  1  0
M  END
>  <i_m_ct_stereo_status>  (275) 
1

>  <s_m_source_file>  (275) 
/var/tmp/pbs.5076255.sched01/tmpn8rdt6mw/90ee43ygr2.sdf

>  <i_m_source_file_index>  (275) 
26

>  <i_lp_mmshare_version>  (275) 
48012

>  <i_f3d_flags>  (275) 
0

>  <s_epik_input>  (275) 
W0NAXTEyM1tDQEBIXTRbQ0BASF0oTzQpW0NASF01W0NAQF02KFtDSDJdT1tDSDNdKVtDQEBIXShbQ0BdMyhbQ0gzXSlbT0hdKVtDQEhdKFtPSF0pW0NAXShbQ0gzXSkoW0NAQEhdKE9DKD1PKVtOSDJdKVtDSDJdW0NAQEhdNUM2KFtDSDNdKVtDSDNdKVtDQEBdMihbT0hdKVtDSDJdW0NIMl1bQ0BdNyhbT0hdKVtDQEhdMVtDSF09QyhbQ0gzXSlDNz1P

>  <s_epik_cmdline>  (275) 
J2VwaWtfcHl0aG9uJywgJy1waHQnLCAnMi4wJywgJy1waCcsICc3LjAnLCAnLXRuJywgJzgnLCAnLW1hJywgJzIwMCcsICctaW1hZScsICc8aW5maWxlLm1hZT4nLCAnLW9tYWUnLCAnPG91dGZpbGUubWFlPic=

>  <r_lp_tautomer_probability>  (275) 
1

>  <r_epik_Ionization_Penalty>  (275) 
5.04666e-06

>  <r_epik_Ionization_Penalty_Charging>  (275) 
0

>  <r_epik_Ionization_Penalty_Neutral>  (275) 
5.04666e-06

>  <r_epik_State_Penalty>  (275) 
-0

>  <r_epik_Charging_Adjusted_Penalty>  (275) 
0

>  <i_epik_Tot_Q>  (275) 
0

>  <i_epik_Tot_abs_Q>  (275) 
0

>  <s_epik_Chemistry_Notes>  (275) 
This compound has an ester and may undergo hydrolysis at high or low pH.

>  <s_lp_Force_Field>  (275) 
OPLS3e

>  <r_lp_Energy>  (275) 
148.987

>  <b_lp_Chiralities_Consistent>  (275) 
1

>  <s_lp_Variant>  (275) 
72:0-1

>  <s_i_glide_gridfile>  (275) 
pfpi4k_grid

>  <i_i_glide_lignum>  (275) 
26

>  <i_i_glide_rotatable_bonds>  (275) 
8

>  <r_i_docking_score>  (275) 
-3.07828

>  <r_i_glide_ligand_efficiency>  (275) 
-0.0789303

>  <r_i_glide_ligand_efficiency_sa>  (275) 
-0.267669

>  <r_i_glide_ligand_efficiency_ln>  (275) 
-0.660071

>  <r_i_glide_gscore>  (275) 
-3.07828

>  <r_i_glide_lipo>  (275) 
-0.3231

>  <r_i_glide_hbond>  (275) 
-0.448574

>  <r_i_glide_metal>  (275) 
-0

>  <r_i_glide_rewards>  (275) 
-0.559984

>  <r_i_glide_evdw>  (275) 
-21.8031

>  <r_i_glide_ecoul>  (275) 
-4.89088

>  <r_i_glide_erotb>  (275) 
0.138157

>  <r_i_glide_esite>  (275) 
-0.0609951

>  <r_i_glide_emodel>  (275) 
-28.2037

>  <r_i_glide_energy>  (275) 
-26.694

>  <r_i_glide_einternal>  (275) 
13.5089

>  <r_i_glide_intrahb_reward>  (275) 
-0.5

>  <i_i_glide_confnum>  (275) 
4

>  <i_i_glide_posenum>  (275) 
2

>  <r_i_glide_eff_state_penalty>  (275) 
0

>  <ligand_id>  (275) 
72

>  <original_smiles>  (275) 
COCC12C3C4OC4C45C6C=C(C)C(=O)C6(O)CCC4(O)C(C)(C(OC(N)=O)CC3C1(C)C)C(O)C2C5(C)O

>  <smiles>  (275) 
[H]OC1([H])C2([H])C(O[H])(C([H])([H])[H])C34C5([H])OC5([H])C5([H])C([H])(C([H])([H])C([H])(OC(=O)N([H])[H])C1(C([H])([H])[H])C3(O[H])C([H])([H])C([H])([H])C1(O[H])C(=O)C(C([H])([H])[H])=C([H])C14[H])C(C([H])([H])[H])(C([H])([H])[H])C52C([H])([H])OC([H])([H])[H]

$$$$
72:0:1
     RDKit          3D

 80 86  0  0  1  0  0  0  0  0999 V2000
    2.8270   -8.0070    4.8179 C   0  0  0  0  0  0  0  0  0  0  0  0
    2.3771   -6.6752    5.0187 O   0  0  0  0  0  0  0  0  0  0  0  0
    3.0357   -6.0121    6.0886 C   0  0  0  0  0  0  0  0  0  0  0  0
    2.5384   -4.5426    6.2851 C   0  0  1  0  0  0  0  0  0  0  0  0
    1.1134   -4.2121    5.7946 C   0  0  2  0  0  0  0  0  0  0  0  0
    0.7127   -3.6156    4.4674 C   0  0  2  0  0  0  0  0  0  0  0  0
    1.1728   -4.2566    3.2752 O   0  0  0  0  0  0  0  0  0  0  0  0
    1.5092   -2.8679    3.4482 C   0  0  2  0  0  0  0  0  0  0  0  0
    2.9980   -2.4548    3.3768 C   0  0  1  0  0  0  0  0  0  0  0  0
    3.2330   -2.2701    1.8020 C   0  0  2  0  0  0  0  0  0  0  0  0
    3.3738   -3.5057    0.9315 C   0  0  0  0  0  0  0  0  0  0  0  0
    4.4258   -3.4833    0.1102 C   0  0  0  0  0  0  0  0  0  0  0  0
    4.9022   -4.5371   -0.8683 C   0  0  0  0  0  0  0  0  0  0  0  0
    5.1363   -2.2183    0.2874 C   0  0  0  0  0  0  0  0  0  0  0  0
    6.1859   -1.8716   -0.2594 O   0  0  0  0  0  0  0  0  0  0  0  0
    4.3655   -1.3359    1.2800 C   0  0  1  0  0  0  0  0  0  0  0  0
    3.7721   -0.2548    0.5889 O   0  0  0  0  0  0  0  0  0  0  0  0
    5.2699   -0.7243    2.3487 C   0  0  0  0  0  0  0  0  0  0  0  0
    4.5386   -0.3095    3.6417 C   0  0  0  0  0  0  0  0  0  0  0  0
    3.1592   -0.9993    4.0174 C   0  0  1  0  0  0  0  0  0  0  0  0
    2.2609   -0.1156    3.3562 O   0  0  0  0  0  0  0  0  0  0  0  0
    2.8742   -0.9335    5.5991 C   0  0  1  0  0  0  0  0  0  0  0  0
    3.3864    0.4492    6.1380 C   0  0  0  0  0  0  0  0  0  0  0  0
    1.3583   -0.9706    6.1127 C   0  0  1  0  0  0  0  0  0  0  0  0
    0.3438   -0.8669    5.1129 O   0  0  0  0  0  0  0  0  0  0  0  0
   -0.8497   -0.2743    5.3114 C   0  0  0  0  0  0  0  0  0  0  0  0
   -1.3838    0.0078    4.0810 N   0  0  0  0  0  0  0  0  0  0  0  0
   -1.3749   -0.0240    6.3944 O   0  0  0  0  0  0  0  0  0  0  0  0
    0.9853   -1.9153    7.2911 C   0  0  0  0  0  0  0  0  0  0  0  0
    0.8899   -3.4424    7.1067 C   0  0  2  0  0  0  0  0  0  0  0  0
    1.8913   -4.4253    7.7487 C   0  0  0  0  0  0  0  0  0  0  0  0
    1.1211   -5.6433    8.3545 C   0  0  0  0  0  0  0  0  0  0  0  0
    2.8084   -4.0296    8.9248 C   0  0  0  0  0  0  0  0  0  0  0  0
    3.7768   -2.0438    6.2453 C   0  0  1  0  0  0  0  0  0  0  0  0
    4.0250   -1.8428    7.6203 O   0  0  0  0  0  0  0  0  0  0  0  0
    3.6753   -3.5428    5.7389 C   0  0  2  0  0  0  0  0  0  0  0  0
    3.9261   -3.5112    4.1632 C   0  0  1  0  0  0  0  0  0  0  0  0
    4.1060   -4.8941    3.4898 C   0  0  0  0  0  0  0  0  0  0  0  0
    5.2787   -3.1309    4.0586 O   0  0  0  0  0  0  0  0  0  0  0  0
    2.3440   -8.4168    3.9324 H   0  0  0  0  0  0  0  0  0  0  0  0
    2.5776   -8.6525    5.6613 H   0  0  0  0  0  0  0  0  0  0  0  0
    3.9041   -8.0537    4.6516 H   0  0  0  0  0  0  0  0  0  0  0  0
    2.8626   -6.6336    6.9605 H   0  0  0  0  0  0  0  0  0  0  0  0
    4.1169   -6.0635    6.0003 H   0  0  0  0  0  0  0  0  0  0  0  0
    0.5469   -5.1400    5.8400 H   0  0  0  0  0  0  0  0  0  0  0  0
   -0.3487   -3.3878    4.4412 H   0  0  0  0  0  0  0  0  0  0  0  0
    0.8672   -2.2006    2.8756 H   0  0  0  0  0  0  0  0  0  0  0  0
    2.3137   -1.8407    1.3925 H   0  0  0  0  0  0  0  0  0  0  0  0
    2.6605   -4.3169    0.9861 H   0  0  0  0  0  0  0  0  0  0  0  0
    5.8920   -4.8886   -0.5895 H   0  0  0  0  0  0  0  0  0  0  0  0
    4.9568   -4.1262   -1.8741 H   0  0  0  0  0  0  0  0  0  0  0  0
    4.2356   -5.3955   -0.8808 H   0  0  0  0  0  0  0  0  0  0  0  0
    3.1544   -0.6014   -0.0484 H   0  0  0  0  0  0  0  0  0  0  0  0
    6.0945   -1.3937    2.5827 H   0  0  0  0  0  0  0  0  0  0  0  0
    5.7950    0.1390    1.9346 H   0  0  0  0  0  0  0  0  0  0  0  0
    5.2893   -0.4448    4.4163 H   0  0  0  0  0  0  0  0  0  0  0  0
    4.4024    0.7736    3.6023 H   0  0  0  0  0  0  0  0  0  0  0  0
    2.4684   -0.1081    2.4300 H   0  0  0  0  0  0  0  0  0  0  0  0
    3.1393    0.5968    7.1918 H   0  0  0  0  0  0  0  0  0  0  0  0
    2.9437    1.2849    5.5923 H   0  0  0  0  0  0  0  0  0  0  0  0
    4.4685    0.5708    6.0992 H   0  0  0  0  0  0  0  0  0  0  0  0
    1.2267   -0.0023    6.5994 H   0  0  0  0  0  0  0  0  0  0  0  0
   -0.8006   -0.1570    3.2745 H   0  0  0  0  0  0  0  0  0  0  0  0
   -2.2733    0.4934    4.0353 H   0  0  0  0  0  0  0  0  0  0  0  0
    1.6242   -1.6564    8.1241 H   0  0  0  0  0  0  0  0  0  0  0  0
    0.0253   -1.5884    7.6816 H   0  0  0  0  0  0  0  0  0  0  0  0
   -0.1088   -3.7223    7.4382 H   0  0  0  0  0  0  0  0  0  0  0  0
    0.4312   -5.3315    9.1407 H   0  0  0  0  0  0  0  0  0  0  0  0
    1.7894   -6.3712    8.8113 H   0  0  0  0  0  0  0  0  0  0  0  0
    0.5297   -6.2033    7.6337 H   0  0  0  0  0  0  0  0  0  0  0  0
    2.7128   -4.6776    9.7982 H   0  0  0  0  0  0  0  0  0  0  0  0
    2.6187   -3.0320    9.3130 H   0  0  0  0  0  0  0  0  0  0  0  0
    3.8541   -4.1066    8.6311 H   0  0  0  0  0  0  0  0  0  0  0  0
    4.7831   -1.7661    5.9447 H   0  0  0  0  0  0  0  0  0  0  0  0
    4.7742   -2.3665    7.8679 H   0  0  0  0  0  0  0  0  0  0  0  0
    4.5883   -3.9691    6.1560 H   0  0  0  0  0  0  0  0  0  0  0  0
    3.1748   -5.3989    3.2690 H   0  0  0  0  0  0  0  0  0  0  0  0
    4.7269   -5.5531    4.0889 H   0  0  0  0  0  0  0  0  0  0  0  0
    4.6466   -4.8533    2.5484 H   0  0  0  0  0  0  0  0  0  0  0  0
    5.5160   -3.1546    3.1442 H   0  0  0  0  0  0  0  0  0  0  0  0
  1  2  1  0
  1 40  1  0
  1 41  1  0
  1 42  1  0
  2  3  1  0
  4  3  1  6
  3 43  1  0
  3 44  1  0
  4 31  1  0
  4 36  1  0
  4  5  1  0
  5 30  1  0
  5  6  1  0
  5 45  1  1
  6  8  1  0
  6  7  1  0
  6 46  1  6
  7  8  1  0
  8  9  1  0
  8 47  1  6
  9 20  1  1
  9 37  1  0
  9 10  1  0
 10 16  1  0
 10 11  1  0
 10 48  1  6
 11 12  2  0
 11 49  1  0
 12 13  1  0
 12 14  1  0
 13 50  1  0
 13 51  1  0
 13 52  1  0
 14 15  2  0
 14 16  1  0
 16 17  1  6
 16 18  1  0
 17 53  1  0
 18 19  1  0
 18 54  1  0
 18 55  1  0
 19 20  1  0
 19 56  1  0
 19 57  1  0
 20 21  1  6
 20 22  1  0
 21 58  1  0
 22 23  1  1
 22 24  1  0
 22 34  1  0
 23 59  1  0
 23 60  1  0
 23 61  1  0
 24 25  1  0
 24 29  1  0
 24 62  1  1
 25 26  1  0
 26 27  1  0
 26 28  2  0
 27 63  1  0
 27 64  1  0
 29 30  1  0
 29 65  1  0
 29 66  1  0
 30 31  1  0
 30 67  1  1
 31 32  1  0
 31 33  1  0
 32 68  1  0
 32 69  1  0
 32 70  1  0
 33 71  1  0
 33 72  1  0
 33 73  1  0
 34 35  1  0
 34 36  1  0
 34 74  1  6
 35 75  1  0
 36 37  1  0
 36 76  1  1
 37 38  1  0
 37 39  1  1
 38 77  1  0
 38 78  1  0
 38 79  1  0
 39 80  1  0
M  END
>  <i_m_ct_stereo_status>  (276) 
1

>  <s_m_source_file>  (276) 
/var/tmp/pbs.5076255.sched01/tmpn8rdt6mw/90ee43ygr2.sdf

>  <i_m_source_file_index>  (276) 
26

>  <i_lp_mmshare_version>  (276) 
48012

>  <i_f3d_flags>  (276) 
0

>  <s_epik_input>  (276) 
W0NAXTEyM1tDQEBIXTRbQ0BASF0oTzQpW0NASF01W0NAQF02KFtDSDJdT1tDSDNdKVtDQEBIXShbQ0BdMyhbQ0gzXSlbT0hdKVtDQEhdKFtPSF0pW0NAXShbQ0gzXSkoW0NAQEhdKE9DKD1PKVtOSDJdKVtDSDJdW0NAQEhdNUM2KFtDSDNdKVtDSDNdKVtDQEBdMihbT0hdKVtDSDJdW0NIMl1bQ0BdNyhbT0hdKVtDQEhdMVtDSF09QyhbQ0gzXSlDNz1P

>  <s_epik_cmdline>  (276) 
J2VwaWtfcHl0aG9uJywgJy1waHQnLCAnMi4wJywgJy1waCcsICc3LjAnLCAnLXRuJywgJzgnLCAnLW1hJywgJzIwMCcsICctaW1hZScsICc8aW5maWxlLm1hZT4nLCAnLW9tYWUnLCAnPG91dGZpbGUubWFlPic=

>  <r_lp_tautomer_probability>  (276) 
1

>  <r_epik_Ionization_Penalty>  (276) 
5.04666e-06

>  <r_epik_Ionization_Penalty_Charging>  (276) 
0

>  <r_epik_Ionization_Penalty_Neutral>  (276) 
5.04666e-06

>  <r_epik_State_Penalty>  (276) 
-0

>  <r_epik_Charging_Adjusted_Penalty>  (276) 
0

>  <i_epik_Tot_Q>  (276) 
0

>  <i_epik_Tot_abs_Q>  (276) 
0

>  <s_epik_Chemistry_Notes>  (276) 
This compound has an ester and may undergo hydrolysis at high or low pH.

>  <s_lp_Force_Field>  (276) 
OPLS3e

>  <r_lp_Energy>  (276) 
148.987

>  <b_lp_Chiralities_Consistent>  (276) 
1

>  <s_lp_Variant>  (276) 
72:0-1

>  <s_i_glide_gridfile>  (276) 
pfpi4k_grid

>  <i_i_glide_lignum>  (276) 
26

>  <i_i_glide_rotatable_bonds>  (276) 
8

>  <r_i_docking_score>  (276) 
-2.72415

>  <r_i_glide_ligand_efficiency>  (276) 
-0.06985

>  <r_i_glide_ligand_efficiency_sa>  (276) 
-0.236876

>  <r_i_glide_ligand_efficiency_ln>  (276) 
-0.584135

>  <r_i_glide_gscore>  (276) 
-2.72415

>  <r_i_glide_lipo>  (276) 
-0.266094

>  <r_i_glide_hbond>  (276) 
-0.276921

>  <r_i_glide_metal>  (276) 
-0

>  <r_i_glide_rewards>  (276) 
-0.0305136

>  <r_i_glide_evdw>  (276) 
-21.6708

>  <r_i_glide_ecoul>  (276) 
-7.59267

>  <r_i_glide_erotb>  (276) 
0.138157

>  <r_i_glide_esite>  (276) 
-0.0663366

>  <r_i_glide_emodel>  (276) 
-31.9125

>  <r_i_glide_energy>  (276) 
-29.2635

>  <r_i_glide_einternal>  (276) 
5.02582

>  <r_i_glide_intrahb_reward>  (276) 
-0

>  <i_i_glide_confnum>  (276) 
4

>  <i_i_glide_posenum>  (276) 
27

>  <r_i_glide_eff_state_penalty>  (276) 
0

>  <ligand_id>  (276) 
72

>  <original_smiles>  (276) 
COCC12C3C4OC4C45C6C=C(C)C(=O)C6(O)CCC4(O)C(C)(C(OC(N)=O)CC3C1(C)C)C(O)C2C5(C)O

>  <smiles>  (276) 
[H]OC1([H])C2([H])C(O[H])(C([H])([H])[H])C34C5([H])OC5([H])C5([H])C([H])(C([H])([H])C([H])(OC(=O)N([H])[H])C1(C([H])([H])[H])C3(O[H])C([H])([H])C([H])([H])C1(O[H])C(=O)C(C([H])([H])[H])=C([H])C14[H])C(C([H])([H])[H])(C([H])([H])[H])C52C([H])([H])OC([H])([H])[H]

$$$$
72:0:2
     RDKit          3D

 80 86  0  0  1  0  0  0  0  0999 V2000
    5.6042   -3.5601    5.8969 C   0  0  0  0  0  0  0  0  0  0  0  0
    5.7605   -4.9601    6.0565 O   0  0  0  0  0  0  0  0  0  0  0  0
    6.2035   -5.6161    4.8749 C   0  0  0  0  0  0  0  0  0  0  0  0
    6.4051   -7.1499    5.1017 C   0  0  1  0  0  0  0  0  0  0  0  0
    7.0135   -7.9406    3.9226 C   0  0  2  0  0  0  0  0  0  0  0  0
    6.2860   -8.7158    2.8471 C   0  0  2  0  0  0  0  0  0  0  0  0
    5.2539   -8.0574    2.1046 O   0  0  0  0  0  0  0  0  0  0  0  0
    4.8896   -9.2563    2.8129 C   0  0  2  0  0  0  0  0  0  0  0  0
    3.7180   -9.1952    3.8197 C   0  0  1  0  0  0  0  0  0  0  0  0
    2.4388   -9.4150    2.8740 C   0  0  2  0  0  0  0  0  0  0  0  0
    1.9949   -8.2515    2.0054 C   0  0  0  0  0  0  0  0  0  0  0  0
    0.6868   -7.9806    2.0866 C   0  0  0  0  0  0  0  0  0  0  0  0
   -0.1256   -6.9180    1.3878 C   0  0  0  0  0  0  0  0  0  0  0  0
    0.0645   -8.9354    2.9962 C   0  0  0  0  0  0  0  0  0  0  0  0
   -1.1177   -8.9408    3.3262 O   0  0  0  0  0  0  0  0  0  0  0  0
    1.1014   -9.9718    3.4649 C   0  0  1  0  0  0  0  0  0  0  0  0
    0.7759  -11.2233    2.8767 O   0  0  0  0  0  0  0  0  0  0  0  0
    1.0930  -10.1897    4.9767 C   0  0  0  0  0  0  0  0  0  0  0  0
    2.4240  -10.7220    5.5449 C   0  0  0  0  0  0  0  0  0  0  0  0
    3.7852  -10.4749    4.7720 C   0  0  1  0  0  0  0  0  0  0  0  0
    3.8347  -11.6470    3.9714 O   0  0  0  0  0  0  0  0  0  0  0  0
    5.0507  -10.5167    5.7597 C   0  0  1  0  0  0  0  0  0  0  0  0
    4.8004  -11.6320    6.8376 C   0  0  0  0  0  0  0  0  0  0  0  0
    6.4784  -10.9206    5.1628 C   0  0  1  0  0  0  0  0  0  0  0  0
    6.5077  -11.3635    3.8072 O   0  0  0  0  0  0  0  0  0  0  0  0
    7.3629  -12.2950    3.3566 C   0  0  0  0  0  0  0  0  0  0  0  0
    7.0045  -12.6221    2.0746 N   0  0  0  0  0  0  0  0  0  0  0  0
    8.3049  -12.7788    3.9747 O   0  0  0  0  0  0  0  0  0  0  0  0
    7.7187  -10.0595    5.5314 C   0  0  0  0  0  0  0  0  0  0  0  0
    7.9328   -8.6500    4.9358 C   0  0  2  0  0  0  0  0  0  0  0  0
    7.8418   -7.3628    5.7835 C   0  0  0  0  0  0  0  0  0  0  0  0
    9.0167   -6.3994    5.4214 C   0  0  0  0  0  0  0  0  0  0  0  0
    7.9268   -7.3693    7.3228 C   0  0  0  0  0  0  0  0  0  0  0  0
    5.0602   -9.1413    6.5119 C   0  0  1  0  0  0  0  0  0  0  0  0
    5.7858   -9.1641    7.7220 O   0  0  0  0  0  0  0  0  0  0  0  0
    5.0455   -7.7884    5.6869 C   0  0  2  0  0  0  0  0  0  0  0  0
    3.7807   -7.8511    4.7103 C   0  0  1  0  0  0  0  0  0  0  0  0
    3.4494   -6.5325    3.9707 C   0  0  0  0  0  0  0  0  0  0  0  0
    2.6649   -7.7804    5.5782 O   0  0  0  0  0  0  0  0  0  0  0  0
    5.2155   -3.1229    6.8154 H   0  0  0  0  0  0  0  0  0  0  0  0
    4.9025   -3.3239    5.0974 H   0  0  0  0  0  0  0  0  0  0  0  0
    6.5555   -3.0755    5.6803 H   0  0  0  0  0  0  0  0  0  0  0  0
    5.5986   -5.3747    4.0124 H   0  0  0  0  0  0  0  0  0  0  0  0
    7.1310   -5.1309    4.5889 H   0  0  0  0  0  0  0  0  0  0  0  0
    7.6117   -7.2290    3.3603 H   0  0  0  0  0  0  0  0  0  0  0  0
    6.9771   -9.2613    2.2079 H   0  0  0  0  0  0  0  0  0  0  0  0
    4.8334  -10.1302    2.1662 H   0  0  0  0  0  0  0  0  0  0  0  0
    2.7227  -10.1406    2.1101 H   0  0  0  0  0  0  0  0  0  0  0  0
    2.6822   -7.7084    1.3750 H   0  0  0  0  0  0  0  0  0  0  0  0
   -0.5719   -6.2592    2.1298 H   0  0  0  0  0  0  0  0  0  0  0  0
   -0.9234   -7.3987    0.8248 H   0  0  0  0  0  0  0  0  0  0  0  0
    0.4787   -6.3293    0.7009 H   0  0  0  0  0  0  0  0  0  0  0  0
    1.3160  -11.9095    3.2283 H   0  0  0  0  0  0  0  0  0  0  0  0
    0.7866   -9.2790    5.4884 H   0  0  0  0  0  0  0  0  0  0  0  0
    0.2933  -10.8837    5.2427 H   0  0  0  0  0  0  0  0  0  0  0  0
    2.4443  -10.3435    6.5605 H   0  0  0  0  0  0  0  0  0  0  0  0
    2.2904  -11.7953    5.6739 H   0  0  0  0  0  0  0  0  0  0  0  0
    3.1161  -11.6362    3.3612 H   0  0  0  0  0  0  0  0  0  0  0  0
    5.6682  -11.7840    7.4824 H   0  0  0  0  0  0  0  0  0  0  0  0
    4.5839  -12.5987    6.3749 H   0  0  0  0  0  0  0  0  0  0  0  0
    3.9796  -11.4205    7.5238 H   0  0  0  0  0  0  0  0  0  0  0  0
    6.7226  -11.8510    5.6782 H   0  0  0  0  0  0  0  0  0  0  0  0
    6.1278  -12.2575    1.7204 H   0  0  0  0  0  0  0  0  0  0  0  0
    7.5236  -13.3640    1.6334 H   0  0  0  0  0  0  0  0  0  0  0  0
    7.7985  -10.0508    6.6106 H   0  0  0  0  0  0  0  0  0  0  0  0
    8.6043  -10.6424    5.2756 H   0  0  0  0  0  0  0  0  0  0  0  0
    8.9191   -8.6702    4.4726 H   0  0  0  0  0  0  0  0  0  0  0  0
    9.9843   -6.8439    5.6541 H   0  0  0  0  0  0  0  0  0  0  0  0
    8.9534   -5.4603    5.9707 H   0  0  0  0  0  0  0  0  0  0  0  0
    9.0755   -6.1243    4.3707 H   0  0  0  0  0  0  0  0  0  0  0  0
    8.7083   -6.7223    7.7277 H   0  0  0  0  0  0  0  0  0  0  0  0
    8.1482   -8.3470    7.7453 H   0  0  0  0  0  0  0  0  0  0  0  0
    6.9977   -6.9960    7.7554 H   0  0  0  0  0  0  0  0  0  0  0  0
    4.0937   -9.1133    7.0066 H   0  0  0  0  0  0  0  0  0  0  0  0
    5.4608   -9.8831    8.2456 H   0  0  0  0  0  0  0  0  0  0  0  0
    4.7578   -7.0814    6.4621 H   0  0  0  0  0  0  0  0  0  0  0  0
    4.0437   -6.3562    3.0796 H   0  0  0  0  0  0  0  0  0  0  0  0
    3.5510   -5.6815    4.6418 H   0  0  0  0  0  0  0  0  0  0  0  0
    2.4129   -6.4710    3.6489 H   0  0  0  0  0  0  0  0  0  0  0  0
    2.6193   -8.5800    6.0806 H   0  0  0  0  0  0  0  0  0  0  0  0
  1  2  1  0
  1 40  1  0
  1 41  1  0
  1 42  1  0
  2  3  1  0
  4  3  1  6
  3 43  1  0
  3 44  1  0
  4 31  1  0
  4 36  1  0
  4  5  1  0
  5 30  1  0
  5  6  1  0
  5 45  1  6
  6  8  1  0
  6  7  1  0
  6 46  1  6
  7  8  1  0
  8  9  1  0
  8 47  1  6
  9 20  1  1
  9 37  1  0
  9 10  1  0
 10 16  1  0
 10 11  1  0
 10 48  1  6
 11 12  2  0
 11 49  1  0
 12 13  1  0
 12 14  1  0
 13 50  1  0
 13 51  1  0
 13 52  1  0
 14 15  2  0
 14 16  1  0
 16 17  1  6
 16 18  1  0
 17 53  1  0
 18 19  1  0
 18 54  1  0
 18 55  1  0
 19 20  1  0
 19 56  1  0
 19 57  1  0
 20 21  1  6
 20 22  1  0
 21 58  1  0
 22 23  1  1
 22 24  1  0
 22 34  1  0
 23 59  1  0
 23 60  1  0
 23 61  1  0
 24 25  1  0
 24 29  1  0
 24 62  1  1
 25 26  1  0
 26 27  1  0
 26 28  2  0
 27 63  1  0
 27 64  1  0
 29 30  1  0
 29 65  1  0
 29 66  1  0
 30 31  1  0
 30 67  1  6
 31 32  1  0
 31 33  1  0
 32 68  1  0
 32 69  1  0
 32 70  1  0
 33 71  1  0
 33 72  1  0
 33 73  1  0
 34 35  1  0
 34 36  1  0
 34 74  1  1
 35 75  1  0
 36 37  1  0
 36 76  1  1
 37 38  1  0
 37 39  1  1
 38 77  1  0
 38 78  1  0
 38 79  1  0
 39 80  1  0
M  END
>  <i_m_ct_stereo_status>  (277) 
1

>  <s_m_source_file>  (277) 
/var/tmp/pbs.5076255.sched01/tmpn8rdt6mw/90ee43ygr2.sdf

>  <i_m_source_file_index>  (277) 
26

>  <i_lp_mmshare_version>  (277) 
48012

>  <i_f3d_flags>  (277) 
0

>  <s_epik_input>  (277) 
W0NAXTEyM1tDQEBIXTRbQ0BASF0oTzQpW0NASF01W0NAQF02KFtDSDJdT1tDSDNdKVtDQEBIXShbQ0BdMyhbQ0gzXSlbT0hdKVtDQEhdKFtPSF0pW0NAXShbQ0gzXSkoW0NAQEhdKE9DKD1PKVtOSDJdKVtDSDJdW0NAQEhdNUM2KFtDSDNdKVtDSDNdKVtDQEBdMihbT0hdKVtDSDJdW0NIMl1bQ0BdNyhbT0hdKVtDQEhdMVtDSF09QyhbQ0gzXSlDNz1P

>  <s_epik_cmdline>  (277) 
J2VwaWtfcHl0aG9uJywgJy1waHQnLCAnMi4wJywgJy1waCcsICc3LjAnLCAnLXRuJywgJzgnLCAnLW1hJywgJzIwMCcsICctaW1hZScsICc8aW5maWxlLm1hZT4nLCAnLW9tYWUnLCAnPG91dGZpbGUubWFlPic=

>  <r_lp_tautomer_probability>  (277) 
1

>  <r_epik_Ionization_Penalty>  (277) 
5.04666e-06

>  <r_epik_Ionization_Penalty_Charging>  (277) 
0

>  <r_epik_Ionization_Penalty_Neutral>  (277) 
5.04666e-06

>  <r_epik_State_Penalty>  (277) 
-0

>  <r_epik_Charging_Adjusted_Penalty>  (277) 
0

>  <i_epik_Tot_Q>  (277) 
0

>  <i_epik_Tot_abs_Q>  (277) 
0

>  <s_epik_Chemistry_Notes>  (277) 
This compound has an ester and may undergo hydrolysis at high or low pH.

>  <s_lp_Force_Field>  (277) 
OPLS3e

>  <r_lp_Energy>  (277) 
148.987

>  <b_lp_Chiralities_Consistent>  (277) 
1

>  <s_lp_Variant>  (277) 
72:0-1

>  <s_i_glide_gridfile>  (277) 
pfpi4k_grid

>  <i_i_glide_lignum>  (277) 
26

>  <i_i_glide_rotatable_bonds>  (277) 
8

>  <r_i_docking_score>  (277) 
-1.79953

>  <r_i_glide_ligand_efficiency>  (277) 
-0.0461419

>  <r_i_glide_ligand_efficiency_sa>  (277) 
-0.156477

>  <r_i_glide_ligand_efficiency_ln>  (277) 
-0.385871

>  <r_i_glide_gscore>  (277) 
-1.79953

>  <r_i_glide_lipo>  (277) 
-0.125999

>  <r_i_glide_hbond>  (277) 
0

>  <r_i_glide_metal>  (277) 
-0

>  <r_i_glide_rewards>  (277) 
0

>  <r_i_glide_evdw>  (277) 
-26.8017

>  <r_i_glide_ecoul>  (277) 
-2.60733

>  <r_i_glide_erotb>  (277) 
0.138157

>  <r_i_glide_esite>  (277) 
-0.0805042

>  <r_i_glide_emodel>  (277) 
-31.9252

>  <r_i_glide_energy>  (277) 
-29.4091

>  <r_i_glide_einternal>  (277) 
0.862474

>  <r_i_glide_intrahb_reward>  (277) 
-0

>  <i_i_glide_confnum>  (277) 
5

>  <i_i_glide_posenum>  (277) 
13

>  <r_i_glide_eff_state_penalty>  (277) 
0

>  <ligand_id>  (277) 
72

>  <original_smiles>  (277) 
COCC12C3C4OC4C45C6C=C(C)C(=O)C6(O)CCC4(O)C(C)(C(OC(N)=O)CC3C1(C)C)C(O)C2C5(C)O

>  <smiles>  (277) 
[H]OC1([H])C2([H])C(O[H])(C([H])([H])[H])C34C5([H])OC5([H])C5([H])C([H])(C([H])([H])C([H])(OC(=O)N([H])[H])C1(C([H])([H])[H])C3(O[H])C([H])([H])C([H])([H])C1(O[H])C(=O)C(C([H])([H])[H])=C([H])C14[H])C(C([H])([H])[H])(C([H])([H])[H])C52C([H])([H])OC([H])([H])[H]

$$$$
73:0:0
     RDKit          3D

 29 34  0  0  1  0  0  0  0  0999 V2000
    5.1966   -0.6564    0.5092 C   0  0  0  0  0  0  0  0  0  0  0  0
    5.8305   -1.4306    1.6824 C   0  0  0  0  0  0  0  0  0  0  0  0
    5.7221   -2.9664    1.5768 C   0  0  2  0  0  0  0  0  0  0  0  0
    6.3993   -3.5965    0.3855 C   0  0  2  0  0  0  0  0  0  0  0  0
    6.8749   -2.8645   -0.8944 C   0  0  0  0  0  0  0  0  0  0  0  0
    5.8107   -2.7243   -1.9750 C   0  0  2  0  0  0  0  0  0  0  0  0
    4.5808   -1.8971   -1.7081 C   0  0  2  0  0  0  0  0  0  0  0  0
    4.1646   -1.4636   -0.3072 C   0  0  1  0  0  0  0  0  0  0  0  0
    3.7862   -2.8061    0.3371 C   0  0  2  0  0  0  0  0  0  0  0  0
    4.2807   -3.4852    1.1967 C   0  0  1  0  0  0  0  0  0  0  0  0
    4.0362   -4.1035   -0.4989 C   0  0  1  0  0  0  0  0  0  0  0  0
    4.4628   -3.4178   -1.8782 C   0  0  2  0  0  0  0  0  0  0  0  0
    5.0335   -4.1590    0.2404 C   0  0  1  0  0  0  0  0  0  0  0  0
    5.9769   -0.2714   -0.1420 H   0  0  0  0  0  0  0  0  0  0  0  0
    4.7029    0.2294    0.9152 H   0  0  0  0  0  0  0  0  0  0  0  0
    6.8688   -1.1272    1.8180 H   0  0  0  0  0  0  0  0  0  0  0  0
    5.3136   -1.1328    2.5932 H   0  0  0  0  0  0  0  0  0  0  0  0
    6.0749   -3.4384    2.4984 H   0  0  0  0  0  0  0  0  0  0  0  0
    7.1218   -4.3461    0.7084 H   0  0  0  0  0  0  0  0  0  0  0  0
    7.3314   -1.9014   -0.6788 H   0  0  0  0  0  0  0  0  0  0  0  0
    7.6724   -3.4613   -1.3353 H   0  0  0  0  0  0  0  0  0  0  0  0
    6.2080   -2.6556   -2.9810 H   0  0  0  0  0  0  0  0  0  0  0  0
    4.2024   -1.2868   -2.5240 H   0  0  0  0  0  0  0  0  0  0  0  0
    3.2681   -0.8515   -0.4172 H   0  0  0  0  0  0  0  0  0  0  0  0
    2.6903   -2.8723    0.5448 H   0  0  0  0  0  0  0  0  0  0  0  0
    3.5771   -3.7629    1.9977 H   0  0  0  0  0  0  0  0  0  0  0  0
    3.4507   -5.0315   -0.5766 H   0  0  0  0  0  0  0  0  0  0  0  0
    4.0337   -3.8142   -2.7832 H   0  0  0  0  0  0  0  0  0  0  0  0
    5.0110   -5.2678    0.4774 H   0  0  0  0  0  0  0  0  0  0  0  0
  1  8  1  0
  1  2  1  0
  1 14  1  0
  1 15  1  0
  2  3  1  0
  2 16  1  0
  2 17  1  0
  3 10  1  0
  3  4  1  0
  3 18  1  1
  4 13  1  0
  4  5  1  0
  4 19  1  1
  5  6  1  0
  5 20  1  0
  5 21  1  0
  6 12  1  0
  6  7  1  0
  6 22  1  6
  7 12  1  0
  7  8  1  0
  7 23  1  6
  8  9  1  0
  8 24  1  6
  9 13  1  0
  9 10  1  0
  9 25  1  6
 10 11  1  0
 10 26  1  1
 11 12  1  0
 11 13  1  0
 11 27  1  6
 12 28  1  6
 13 29  1  1
M  END
>  <i_m_ct_stereo_status>  (278) 
1

>  <s_m_source_file>  (278) 
/var/tmp/pbs.5076255.sched01/tmpn8rdt6mw/90ee43ygr2.sdf

>  <i_m_source_file_index>  (278) 
27

>  <i_lp_mmshare_version>  (278) 
48012

>  <i_f3d_flags>  (278) 
0

>  <s_epik_input>  (278) 
W0NASF0xMltDQEhdM1tDQEhdNFtDQEBIXTVbQ0BASF0oW0NIMl1bQ0gyXTEpW0NASF02W0NAQEhdKFtDSDJdMylbQ0BIXTZbQ0BASF00W0NAQEhdMjU=

>  <s_epik_cmdline>  (278) 
J2VwaWtfcHl0aG9uJywgJy1waHQnLCAnMi4wJywgJy1waCcsICc3LjAnLCAnLXRuJywgJzgnLCAnLW1hJywgJzIwMCcsICctaW1hZScsICc8aW5maWxlLm1hZT4nLCAnLW9tYWUnLCAnPG91dGZpbGUubWFlPic=

>  <r_lp_tautomer_probability>  (278) 
1

>  <r_epik_Ionization_Penalty>  (278) 
0

>  <r_epik_Ionization_Penalty_Charging>  (278) 
0

>  <r_epik_Ionization_Penalty_Neutral>  (278) 
0

>  <r_epik_State_Penalty>  (278) 
-0

>  <r_epik_Charging_Adjusted_Penalty>  (278) 
0

>  <i_epik_Tot_Q>  (278) 
0

>  <i_epik_Tot_abs_Q>  (278) 
0

>  <s_lp_Force_Field>  (278) 
OPLS3e

>  <r_lp_Energy>  (278) 
389.219

>  <b_lp_Chiralities_Consistent>  (278) 
1

>  <s_lp_Variant>  (278) 
73:0-1

>  <s_i_glide_gridfile>  (278) 
pfpi4k_grid

>  <i_i_glide_lignum>  (278) 
27

>  <i_i_glide_rotatable_bonds>  (278) 
0

>  <r_i_docking_score>  (278) 
-3.6933

>  <r_i_glide_ligand_efficiency>  (278) 
-0.2841

>  <r_i_glide_ligand_efficiency_sa>  (278) 
-0.668015

>  <r_i_glide_ligand_efficiency_ln>  (278) 
-1.036

>  <r_i_glide_gscore>  (278) 
-3.6933

>  <r_i_glide_lipo>  (278) 
-0.560651

>  <r_i_glide_hbond>  (278) 
0

>  <r_i_glide_metal>  (278) 
-0

>  <r_i_glide_rewards>  (278) 
-2.23455

>  <r_i_glide_evdw>  (278) 
-17.9348

>  <r_i_glide_ecoul>  (278) 
-0.00909463

>  <r_i_glide_erotb>  (278) 
0

>  <r_i_glide_esite>  (278) 
0

>  <r_i_glide_emodel>  (278) 
-22.2719

>  <r_i_glide_energy>  (278) 
-17.9439

>  <r_i_glide_einternal>  (278) 
0

>  <r_i_glide_intrahb_reward>  (278) 
-0

>  <i_i_glide_confnum>  (278) 
1

>  <i_i_glide_posenum>  (278) 
5

>  <r_i_glide_eff_state_penalty>  (278) 
0

>  <ligand_id>  (278) 
73

>  <original_smiles>  (278) 
C1CC2C3CC4C5C1C1C2C(C45)C31

>  <smiles>  (278) 
[H]C1([H])C([H])([H])C2([H])C3([H])C([H])([H])C4([H])C5([H])C1([H])C1([H])C2([H])C([H])(C45[H])C31[H]

$$$$
73:0:1
     RDKit          3D

 29 34  0  0  1  0  0  0  0  0999 V2000
    5.8429   -1.0851    0.4638 C   0  0  0  0  0  0  0  0  0  0  0  0
    6.1555   -2.4204    1.1755 C   0  0  0  0  0  0  0  0  0  0  0  0
    5.2532   -3.6051    0.7637 C   0  0  2  0  0  0  0  0  0  0  0  0
    5.3201   -4.0050   -0.6887 C   0  0  2  0  0  0  0  0  0  0  0  0
    5.9049   -3.1628   -1.8519 C   0  0  0  0  0  0  0  0  0  0  0  0
    4.9158   -2.2027   -2.4966 C   0  0  2  0  0  0  0  0  0  0  0  0
    4.3487   -1.0720   -1.6859 C   0  0  2  0  0  0  0  0  0  0  0  0
    4.4348   -1.0190   -0.1644 C   0  0  1  0  0  0  0  0  0  0  0  0
    3.5171   -2.1834    0.2385 C   0  0  2  0  0  0  0  0  0  0  0  0
    3.7112   -3.2668    0.7276 C   0  0  1  0  0  0  0  0  0  0  0  0
    2.9330   -3.0772   -0.9114 C   0  0  1  0  0  0  0  0  0  0  0  0
    3.4389   -2.2155   -2.1572 C   0  0  2  0  0  0  0  0  0  0  0  0
    3.8598   -3.8181   -0.5348 C   0  0  1  0  0  0  0  0  0  0  0  0
    6.6001   -0.8789   -0.2884 H   0  0  0  0  0  0  0  0  0  0  0  0
    5.9428   -0.2797    1.1970 H   0  0  0  0  0  0  0  0  0  0  0  0
    7.2070   -2.6870    1.0549 H   0  0  0  0  0  0  0  0  0  0  0  0
    6.0092   -2.2653    2.2438 H   0  0  0  0  0  0  0  0  0  0  0  0
    5.4479   -4.4709    1.4009 H   0  0  0  0  0  0  0  0  0  0  0  0
    5.5872   -5.0592   -0.7788 H   0  0  0  0  0  0  0  0  0  0  0  0
    6.8241   -2.6457   -1.5831 H   0  0  0  0  0  0  0  0  0  0  0  0
    6.1965   -3.8564   -2.6401 H   0  0  0  0  0  0  0  0  0  0  0  0
    5.1456   -1.9499   -3.5245 H   0  0  0  0  0  0  0  0  0  0  0  0
    4.2404   -0.1171   -2.1931 H   0  0  0  0  0  0  0  0  0  0  0  0
    3.9794   -0.0785    0.1425 H   0  0  0  0  0  0  0  0  0  0  0  0
    2.5881   -1.8247    0.7422 H   0  0  0  0  0  0  0  0  0  0  0  0
    3.0946   -3.4615    1.6213 H   0  0  0  0  0  0  0  0  0  0  0  0
    1.9498   -3.5541   -1.0222 H   0  0  0  0  0  0  0  0  0  0  0  0
    2.7340   -2.0299   -2.9514 H   0  0  0  0  0  0  0  0  0  0  0  0
    3.3073   -4.8081   -0.5669 H   0  0  0  0  0  0  0  0  0  0  0  0
  1  8  1  0
  1  2  1  0
  1 14  1  0
  1 15  1  0
  2  3  1  0
  2 16  1  0
  2 17  1  0
  3 10  1  0
  3  4  1  0
  3 18  1  1
  4 13  1  0
  4  5  1  0
  4 19  1  1
  5  6  1  0
  5 20  1  0
  5 21  1  0
  6 12  1  0
  6  7  1  0
  6 22  1  6
  7 12  1  0
  7  8  1  0
  7 23  1  6
  8  9  1  0
  8 24  1  1
  9 13  1  0
  9 10  1  0
  9 25  1  6
 10 11  1  0
 10 26  1  1
 11 12  1  0
 11 13  1  0
 11 27  1  1
 12 28  1  6
 13 29  1  1
M  END
>  <i_m_ct_stereo_status>  (279) 
1

>  <s_m_source_file>  (279) 
/var/tmp/pbs.5076255.sched01/tmpn8rdt6mw/90ee43ygr2.sdf

>  <i_m_source_file_index>  (279) 
27

>  <i_lp_mmshare_version>  (279) 
48012

>  <i_f3d_flags>  (279) 
0

>  <s_epik_input>  (279) 
W0NASF0xMltDQEhdM1tDQEhdNFtDQEBIXTVbQ0BASF0oW0NIMl1bQ0gyXTEpW0NASF02W0NAQEhdKFtDSDJdMylbQ0BIXTZbQ0BASF00W0NAQEhdMjU=

>  <s_epik_cmdline>  (279) 
J2VwaWtfcHl0aG9uJywgJy1waHQnLCAnMi4wJywgJy1waCcsICc3LjAnLCAnLXRuJywgJzgnLCAnLW1hJywgJzIwMCcsICctaW1hZScsICc8aW5maWxlLm1hZT4nLCAnLW9tYWUnLCAnPG91dGZpbGUubWFlPic=

>  <r_lp_tautomer_probability>  (279) 
1

>  <r_epik_Ionization_Penalty>  (279) 
0

>  <r_epik_Ionization_Penalty_Charging>  (279) 
0

>  <r_epik_Ionization_Penalty_Neutral>  (279) 
0

>  <r_epik_State_Penalty>  (279) 
-0

>  <r_epik_Charging_Adjusted_Penalty>  (279) 
0

>  <i_epik_Tot_Q>  (279) 
0

>  <i_epik_Tot_abs_Q>  (279) 
0

>  <s_lp_Force_Field>  (279) 
OPLS3e

>  <r_lp_Energy>  (279) 
389.219

>  <b_lp_Chiralities_Consistent>  (279) 
1

>  <s_lp_Variant>  (279) 
73:0-1

>  <s_i_glide_gridfile>  (279) 
pfpi4k_grid

>  <i_i_glide_lignum>  (279) 
27

>  <i_i_glide_rotatable_bonds>  (279) 
0

>  <r_i_docking_score>  (279) 
-3.63374

>  <r_i_glide_ligand_efficiency>  (279) 
-0.279518

>  <r_i_glide_ligand_efficiency_sa>  (279) 
-0.657241

>  <r_i_glide_ligand_efficiency_ln>  (279) 
-1.0193

>  <r_i_glide_gscore>  (279) 
-3.63374

>  <r_i_glide_lipo>  (279) 
-0.550096

>  <r_i_glide_hbond>  (279) 
0

>  <r_i_glide_metal>  (279) 
-0

>  <r_i_glide_rewards>  (279) 
-2.23455

>  <r_i_glide_evdw>  (279) 
-18.8514

>  <r_i_glide_ecoul>  (279) 
0.623203

>  <r_i_glide_erotb>  (279) 
0

>  <r_i_glide_esite>  (279) 
0

>  <r_i_glide_emodel>  (279) 
-22.4883

>  <r_i_glide_energy>  (279) 
-18.2282

>  <r_i_glide_einternal>  (279) 
0

>  <r_i_glide_intrahb_reward>  (279) 
-0

>  <i_i_glide_confnum>  (279) 
1

>  <i_i_glide_posenum>  (279) 
26

>  <r_i_glide_eff_state_penalty>  (279) 
0

>  <ligand_id>  (279) 
73

>  <original_smiles>  (279) 
C1CC2C3CC4C5C1C1C2C(C45)C31

>  <smiles>  (279) 
[H]C1([H])C([H])([H])C2([H])C3([H])C([H])([H])C4([H])C5([H])C1([H])C1([H])C2([H])C([H])(C45[H])C31[H]

$$$$
73:0:2
     RDKit          3D

 29 34  0  0  1  0  0  0  0  0999 V2000
    5.1157   -4.3385    1.1237 C   0  0  0  0  0  0  0  0  0  0  0  0
    5.0208   -4.9721   -0.2839 C   0  0  0  0  0  0  0  0  0  0  0  0
    4.9920   -3.9607   -1.4541 C   0  0  2  0  0  0  0  0  0  0  0  0
    6.1969   -3.0687   -1.5991 C   0  0  2  0  0  0  0  0  0  0  0  0
    7.2863   -2.8258   -0.5250 C   0  0  0  0  0  0  0  0  0  0  0  0
    6.9663   -1.6980    0.4510 C   0  0  2  0  0  0  0  0  0  0  0  0
    5.7808   -1.8242    1.3776 C   0  0  2  0  0  0  0  0  0  0  0  0
    4.6781   -2.8609    1.1691 C   0  0  1  0  0  0  0  0  0  0  0  0
    4.0182   -2.3549   -0.1193 C   0  0  2  0  0  0  0  0  0  0  0  0
    3.9723   -2.7769   -1.2552 C   0  0  1  0  0  0  0  0  0  0  0  0
    4.6758   -1.1300   -0.8420 C   0  0  1  0  0  0  0  0  0  0  0  0
    5.7682   -0.7871    0.2537 C   0  0  2  0  0  0  0  0  0  0  0  0
    5.1232   -2.0524   -1.5662 C   0  0  1  0  0  0  0  0  0  0  0  0
    6.1244   -4.4601    1.5185 H   0  0  0  0  0  0  0  0  0  0  0  0
    4.4751   -4.9258    1.7907 H   0  0  0  0  0  0  0  0  0  0  0  0
    5.8193   -5.7026   -0.4235 H   0  0  0  0  0  0  0  0  0  0  0  0
    4.0963   -5.5469   -0.3305 H   0  0  0  0  0  0  0  0  0  0  0  0
    4.7960   -4.4846   -2.3978 H   0  0  0  0  0  0  0  0  0  0  0  0
    6.6375   -3.1808   -2.5917 H   0  0  0  0  0  0  0  0  0  0  0  0
    7.5569   -3.7312    0.0205 H   0  0  0  0  0  0  0  0  0  0  0  0
    8.1982   -2.5301   -1.0460 H   0  0  0  0  0  0  0  0  0  0  0  0
    7.8388   -1.2433    0.9001 H   0  0  0  0  0  0  0  0  0  0  0  0
    5.9039   -1.4551    2.3837 H   0  0  0  0  0  0  0  0  0  0  0  0
    3.9861   -2.7489    2.0043 H   0  0  0  0  0  0  0  0  0  0  0  0
    2.9819   -1.9860    0.0604 H   0  0  0  0  0  0  0  0  0  0  0  0
    2.9540   -2.8591   -1.6534 H   0  0  0  0  0  0  0  0  0  0  0  0
    4.2199   -0.2979   -1.3805 H   0  0  0  0  0  0  0  0  0  0  0  0
    5.8965    0.2593    0.5127 H   0  0  0  0  0  0  0  0  0  0  0  0
    4.9730   -1.5688   -2.5797 H   0  0  0  0  0  0  0  0  0  0  0  0
  1  8  1  0
  1  2  1  0
  1 14  1  0
  1 15  1  0
  2  3  1  0
  2 16  1  0
  2 17  1  0
  3 10  1  0
  3  4  1  0
  3 18  1  6
  4 13  1  0
  4  5  1  0
  4 19  1  6
  5  6  1  0
  5 20  1  0
  5 21  1  0
  6 12  1  0
  6  7  1  0
  6 22  1  1
  7 12  1  0
  7  8  1  0
  7 23  1  1
  8  9  1  0
  8 24  1  1
  9 13  1  0
  9 10  1  0
  9 25  1  1
 10 11  1  0
 10 26  1  6
 11 12  1  0
 11 13  1  0
 11 27  1  6
 12 28  1  1
 13 29  1  6
M  END
>  <i_m_ct_stereo_status>  (280) 
1

>  <s_m_source_file>  (280) 
/var/tmp/pbs.5076255.sched01/tmpn8rdt6mw/90ee43ygr2.sdf

>  <i_m_source_file_index>  (280) 
27

>  <i_lp_mmshare_version>  (280) 
48012

>  <i_f3d_flags>  (280) 
0

>  <s_epik_input>  (280) 
W0NASF0xMltDQEhdM1tDQEhdNFtDQEBIXTVbQ0BASF0oW0NIMl1bQ0gyXTEpW0NASF02W0NAQEhdKFtDSDJdMylbQ0BIXTZbQ0BASF00W0NAQEhdMjU=

>  <s_epik_cmdline>  (280) 
J2VwaWtfcHl0aG9uJywgJy1waHQnLCAnMi4wJywgJy1waCcsICc3LjAnLCAnLXRuJywgJzgnLCAnLW1hJywgJzIwMCcsICctaW1hZScsICc8aW5maWxlLm1hZT4nLCAnLW9tYWUnLCAnPG91dGZpbGUubWFlPic=

>  <r_lp_tautomer_probability>  (280) 
1

>  <r_epik_Ionization_Penalty>  (280) 
0

>  <r_epik_Ionization_Penalty_Charging>  (280) 
0

>  <r_epik_Ionization_Penalty_Neutral>  (280) 
0

>  <r_epik_State_Penalty>  (280) 
-0

>  <r_epik_Charging_Adjusted_Penalty>  (280) 
0

>  <i_epik_Tot_Q>  (280) 
0

>  <i_epik_Tot_abs_Q>  (280) 
0

>  <s_lp_Force_Field>  (280) 
OPLS3e

>  <r_lp_Energy>  (280) 
389.219

>  <b_lp_Chiralities_Consistent>  (280) 
1

>  <s_lp_Variant>  (280) 
73:0-1

>  <s_i_glide_gridfile>  (280) 
pfpi4k_grid

>  <i_i_glide_lignum>  (280) 
27

>  <i_i_glide_rotatable_bonds>  (280) 
0

>  <r_i_docking_score>  (280) 
-3.62256

>  <r_i_glide_ligand_efficiency>  (280) 
-0.278659

>  <r_i_glide_ligand_efficiency_sa>  (280) 
-0.65522

>  <r_i_glide_ligand_efficiency_ln>  (280) 
-1.01616

>  <r_i_glide_gscore>  (280) 
-3.62256

>  <r_i_glide_lipo>  (280) 
-0.367594

>  <r_i_glide_hbond>  (280) 
0

>  <r_i_glide_metal>  (280) 
-0

>  <r_i_glide_rewards>  (280) 
-2.23455

>  <r_i_glide_evdw>  (280) 
-18.4288

>  <r_i_glide_ecoul>  (280) 
-0.659887

>  <r_i_glide_erotb>  (280) 
0

>  <r_i_glide_esite>  (280) 
0

>  <r_i_glide_emodel>  (280) 
-23.3357

>  <r_i_glide_energy>  (280) 
-19.0886

>  <r_i_glide_einternal>  (280) 
0

>  <r_i_glide_intrahb_reward>  (280) 
-0

>  <i_i_glide_confnum>  (280) 
2

>  <i_i_glide_posenum>  (280) 
4

>  <r_i_glide_eff_state_penalty>  (280) 
0

>  <ligand_id>  (280) 
73

>  <original_smiles>  (280) 
C1CC2C3CC4C5C1C1C2C(C45)C31

>  <smiles>  (280) 
[H]C1([H])C([H])([H])C2([H])C3([H])C([H])([H])C4([H])C5([H])C1([H])C1([H])C2([H])C([H])(C45[H])C31[H]

$$$$
75:0:0
     RDKit          3D

 70 76  0  0  1  0  0  0  0  0999 V2000
    2.9278   -5.8791    5.0367 C   0  0  0  0  0  0  0  0  0  0  0  0
    3.4673   -5.3571    3.6607 C   0  0  2  0  0  0  0  0  0  0  0  0
    2.5229   -5.4650    2.4626 C   0  0  0  0  0  0  0  0  0  0  0  0
    1.2931   -5.5596    2.5775 O   0  0  0  0  0  0  0  0  0  0  0  0
    3.2760   -5.4812    1.1014 C   0  0  2  0  0  0  0  0  0  0  0  0
    2.3358   -5.7962    0.0850 O   0  0  0  0  0  0  0  0  0  0  0  0
    4.3322   -6.7665    1.1110 C   0  0  2  0  0  0  0  0  0  0  0  0
    5.4345   -6.1670    1.9025 C   0  0  1  0  0  0  0  0  0  0  0  0
    6.6174   -6.0982    1.1195 O   0  0  0  0  0  0  0  0  0  0  0  0
    4.9837   -5.3266    3.1853 C   0  0  2  0  0  0  0  0  0  0  0  0
    5.6805   -6.2071    4.2955 C   0  0  0  0  0  0  0  0  0  0  0  0
    5.3829   -7.8137    4.1945 C   0  0  2  0  0  0  0  0  0  0  0  0
    6.6521   -8.3569    3.7611 O   0  0  0  0  0  0  0  0  0  0  0  0
    6.6088   -9.4521    2.8416 C   0  0  1  0  0  0  0  0  0  0  0  0
    6.1387  -10.6672    3.6083 C   0  0  0  0  0  0  0  0  0  0  0  0
    4.8337  -10.7867    3.8103 C   0  0  0  0  0  0  0  0  0  0  0  0
    3.7036   -9.8836    3.6086 C   0  0  2  0  0  0  0  0  0  0  0  0
    4.1556   -8.4251    3.2901 C   0  0  2  0  0  0  0  0  0  0  0  0
    4.4266   -8.3127    1.7102 C   0  0  1  0  0  0  0  0  0  0  0  0
    3.5475   -9.1467    0.9266 O   0  0  0  0  0  0  0  0  0  0  0  0
    5.7847   -9.1213    1.5276 C   0  0  0  0  0  0  0  0  0  0  0  0
    3.8127  -10.8210    4.8822 C   0  0  0  0  0  0  0  0  0  0  0  0
    3.0217  -12.1095    4.9092 C   0  0  0  0  0  0  0  0  0  0  0  0
    4.0126  -10.2432    6.2807 C   0  0  0  0  0  0  0  0  0  0  0  0
    5.1885   -3.7272    2.8411 C   0  0  1  0  0  0  0  0  0  0  0  0
    6.1568   -3.4840    1.6504 C   0  0  0  0  0  0  0  0  0  0  0  0
    5.2668   -3.7364    0.3604 C   0  0  0  0  0  0  0  0  0  0  0  0
    3.7855   -3.8949    0.8466 C   0  0  1  0  0  0  0  0  0  0  0  0
    2.8594   -3.1877   -0.1786 C   0  0  0  0  0  0  0  0  0  0  0  0
    3.9537   -2.9458    2.1391 C   0  0  0  0  0  0  0  0  0  0  0  0
    2.6653   -2.4951    2.9567 C   0  0  0  0  0  0  0  0  0  0  0  0
    4.3552   -1.4377    1.7898 C   0  0  0  0  0  0  0  0  0  0  0  0
    1.8595   -5.6777    5.1264 H   0  0  0  0  0  0  0  0  0  0  0  0
    3.3819   -5.3356    5.8683 H   0  0  0  0  0  0  0  0  0  0  0  0
    3.0601   -6.9332    5.2638 H   0  0  0  0  0  0  0  0  0  0  0  0
    3.3799   -4.3581    4.0414 H   0  0  0  0  0  0  0  0  0  0  0  0
    2.7712   -5.8326   -0.7675 H   0  0  0  0  0  0  0  0  0  0  0  0
    3.4237   -7.1584    1.5031 H   0  0  0  0  0  0  0  0  0  0  0  0
    6.1178   -6.8969    2.2281 H   0  0  0  0  0  0  0  0  0  0  0  0
    7.3654   -6.1884    1.6922 H   0  0  0  0  0  0  0  0  0  0  0  0
    6.7595   -6.0472    4.2308 H   0  0  0  0  0  0  0  0  0  0  0  0
    5.4464   -5.8474    5.2971 H   0  0  0  0  0  0  0  0  0  0  0  0
    5.2599   -8.1520    5.2177 H   0  0  0  0  0  0  0  0  0  0  0  0
    7.6287   -9.6766    2.5471 H   0  0  0  0  0  0  0  0  0  0  0  0
    6.8625  -11.2024    4.2049 H   0  0  0  0  0  0  0  0  0  0  0  0
    2.8457  -10.1752    3.0050 H   0  0  0  0  0  0  0  0  0  0  0  0
    3.2374   -7.8981    3.4894 H   0  0  0  0  0  0  0  0  0  0  0  0
    3.8078  -10.0553    1.0106 H   0  0  0  0  0  0  0  0  0  0  0  0
    6.4431   -8.5916    0.8478 H   0  0  0  0  0  0  0  0  0  0  0  0
    5.6321  -10.0698    1.0098 H   0  0  0  0  0  0  0  0  0  0  0  0
    2.0120  -11.9389    5.2834 H   0  0  0  0  0  0  0  0  0  0  0  0
    3.5158  -12.8494    5.5387 H   0  0  0  0  0  0  0  0  0  0  0  0
    2.9541  -12.5152    3.9017 H   0  0  0  0  0  0  0  0  0  0  0  0
    3.4034   -9.3462    6.4034 H   0  0  0  0  0  0  0  0  0  0  0  0
    5.0552   -9.9996    6.4880 H   0  0  0  0  0  0  0  0  0  0  0  0
    3.6762  -10.9428    7.0464 H   0  0  0  0  0  0  0  0  0  0  0  0
    5.5217   -3.1963    3.7360 H   0  0  0  0  0  0  0  0  0  0  0  0
    6.5495   -2.4720    1.6688 H   0  0  0  0  0  0  0  0  0  0  0  0
    7.1117   -3.9908    1.7197 H   0  0  0  0  0  0  0  0  0  0  0  0
    5.3749   -2.8899   -0.3155 H   0  0  0  0  0  0  0  0  0  0  0  0
    5.5588   -4.5629   -0.2806 H   0  0  0  0  0  0  0  0  0  0  0  0
    3.1416   -2.1548   -0.3748 H   0  0  0  0  0  0  0  0  0  0  0  0
    1.8264   -3.1688    0.1674 H   0  0  0  0  0  0  0  0  0  0  0  0
    2.8833   -3.6851   -1.1485 H   0  0  0  0  0  0  0  0  0  0  0  0
    2.0035   -1.8636    2.3630 H   0  0  0  0  0  0  0  0  0  0  0  0
    2.9608   -1.9056    3.8266 H   0  0  0  0  0  0  0  0  0  0  0  0
    1.9542   -3.2136    3.3373 H   0  0  0  0  0  0  0  0  0  0  0  0
    3.5185   -0.8147    1.4701 H   0  0  0  0  0  0  0  0  0  0  0  0
    5.0505   -1.2663    0.9719 H   0  0  0  0  0  0  0  0  0  0  0  0
    4.7875   -0.9435    2.6633 H   0  0  0  0  0  0  0  0  0  0  0  0
  1  2  1  0
  1 33  1  0
  1 34  1  0
  1 35  1  0
  2 10  1  0
  2  3  1  0
  2 36  1  1
  3  4  2  0
  3  5  1  0
  5 28  1  0
  5  6  1  6
  5  7  1  0
  6 37  1  0
  7 19  1  0
  7  8  1  0
  7 38  1  6
  8  9  1  0
  8 10  1  0
  8 39  1  1
  9 40  1  0
 10 11  1  1
 10 25  1  0
 11 12  1  0
 11 41  1  0
 11 42  1  0
 12 18  1  0
 12 13  1  0
 12 43  1  1
 13 14  1  0
 14 21  1  0
 14 15  1  0
 14 44  1  6
 15 16  2  0
 15 45  1  0
 16 22  1  0
 16 17  1  0
 17 18  1  0
 17 22  1  0
 17 46  1  6
 18 19  1  0
 18 47  1  6
 19 20  1  6
 19 21  1  0
 20 48  1  0
 21 49  1  0
 21 50  1  0
 22 23  1  0
 22 24  1  0
 23 51  1  0
 23 52  1  0
 23 53  1  0
 24 54  1  0
 24 55  1  0
 24 56  1  0
 25 30  1  0
 25 26  1  0
 25 57  1  1
 26 27  1  0
 26 58  1  0
 26 59  1  0
 27 28  1  0
 27 60  1  0
 27 61  1  0
 28 29  1  6
 28 30  1  0
 29 62  1  0
 29 63  1  0
 29 64  1  0
 30 31  1  0
 30 32  1  0
 31 65  1  0
 31 66  1  0
 31 67  1  0
 32 68  1  0
 32 69  1  0
 32 70  1  0
M  END
>  <i_m_ct_stereo_status>  (281) 
1

>  <s_m_source_file>  (281) 
/var/tmp/pbs.5076255.sched01/tmpn8rdt6mw/90ee43ygr2.sdf

>  <i_m_source_file_index>  (281) 
30

>  <i_lp_mmshare_version>  (281) 
48012

>  <i_f3d_flags>  (281) 
1

>  <s_epik_input>  (281) 
W0NAXTEyM1tDQEhdNFtDSDJdW0NIMl1bQ0BdKFtDSDNdKShDNChbQ0gzXSlbQ0gzXSlbQ0BdKFtPSF0pKEMoPU8pW0NASF0xW0NIM10pW0NASF0oW0NASF0yW09IXSlbQ0BdNShbT0hdKVtDQEBIXTZbQ0BIXShbQ0gyXTMpT1tDQEhdKFtDSDJdNSlbQ0hdPUM3W0NIXTZDNyhbQ0gzXSlbQ0gzXQ==

>  <s_epik_cmdline>  (281) 
J2VwaWtfcHl0aG9uJywgJy1waHQnLCAnMi4wJywgJy1waCcsICc3LjAnLCAnLXRuJywgJzgnLCAnLW1hJywgJzIwMCcsICctaW1hZScsICc8aW5maWxlLm1hZT4nLCAnLW9tYWUnLCAnPG91dGZpbGUubWFlPic=

>  <r_lp_tautomer_probability>  (281) 
1

>  <r_epik_Ionization_Penalty>  (281) 
3.91552e-07

>  <r_epik_Ionization_Penalty_Charging>  (281) 
0

>  <r_epik_Ionization_Penalty_Neutral>  (281) 
3.91552e-07

>  <r_epik_State_Penalty>  (281) 
-0

>  <r_epik_Charging_Adjusted_Penalty>  (281) 
0

>  <i_epik_Tot_Q>  (281) 
0

>  <i_epik_Tot_abs_Q>  (281) 
0

>  <s_lp_Force_Field>  (281) 
OPLS3e

>  <r_lp_Energy>  (281) 
336.726

>  <b_lp_Chiralities_Consistent>  (281) 
1

>  <s_lp_Variant>  (281) 
75:0-1

>  <s_i_glide_gridfile>  (281) 
pfpi4k_grid

>  <i_i_glide_lignum>  (281) 
30

>  <i_i_glide_rotatable_bonds>  (281) 
3

>  <r_i_docking_score>  (281) 
-3.15

>  <r_i_glide_ligand_efficiency>  (281) 
-0.0984375

>  <r_i_glide_ligand_efficiency_sa>  (281) 
-0.31252

>  <r_i_glide_ligand_efficiency_ln>  (281) 
-0.705371

>  <r_i_glide_gscore>  (281) 
-3.15

>  <r_i_glide_lipo>  (281) 
-0.36338

>  <r_i_glide_hbond>  (281) 
-0.0985079

>  <r_i_glide_metal>  (281) 
-0

>  <r_i_glide_rewards>  (281) 
-0.391448

>  <r_i_glide_evdw>  (281) 
-25.1166

>  <r_i_glide_ecoul>  (281) 
-6.88232

>  <r_i_glide_erotb>  (281) 
0

>  <r_i_glide_esite>  (281) 
-0.00848654

>  <r_i_glide_emodel>  (281) 
-38.008

>  <r_i_glide_energy>  (281) 
-31.9989

>  <r_i_glide_einternal>  (281) 
0.675617

>  <r_i_glide_intrahb_reward>  (281) 
-0

>  <i_i_glide_confnum>  (281) 
1

>  <i_i_glide_posenum>  (281) 
22

>  <r_i_glide_eff_state_penalty>  (281) 
0

>  <ligand_id>  (281) 
75

>  <original_smiles>  (281) 
CC1C(=O)C2(O)C3C(O)C1(CC1OC4C=C5C(C1C3(O)C4)C5(C)C)C1CCC2(C)C1(C)C

>  <smiles>  (281) 
[H]OC1([H])C2([H])C3(O[H])C(=O)C([H])(C([H])([H])[H])C1(C([H])([H])C1([H])OC4([H])C([H])=C5C([H])(C1([H])C2(O[H])C4([H])[H])C5(C([H])([H])[H])C([H])([H])[H])C1([H])C([H])([H])C([H])([H])C3(C([H])([H])[H])C1(C([H])([H])[H])C([H])([H])[H]

$$$$
75:0:1
     RDKit          3D

 70 76  0  0  1  0  0  0  0  0999 V2000
    3.7068   -3.2956    4.4254 C   0  0  0  0  0  0  0  0  0  0  0  0
    4.1142   -3.4883    2.9263 C   0  0  2  0  0  0  0  0  0  0  0  0
    2.9738   -3.4880    1.9097 C   0  0  0  0  0  0  0  0  0  0  0  0
    1.9002   -2.9798    2.1432 O   0  0  0  0  0  0  0  0  0  0  0  0
    3.3647   -4.2335    0.5835 C   0  0  2  0  0  0  0  0  0  0  0  0
    2.2130   -4.4151   -0.2395 O   0  0  0  0  0  0  0  0  0  0  0  0
    3.7579   -5.7898    0.9681 C   0  0  2  0  0  0  0  0  0  0  0  0
    5.1316   -5.5632    1.4454 C   0  0  1  0  0  0  0  0  0  0  0  0
    6.0271   -6.2483    0.6028 O   0  0  0  0  0  0  0  0  0  0  0  0
    5.3491   -4.2901    2.3699 C   0  0  2  0  0  0  0  0  0  0  0  0
    5.8343   -5.0499    3.6594 C   0  0  0  0  0  0  0  0  0  0  0  0
    4.8985   -6.2919    4.1419 C   0  0  2  0  0  0  0  0  0  0  0  0
    5.7228   -7.4395    3.8411 O   0  0  0  0  0  0  0  0  0  0  0  0
    5.0396   -8.6000    3.3724 C   0  0  1  0  0  0  0  0  0  0  0  0
    4.2926   -9.1654    4.5604 C   0  0  0  0  0  0  0  0  0  0  0  0
    3.1002   -8.6894    4.8594 C   0  0  0  0  0  0  0  0  0  0  0  0
    2.4526   -7.4510    4.4148 C   0  0  2  0  0  0  0  0  0  0  0  0
    3.3731   -6.5058    3.5869 C   0  0  2  0  0  0  0  0  0  0  0  0
    3.3355   -6.9633    2.0511 C   0  0  1  0  0  0  0  0  0  0  0  0
    2.0383   -7.4687    1.6979 O   0  0  0  0  0  0  0  0  0  0  0  0
    4.1628   -8.3203    2.0753 C   0  0  0  0  0  0  0  0  0  0  0  0
    2.4227   -7.9065    5.9386 C   0  0  0  0  0  0  0  0  0  0  0  0
    1.2089   -8.6218    6.4921 C   0  0  0  0  0  0  0  0  0  0  0  0
    3.1462   -7.1218    7.0289 C   0  0  0  0  0  0  0  0  0  0  0  0
    6.1044   -3.1369    1.4657 C   0  0  1  0  0  0  0  0  0  0  0  0
    6.8179   -3.7068    0.2121 C   0  0  0  0  0  0  0  0  0  0  0  0
    5.6521   -3.8616   -0.8548 C   0  0  0  0  0  0  0  0  0  0  0  0
    4.3810   -3.1903   -0.2430 C   0  0  1  0  0  0  0  0  0  0  0  0
    3.6219   -2.4595   -1.3856 C   0  0  0  0  0  0  0  0  0  0  0  0
    5.1788   -2.1091    0.6297 C   0  0  0  0  0  0  0  0  0  0  0  0
    4.4032   -0.9033    1.3188 C   0  0  0  0  0  0  0  0  0  0  0  0
    6.0726   -1.1254   -0.2377 C   0  0  0  0  0  0  0  0  0  0  0  0
    2.8598   -2.6149    4.5049 H   0  0  0  0  0  0  0  0  0  0  0  0
    4.5083   -2.8053    4.9847 H   0  0  0  0  0  0  0  0  0  0  0  0
    3.4399   -4.1825    4.9934 H   0  0  0  0  0  0  0  0  0  0  0  0
    4.5196   -2.4962    2.9362 H   0  0  0  0  0  0  0  0  0  0  0  0
    2.4951   -4.8106   -1.0572 H   0  0  0  0  0  0  0  0  0  0  0  0
    2.8728   -5.5948    1.5266 H   0  0  0  0  0  0  0  0  0  0  0  0
    5.5275   -6.3979    1.9466 H   0  0  0  0  0  0  0  0  0  0  0  0
    5.9698   -5.8561   -0.2506 H   0  0  0  0  0  0  0  0  0  0  0  0
    6.8404   -5.4326    3.4761 H   0  0  0  0  0  0  0  0  0  0  0  0
    5.9869   -4.3644    4.4853 H   0  0  0  0  0  0  0  0  0  0  0  0
    4.8779   -6.2321    5.2250 H   0  0  0  0  0  0  0  0  0  0  0  0
    5.7768   -9.3552    3.1066 H   0  0  0  0  0  0  0  0  0  0  0  0
    4.8280   -9.8322    5.2182 H   0  0  0  0  0  0  0  0  0  0  0  0
    1.4458   -7.4553    4.0222 H   0  0  0  0  0  0  0  0  0  0  0  0
    2.8172   -5.5835    3.6546 H   0  0  0  0  0  0  0  0  0  0  0  0
    2.1378   -8.0569    0.9701 H   0  0  0  0  0  0  0  0  0  0  0  0
    4.8023   -8.3773    1.1955 H   0  0  0  0  0  0  0  0  0  0  0  0
    3.5230   -9.1942    1.9377 H   0  0  0  0  0  0  0  0  0  0  0  0
    0.4672   -7.9132    6.8600 H   0  0  0  0  0  0  0  0  0  0  0  0
    1.4901   -9.3136    7.2890 H   0  0  0  0  0  0  0  0  0  0  0  0
    0.7562   -9.2118    5.6969 H   0  0  0  0  0  0  0  0  0  0  0  0
    2.9995   -6.0526    6.8716 H   0  0  0  0  0  0  0  0  0  0  0  0
    4.2137   -7.3377    7.0646 H   0  0  0  0  0  0  0  0  0  0  0  0
    2.7306   -7.3442    8.0159 H   0  0  0  0  0  0  0  0  0  0  0  0
    6.8022   -2.5722    2.0782 H   0  0  0  0  0  0  0  0  0  0  0  0
    7.5862   -3.0265   -0.1450 H   0  0  0  0  0  0  0  0  0  0  0  0
    7.4760   -4.5465    0.4055 H   0  0  0  0  0  0  0  0  0  0  0  0
    5.9503   -3.3880   -1.7906 H   0  0  0  0  0  0  0  0  0  0  0  0
    5.4056   -4.8623   -1.1907 H   0  0  0  0  0  0  0  0  0  0  0  0
    4.2491   -1.7718   -1.9479 H   0  0  0  0  0  0  0  0  0  0  0  0
    2.7857   -1.8822   -0.9942 H   0  0  0  0  0  0  0  0  0  0  0  0
    3.2325   -3.1608   -2.1235 H   0  0  0  0  0  0  0  0  0  0  0  0
    3.9471   -0.2347    0.5879 H   0  0  0  0  0  0  0  0  0  0  0  0
    5.0961   -0.2964    1.9050 H   0  0  0  0  0  0  0  0  0  0  0  0
    3.5608   -1.0745    1.9710 H   0  0  0  0  0  0  0  0  0  0  0  0
    5.5188   -0.3081   -0.6976 H   0  0  0  0  0  0  0  0  0  0  0  0
    6.5783   -1.5304   -1.1072 H   0  0  0  0  0  0  0  0  0  0  0  0
    6.8428   -0.6635    0.3828 H   0  0  0  0  0  0  0  0  0  0  0  0
  1  2  1  0
  1 33  1  0
  1 34  1  0
  1 35  1  0
  2 10  1  0
  2  3  1  0
  2 36  1  6
  3  4  2  0
  3  5  1  0
  5 28  1  0
  5  6  1  6
  5  7  1  0
  6 37  1  0
  7 19  1  0
  7  8  1  0
  7 38  1  6
  8  9  1  0
  8 10  1  0
  8 39  1  1
  9 40  1  0
 10 11  1  1
 10 25  1  0
 11 12  1  0
 11 41  1  0
 11 42  1  0
 12 18  1  0
 12 13  1  0
 12 43  1  1
 13 14  1  0
 14 21  1  0
 14 15  1  0
 14 44  1  6
 15 16  2  0
 15 45  1  0
 16 22  1  0
 16 17  1  0
 17 18  1  0
 17 22  1  0
 17 46  1  6
 18 19  1  0
 18 47  1  6
 19 20  1  6
 19 21  1  0
 20 48  1  0
 21 49  1  0
 21 50  1  0
 22 23  1  0
 22 24  1  0
 23 51  1  0
 23 52  1  0
 23 53  1  0
 24 54  1  0
 24 55  1  0
 24 56  1  0
 25 30  1  0
 25 26  1  0
 25 57  1  1
 26 27  1  0
 26 58  1  0
 26 59  1  0
 27 28  1  0
 27 60  1  0
 27 61  1  0
 28 29  1  6
 28 30  1  0
 29 62  1  0
 29 63  1  0
 29 64  1  0
 30 31  1  0
 30 32  1  0
 31 65  1  0
 31 66  1  0
 31 67  1  0
 32 68  1  0
 32 69  1  0
 32 70  1  0
M  END
>  <i_m_ct_stereo_status>  (282) 
1

>  <s_m_source_file>  (282) 
/var/tmp/pbs.5076255.sched01/tmpn8rdt6mw/90ee43ygr2.sdf

>  <i_m_source_file_index>  (282) 
30

>  <i_lp_mmshare_version>  (282) 
48012

>  <i_f3d_flags>  (282) 
1

>  <s_epik_input>  (282) 
W0NAXTEyM1tDQEhdNFtDSDJdW0NIMl1bQ0BdKFtDSDNdKShDNChbQ0gzXSlbQ0gzXSlbQ0BdKFtPSF0pKEMoPU8pW0NASF0xW0NIM10pW0NASF0oW0NASF0yW09IXSlbQ0BdNShbT0hdKVtDQEBIXTZbQ0BIXShbQ0gyXTMpT1tDQEhdKFtDSDJdNSlbQ0hdPUM3W0NIXTZDNyhbQ0gzXSlbQ0gzXQ==

>  <s_epik_cmdline>  (282) 
J2VwaWtfcHl0aG9uJywgJy1waHQnLCAnMi4wJywgJy1waCcsICc3LjAnLCAnLXRuJywgJzgnLCAnLW1hJywgJzIwMCcsICctaW1hZScsICc8aW5maWxlLm1hZT4nLCAnLW9tYWUnLCAnPG91dGZpbGUubWFlPic=

>  <r_lp_tautomer_probability>  (282) 
1

>  <r_epik_Ionization_Penalty>  (282) 
3.91552e-07

>  <r_epik_Ionization_Penalty_Charging>  (282) 
0

>  <r_epik_Ionization_Penalty_Neutral>  (282) 
3.91552e-07

>  <r_epik_State_Penalty>  (282) 
-0

>  <r_epik_Charging_Adjusted_Penalty>  (282) 
0

>  <i_epik_Tot_Q>  (282) 
0

>  <i_epik_Tot_abs_Q>  (282) 
0

>  <s_lp_Force_Field>  (282) 
OPLS3e

>  <r_lp_Energy>  (282) 
336.726

>  <b_lp_Chiralities_Consistent>  (282) 
1

>  <s_lp_Variant>  (282) 
75:0-1

>  <s_i_glide_gridfile>  (282) 
pfpi4k_grid

>  <i_i_glide_lignum>  (282) 
30

>  <i_i_glide_rotatable_bonds>  (282) 
3

>  <r_i_docking_score>  (282) 
-2.30622

>  <r_i_glide_ligand_efficiency>  (282) 
-0.0720694

>  <r_i_glide_ligand_efficiency_sa>  (282) 
-0.228806

>  <r_i_glide_ligand_efficiency_ln>  (282) 
-0.516426

>  <r_i_glide_gscore>  (282) 
-2.30622

>  <r_i_glide_lipo>  (282) 
-0.530771

>  <r_i_glide_hbond>  (282) 
0

>  <r_i_glide_metal>  (282) 
-0

>  <r_i_glide_rewards>  (282) 
-0.391448

>  <r_i_glide_evdw>  (282) 
-23.3578

>  <r_i_glide_ecoul>  (282) 
-1.42996

>  <r_i_glide_erotb>  (282) 
0

>  <r_i_glide_esite>  (282) 
-0.00161883

>  <r_i_glide_emodel>  (282) 
-28.2676

>  <r_i_glide_energy>  (282) 
-24.7877

>  <r_i_glide_einternal>  (282) 
0.443117

>  <r_i_glide_intrahb_reward>  (282) 
-0

>  <i_i_glide_confnum>  (282) 
1

>  <i_i_glide_posenum>  (282) 
2

>  <r_i_glide_eff_state_penalty>  (282) 
0

>  <ligand_id>  (282) 
75

>  <original_smiles>  (282) 
CC1C(=O)C2(O)C3C(O)C1(CC1OC4C=C5C(C1C3(O)C4)C5(C)C)C1CCC2(C)C1(C)C

>  <smiles>  (282) 
[H]OC1([H])C2([H])C3(O[H])C(=O)C([H])(C([H])([H])[H])C1(C([H])([H])C1([H])OC4([H])C([H])=C5C([H])(C1([H])C2(O[H])C4([H])[H])C5(C([H])([H])[H])C([H])([H])[H])C1([H])C([H])([H])C([H])([H])C3(C([H])([H])[H])C1(C([H])([H])[H])C([H])([H])[H]

$$$$
75:0:2
     RDKit          3D

 70 76  0  0  1  0  0  0  0  0999 V2000
    1.4314   -1.1461    2.1996 C   0  0  0  0  0  0  0  0  0  0  0  0
    2.4482   -1.3083    3.3660 C   0  0  2  0  0  0  0  0  0  0  0  0
    3.5234   -0.2316    3.4737 C   0  0  0  0  0  0  0  0  0  0  0  0
    3.4105    0.8840    2.9721 O   0  0  0  0  0  0  0  0  0  0  0  0
    4.7853   -0.7344    4.2340 C   0  0  2  0  0  0  0  0  0  0  0  0
    5.8181    0.2321    4.0840 O   0  0  0  0  0  0  0  0  0  0  0  0
    5.3814   -2.0582    3.4238 C   0  0  2  0  0  0  0  0  0  0  0  0
    4.4633   -3.0904    3.9543 C   0  0  1  0  0  0  0  0  0  0  0  0
    5.1871   -4.0591    4.6949 O   0  0  0  0  0  0  0  0  0  0  0  0
    2.9275   -2.6674    4.0269 C   0  0  2  0  0  0  0  0  0  0  0  0
    2.3540   -3.7334    3.0162 C   0  0  0  0  0  0  0  0  0  0  0  0
    3.1384   -3.8304    1.5812 C   0  0  2  0  0  0  0  0  0  0  0  0
    3.8246   -5.1021    1.6677 O   0  0  0  0  0  0  0  0  0  0  0  0
    5.1320   -5.1726    1.0907 C   0  0  1  0  0  0  0  0  0  0  0  0
    4.9662   -5.1473   -0.4059 C   0  0  0  0  0  0  0  0  0  0  0  0
    4.7766   -3.9636   -0.9889 C   0  0  0  0  0  0  0  0  0  0  0  0
    4.4974   -2.6317   -0.4712 C   0  0  2  0  0  0  0  0  0  0  0  0
    4.1547   -2.6550    1.0510 C   0  0  2  0  0  0  0  0  0  0  0  0
    5.5340   -2.6196    1.8714 C   0  0  1  0  0  0  0  0  0  0  0  0
    6.5633   -1.8476    1.2066 O   0  0  0  0  0  0  0  0  0  0  0  0
    6.1212   -4.0828    1.6653 C   0  0  0  0  0  0  0  0  0  0  0  0
    3.7926   -3.1926   -1.7776 C   0  0  0  0  0  0  0  0  0  0  0  0
    4.2771   -2.7608   -3.1432 C   0  0  0  0  0  0  0  0  0  0  0  0
    2.2965   -3.4561   -1.7828 C   0  0  0  0  0  0  0  0  0  0  0  0
    2.5422   -2.4098    5.6071 C   0  0  1  0  0  0  0  0  0  0  0  0
    3.5451   -3.0713    6.5891 C   0  0  0  0  0  0  0  0  0  0  0  0
    4.7746   -2.0649    6.6366 C   0  0  0  0  0  0  0  0  0  0  0  0
    4.3414   -0.7742    5.8593 C   0  0  1  0  0  0  0  0  0  0  0  0
    4.9101    0.4668    6.6058 C   0  0  0  0  0  0  0  0  0  0  0  0
    2.7740   -0.9188    6.2022 C   0  0  0  0  0  0  0  0  0  0  0  0
    1.7850    0.2846    5.8765 C   0  0  0  0  0  0  0  0  0  0  0  0
    2.4446   -0.8693    7.7646 C   0  0  0  0  0  0  0  0  0  0  0  0
    1.2144   -0.0945    2.0018 H   0  0  0  0  0  0  0  0  0  0  0  0
    0.4766   -1.5884    2.4794 H   0  0  0  0  0  0  0  0  0  0  0  0
    1.7024   -1.5893    1.2506 H   0  0  0  0  0  0  0  0  0  0  0  0
    1.6633   -1.0404    4.0457 H   0  0  0  0  0  0  0  0  0  0  0  0
    6.5743   -0.0611    4.5671 H   0  0  0  0  0  0  0  0  0  0  0  0
    5.1603   -1.3580    2.6565 H   0  0  0  0  0  0  0  0  0  0  0  0
    4.5246   -3.9833    3.4021 H   0  0  0  0  0  0  0  0  0  0  0  0
    5.8528   -4.4341    4.1429 H   0  0  0  0  0  0  0  0  0  0  0  0
    2.3936   -4.7136    3.4984 H   0  0  0  0  0  0  0  0  0  0  0  0
    1.2874   -3.5898    2.8536 H   0  0  0  0  0  0  0  0  0  0  0  0
    2.3651   -3.9715    0.8337 H   0  0  0  0  0  0  0  0  0  0  0  0
    5.5513   -6.1516    1.3107 H   0  0  0  0  0  0  0  0  0  0  0  0
    4.6834   -6.0659   -0.8963 H   0  0  0  0  0  0  0  0  0  0  0  0
    5.1348   -1.7857   -0.7239 H   0  0  0  0  0  0  0  0  0  0  0  0
    3.7066   -1.6815    1.1558 H   0  0  0  0  0  0  0  0  0  0  0  0
    6.3766   -0.9268    1.3168 H   0  0  0  0  0  0  0  0  0  0  0  0
    6.5577   -4.4590    2.5861 H   0  0  0  0  0  0  0  0  0  0  0  0
    6.9881   -4.0678    1.0036 H   0  0  0  0  0  0  0  0  0  0  0  0
    3.8037   -1.8253   -3.4470 H   0  0  0  0  0  0  0  0  0  0  0  0
    4.0655   -3.5353   -3.8816 H   0  0  0  0  0  0  0  0  0  0  0  0
    5.3549   -2.6136   -3.1033 H   0  0  0  0  0  0  0  0  0  0  0  0
    1.8205   -2.6484   -1.2235 H   0  0  0  0  0  0  0  0  0  0  0  0
    2.0348   -4.4029   -1.3302 H   0  0  0  0  0  0  0  0  0  0  0  0
    1.8798   -3.4436   -2.7944 H   0  0  0  0  0  0  0  0  0  0  0  0
    1.5240   -2.7503    5.7969 H   0  0  0  0  0  0  0  0  0  0  0  0
    3.1054   -3.2018    7.5723 H   0  0  0  0  0  0  0  0  0  0  0  0
    3.7379   -4.1204    6.3995 H   0  0  0  0  0  0  0  0  0  0  0  0
    5.0134   -1.8452    7.6762 H   0  0  0  0  0  0  0  0  0  0  0  0
    5.7277   -2.4382    6.2750 H   0  0  0  0  0  0  0  0  0  0  0  0
    4.6456    0.4825    7.6616 H   0  0  0  0  0  0  0  0  0  0  0  0
    4.5484    1.3983    6.1681 H   0  0  0  0  0  0  0  0  0  0  0  0
    6.0001    0.4817    6.5835 H   0  0  0  0  0  0  0  0  0  0  0  0
    2.0108    1.1726    6.4673 H   0  0  0  0  0  0  0  0  0  0  0  0
    0.7590    0.0011    6.1147 H   0  0  0  0  0  0  0  0  0  0  0  0
    1.7285    0.7233    4.8900 H   0  0  0  0  0  0  0  0  0  0  0  0
    2.4190    0.1372    8.1826 H   0  0  0  0  0  0  0  0  0  0  0  0
    3.1345   -1.3526    8.4508 H   0  0  0  0  0  0  0  0  0  0  0  0
    1.4642   -1.3068    7.9604 H   0  0  0  0  0  0  0  0  0  0  0  0
  1  2  1  0
  1 33  1  0
  1 34  1  0
  1 35  1  0
  2 10  1  0
  2  3  1  0
  2 36  1  1
  3  4  2  0
  3  5  1  0
  5 28  1  0
  5  6  1  1
  5  7  1  0
  6 37  1  0
  7 19  1  0
  7  8  1  0
  7 38  1  1
  8  9  1  0
  8 10  1  0
  8 39  1  6
  9 40  1  0
 10 11  1  6
 10 25  1  0
 11 12  1  0
 11 41  1  0
 11 42  1  0
 12 18  1  0
 12 13  1  0
 12 43  1  6
 13 14  1  0
 14 21  1  0
 14 15  1  0
 14 44  1  6
 15 16  2  0
 15 45  1  0
 16 22  1  0
 16 17  1  0
 17 18  1  0
 17 22  1  0
 17 46  1  6
 18 19  1  0
 18 47  1  1
 19 20  1  6
 19 21  1  0
 20 48  1  0
 21 49  1  0
 21 50  1  0
 22 23  1  0
 22 24  1  0
 23 51  1  0
 23 52  1  0
 23 53  1  0
 24 54  1  0
 24 55  1  0
 24 56  1  0
 25 30  1  0
 25 26  1  0
 25 57  1  1
 26 27  1  0
 26 58  1  0
 26 59  1  0
 27 28  1  0
 27 60  1  0
 27 61  1  0
 28 29  1  1
 28 30  1  0
 29 62  1  0
 29 63  1  0
 29 64  1  0
 30 31  1  0
 30 32  1  0
 31 65  1  0
 31 66  1  0
 31 67  1  0
 32 68  1  0
 32 69  1  0
 32 70  1  0
M  END
>  <i_m_ct_stereo_status>  (283) 
1

>  <s_m_source_file>  (283) 
/var/tmp/pbs.5076255.sched01/tmpn8rdt6mw/90ee43ygr2.sdf

>  <i_m_source_file_index>  (283) 
30

>  <i_lp_mmshare_version>  (283) 
48012

>  <i_f3d_flags>  (283) 
1

>  <s_epik_input>  (283) 
W0NAXTEyM1tDQEhdNFtDSDJdW0NIMl1bQ0BdKFtDSDNdKShDNChbQ0gzXSlbQ0gzXSlbQ0BdKFtPSF0pKEMoPU8pW0NASF0xW0NIM10pW0NASF0oW0NASF0yW09IXSlbQ0BdNShbT0hdKVtDQEBIXTZbQ0BIXShbQ0gyXTMpT1tDQEhdKFtDSDJdNSlbQ0hdPUM3W0NIXTZDNyhbQ0gzXSlbQ0gzXQ==

>  <s_epik_cmdline>  (283) 
J2VwaWtfcHl0aG9uJywgJy1waHQnLCAnMi4wJywgJy1waCcsICc3LjAnLCAnLXRuJywgJzgnLCAnLW1hJywgJzIwMCcsICctaW1hZScsICc8aW5maWxlLm1hZT4nLCAnLW9tYWUnLCAnPG91dGZpbGUubWFlPic=

>  <r_lp_tautomer_probability>  (283) 
1

>  <r_epik_Ionization_Penalty>  (283) 
3.91552e-07

>  <r_epik_Ionization_Penalty_Charging>  (283) 
0

>  <r_epik_Ionization_Penalty_Neutral>  (283) 
3.91552e-07

>  <r_epik_State_Penalty>  (283) 
-0

>  <r_epik_Charging_Adjusted_Penalty>  (283) 
0

>  <i_epik_Tot_Q>  (283) 
0

>  <i_epik_Tot_abs_Q>  (283) 
0

>  <s_lp_Force_Field>  (283) 
OPLS3e

>  <r_lp_Energy>  (283) 
336.726

>  <b_lp_Chiralities_Consistent>  (283) 
1

>  <s_lp_Variant>  (283) 
75:0-1

>  <s_i_glide_gridfile>  (283) 
pfpi4k_grid

>  <i_i_glide_lignum>  (283) 
30

>  <i_i_glide_rotatable_bonds>  (283) 
3

>  <r_i_docking_score>  (283) 
-2.23648

>  <r_i_glide_ligand_efficiency>  (283) 
-0.06989

>  <r_i_glide_ligand_efficiency_sa>  (283) 
-0.221887

>  <r_i_glide_ligand_efficiency_ln>  (283) 
-0.500809

>  <r_i_glide_gscore>  (283) 
-2.23648

>  <r_i_glide_lipo>  (283) 
-0.574021

>  <r_i_glide_hbond>  (283) 
0

>  <r_i_glide_metal>  (283) 
-0

>  <r_i_glide_rewards>  (283) 
-0.401188

>  <r_i_glide_evdw>  (283) 
-23.1366

>  <r_i_glide_ecoul>  (283) 
-0.696269

>  <r_i_glide_erotb>  (283) 
0

>  <r_i_glide_esite>  (283) 
0

>  <r_i_glide_emodel>  (283) 
-27.9725

>  <r_i_glide_energy>  (283) 
-23.8329

>  <r_i_glide_einternal>  (283) 
0.386243

>  <r_i_glide_intrahb_reward>  (283) 
-0

>  <i_i_glide_confnum>  (283) 
1

>  <i_i_glide_posenum>  (283) 
35

>  <r_i_glide_eff_state_penalty>  (283) 
0

>  <ligand_id>  (283) 
75

>  <original_smiles>  (283) 
CC1C(=O)C2(O)C3C(O)C1(CC1OC4C=C5C(C1C3(O)C4)C5(C)C)C1CCC2(C)C1(C)C

>  <smiles>  (283) 
[H]OC1([H])C2([H])C3(O[H])C(=O)C([H])(C([H])([H])[H])C1(C([H])([H])C1([H])OC4([H])C([H])=C5C([H])(C1([H])C2(O[H])C4([H])[H])C5(C([H])([H])[H])C([H])([H])[H])C1([H])C([H])([H])C([H])([H])C3(C([H])([H])[H])C1(C([H])([H])[H])C([H])([H])[H]

$$$$
75:1:0
     RDKit          3D

 70 76  0  0  1  0  0  0  0  0999 V2000
    1.0751   -6.4831    0.9435 C   0  0  0  0  0  0  0  0  0  0  0  0
    1.6845   -7.2604    2.1418 C   0  0  2  0  0  0  0  0  0  0  0  0
    1.0914   -6.9244    3.5104 C   0  0  0  0  0  0  0  0  0  0  0  0
   -0.0018   -6.3697    3.6489 O   0  0  0  0  0  0  0  0  0  0  0  0
    2.0599   -7.2654    4.6799 C   0  0  2  0  0  0  0  0  0  0  0  0
    1.5210   -6.7434    5.8978 O   0  0  0  0  0  0  0  0  0  0  0  0
    3.4464   -6.3708    4.4556 C   0  0  2  0  0  0  0  0  0  0  0  0
    4.1177   -7.2340    3.4379 C   0  0  1  0  0  0  0  0  0  0  0  0
    5.3195   -7.7699    3.9620 O   0  0  0  0  0  0  0  0  0  0  0  0
    3.1724   -7.7995    2.2851 C   0  0  2  0  0  0  0  0  0  0  0  0
    3.9244   -7.1176    1.0818 C   0  0  0  0  0  0  0  0  0  0  0  0
    4.1314   -5.5212    1.2282 C   0  0  2  0  0  0  0  0  0  0  0  0
    5.5493   -5.2675    1.3402 O   0  0  0  0  0  0  0  0  0  0  0  0
    6.0416   -4.3723    2.3639 C   0  0  1  0  0  0  0  0  0  0  0  0
    5.7952   -2.9094    2.0626 C   0  0  0  0  0  0  0  0  0  0  0  0
    4.5499   -2.5720    1.7560 C   0  0  0  0  0  0  0  0  0  0  0  0
    3.2547   -3.2268    1.6750 C   0  0  1  0  0  0  0  0  0  0  0  0
    3.3613   -4.6352    2.3377 C   0  0  2  0  0  0  0  0  0  0  0  0
    3.9113   -4.8891    3.8409 C   0  0  1  0  0  0  0  0  0  0  0  0
    3.5076   -3.8347    4.7346 O   0  0  0  0  0  0  0  0  0  0  0  0
    5.4720   -4.6495    3.7983 C   0  0  0  0  0  0  0  0  0  0  0  0
    3.4438   -1.6727    2.0524 C   0  0  0  0  0  0  0  0  0  0  0  0
    3.1204   -1.1476    3.4397 C   0  0  0  0  0  0  0  0  0  0  0  0
    3.1710   -0.6270    0.9882 C   0  0  0  0  0  0  0  0  0  0  0  0
    2.9058   -9.4021    2.5647 C   0  0  1  0  0  0  0  0  0  0  0  0
    3.9555  -10.0372    3.5173 C   0  0  0  0  0  0  0  0  0  0  0  0
    3.4683   -9.6098    4.9720 C   0  0  0  0  0  0  0  0  0  0  0  0
    2.0540   -8.9445    4.8060 C   0  0  1  0  0  0  0  0  0  0  0  0
    1.1573   -9.3934    5.9944 C   0  0  0  0  0  0  0  0  0  0  0  0
    1.6435   -9.7951    3.5047 C   0  0  0  0  0  0  0  0  0  0  0  0
    0.1425   -9.7383    2.9799 C   0  0  0  0  0  0  0  0  0  0  0  0
    1.5790  -11.3715    3.7565 C   0  0  0  0  0  0  0  0  0  0  0  0
   -0.0057   -6.4080    1.0474 H   0  0  0  0  0  0  0  0  0  0  0  0
    1.2067   -7.0642    0.0490 H   0  0  0  0  0  0  0  0  0  0  0  0
    1.4450   -5.4875    0.7146 H   0  0  0  0  0  0  0  0  0  0  0  0
    1.2124   -8.1512    1.7712 H   0  0  0  0  0  0  0  0  0  0  0  0
    1.4633   -5.8095    5.8199 H   0  0  0  0  0  0  0  0  0  0  0  0
    2.6586   -5.6753    4.2956 H   0  0  0  0  0  0  0  0  0  0  0  0
    4.9405   -6.7529    2.9776 H   0  0  0  0  0  0  0  0  0  0  0  0
    5.0954   -8.5292    4.4733 H   0  0  0  0  0  0  0  0  0  0  0  0
    4.9034   -7.5992    0.9482 H   0  0  0  0  0  0  0  0  0  0  0  0
    3.4278   -7.2736    0.1368 H   0  0  0  0  0  0  0  0  0  0  0  0
    3.8916   -5.1365    0.2379 H   0  0  0  0  0  0  0  0  0  0  0  0
    7.1178   -4.5367    2.3592 H   0  0  0  0  0  0  0  0  0  0  0  0
    6.4999   -2.1863    2.4396 H   0  0  0  0  0  0  0  0  0  0  0  0
    2.7427   -3.3182    0.7147 H   0  0  0  0  0  0  0  0  0  0  0  0
    2.3130   -4.8520    2.4073 H   0  0  0  0  0  0  0  0  0  0  0  0
    2.5675   -3.7847    4.7515 H   0  0  0  0  0  0  0  0  0  0  0  0
    6.0301   -5.4646    4.2606 H   0  0  0  0  0  0  0  0  0  0  0  0
    5.7674   -3.8173    4.4440 H   0  0  0  0  0  0  0  0  0  0  0  0
    2.2121   -1.6271    3.8050 H   0  0  0  0  0  0  0  0  0  0  0  0
    2.9225   -0.0789    3.4176 H   0  0  0  0  0  0  0  0  0  0  0  0
    3.9366   -1.3285    4.1388 H   0  0  0  0  0  0  0  0  0  0  0  0
    2.1163   -0.3652    0.9655 H   0  0  0  0  0  0  0  0  0  0  0  0
    3.4405   -1.0206    0.0071 H   0  0  0  0  0  0  0  0  0  0  0  0
    3.7549    0.2739    1.1653 H   0  0  0  0  0  0  0  0  0  0  0  0
    2.8644   -9.9437    1.6155 H   0  0  0  0  0  0  0  0  0  0  0  0
    3.9723  -11.1190    3.4073 H   0  0  0  0  0  0  0  0  0  0  0  0
    4.9870   -9.8629    3.2305 H   0  0  0  0  0  0  0  0  0  0  0  0
    3.4115  -10.5004    5.5978 H   0  0  0  0  0  0  0  0  0  0  0  0
    4.1264   -8.9800    5.5670 H   0  0  0  0  0  0  0  0  0  0  0  0
    1.1230  -10.4756    6.1110 H   0  0  0  0  0  0  0  0  0  0  0  0
    0.1296   -9.0478    5.8797 H   0  0  0  0  0  0  0  0  0  0  0  0
    1.5404   -9.0139    6.9467 H   0  0  0  0  0  0  0  0  0  0  0  0
   -0.5624  -10.1609    3.6974 H   0  0  0  0  0  0  0  0  0  0  0  0
    0.0447  -10.3345    2.0766 H   0  0  0  0  0  0  0  0  0  0  0  0
   -0.3506   -8.8038    2.7600 H   0  0  0  0  0  0  0  0  0  0  0  0
    0.6584  -11.7134    4.2399 H   0  0  0  0  0  0  0  0  0  0  0  0
    2.3226  -11.8214    4.4105 H   0  0  0  0  0  0  0  0  0  0  0  0
    1.6474  -11.9136    2.8140 H   0  0  0  0  0  0  0  0  0  0  0  0
  1  2  1  0
  1 33  1  0
  1 34  1  0
  1 35  1  0
  2 10  1  0
  2  3  1  0
  2 36  1  6
  3  4  2  0
  3  5  1  0
  5 28  1  0
  5  6  1  1
  5  7  1  0
  6 37  1  0
  7 19  1  0
  7  8  1  0
  7 38  1  1
  8  9  1  0
  8 10  1  0
  8 39  1  6
  9 40  1  0
 10 11  1  6
 10 25  1  0
 11 12  1  0
 11 41  1  0
 11 42  1  0
 12 18  1  0
 12 13  1  0
 12 43  1  6
 13 14  1  0
 14 21  1  0
 14 15  1  0
 14 44  1  1
 15 16  2  0
 15 45  1  0
 16 22  1  0
 16 17  1  0
 17 18  1  0
 17 22  1  0
 17 46  1  6
 18 19  1  0
 18 47  1  1
 19 20  1  1
 19 21  1  0
 20 48  1  0
 21 49  1  0
 21 50  1  0
 22 23  1  0
 22 24  1  0
 23 51  1  0
 23 52  1  0
 23 53  1  0
 24 54  1  0
 24 55  1  0
 24 56  1  0
 25 30  1  0
 25 26  1  0
 25 57  1  6
 26 27  1  0
 26 58  1  0
 26 59  1  0
 27 28  1  0
 27 60  1  0
 27 61  1  0
 28 29  1  1
 28 30  1  0
 29 62  1  0
 29 63  1  0
 29 64  1  0
 30 31  1  0
 30 32  1  0
 31 65  1  0
 31 66  1  0
 31 67  1  0
 32 68  1  0
 32 69  1  0
 32 70  1  0
M  END
>  <i_m_ct_stereo_status>  (284) 
1

>  <s_m_source_file>  (284) 
/var/tmp/pbs.5076255.sched01/tmpn8rdt6mw/90ee43ygr2.sdf

>  <i_m_source_file_index>  (284) 
31

>  <i_lp_mmshare_version>  (284) 
48012

>  <i_f3d_flags>  (284) 
1

>  <s_epik_input>  (284) 
W0NAXTEyM1tDQEhdNFtDSDJdW0NIMl1bQ0BdKFtDSDNdKShDNChbQ0gzXSlbQ0gzXSlbQ0BdKFtPSF0pKEMoPU8pW0NASF0xW0NIM10pW0NASF0oW0NASF0yW09IXSlbQ0BdNShbT0hdKVtDQEBIXTZbQ0BIXShbQ0gyXTMpT1tDQEhdKFtDSDJdNSlbQ0hdPUM3W0NIXTZDNyhbQ0gzXSlbQ0gzXQ==

>  <s_epik_cmdline>  (284) 
J2VwaWtfcHl0aG9uJywgJy1waHQnLCAnMi4wJywgJy1waCcsICc3LjAnLCAnLXRuJywgJzgnLCAnLW1hJywgJzIwMCcsICctaW1hZScsICc8aW5maWxlLm1hZT4nLCAnLW9tYWUnLCAnPG91dGZpbGUubWFlPic=

>  <r_lp_tautomer_probability>  (284) 
1

>  <r_epik_Ionization_Penalty>  (284) 
3.91552e-07

>  <r_epik_Ionization_Penalty_Charging>  (284) 
0

>  <r_epik_Ionization_Penalty_Neutral>  (284) 
3.91552e-07

>  <r_epik_State_Penalty>  (284) 
-0

>  <r_epik_Charging_Adjusted_Penalty>  (284) 
0

>  <i_epik_Tot_Q>  (284) 
0

>  <i_epik_Tot_abs_Q>  (284) 
0

>  <s_lp_Force_Field>  (284) 
OPLS3e

>  <r_lp_Energy>  (284) 
339.309

>  <b_lp_Chiralities_Consistent>  (284) 
1

>  <s_lp_Variant>  (284) 
75:0-2

>  <s_i_glide_gridfile>  (284) 
pfpi4k_grid

>  <i_i_glide_lignum>  (284) 
31

>  <i_i_glide_rotatable_bonds>  (284) 
3

>  <r_i_docking_score>  (284) 
-2.3217

>  <r_i_glide_ligand_efficiency>  (284) 
-0.0725531

>  <r_i_glide_ligand_efficiency_sa>  (284) 
-0.230342

>  <r_i_glide_ligand_efficiency_ln>  (284) 
-0.519892

>  <r_i_glide_gscore>  (284) 
-2.3217

>  <r_i_glide_lipo>  (284) 
-0.370761

>  <r_i_glide_hbond>  (284) 
-0.0495095

>  <r_i_glide_metal>  (284) 
-0

>  <r_i_glide_rewards>  (284) 
-0.391448

>  <r_i_glide_evdw>  (284) 
-23.9765

>  <r_i_glide_ecoul>  (284) 
-1.94881

>  <r_i_glide_erotb>  (284) 
0

>  <r_i_glide_esite>  (284) 
-0.0188351

>  <r_i_glide_emodel>  (284) 
-28.6155

>  <r_i_glide_energy>  (284) 
-25.9253

>  <r_i_glide_einternal>  (284) 
1.71939

>  <r_i_glide_intrahb_reward>  (284) 
-0

>  <i_i_glide_confnum>  (284) 
2

>  <i_i_glide_posenum>  (284) 
1

>  <r_i_glide_eff_state_penalty>  (284) 
0

>  <ligand_id>  (284) 
75

>  <original_smiles>  (284) 
CC1C(=O)C2(O)C3C(O)C1(CC1OC4C=C5C(C1C3(O)C4)C5(C)C)C1CCC2(C)C1(C)C

>  <smiles>  (284) 
[H]OC1([H])C2([H])C3(O[H])C(=O)C([H])(C([H])([H])[H])C1(C([H])([H])C1([H])OC4([H])C([H])=C5C([H])(C1([H])C2(O[H])C4([H])[H])C5(C([H])([H])[H])C([H])([H])[H])C1([H])C([H])([H])C([H])([H])C3(C([H])([H])[H])C1(C([H])([H])[H])C([H])([H])[H]

$$$$
75:1:1
     RDKit          3D

 70 76  0  0  1  0  0  0  0  0999 V2000
    1.0671   -6.4771    1.2416 C   0  0  0  0  0  0  0  0  0  0  0  0
    1.4769   -7.2305    2.5379 C   0  0  2  0  0  0  0  0  0  0  0  0
    0.4936   -7.1358    3.7067 C   0  0  0  0  0  0  0  0  0  0  0  0
   -0.6931   -6.8361    3.5669 O   0  0  0  0  0  0  0  0  0  0  0  0
    1.1820   -7.3925    5.0815 C   0  0  2  0  0  0  0  0  0  0  0  0
    0.2428   -7.1134    6.1178 O   0  0  0  0  0  0  0  0  0  0  0  0
    2.3565   -6.2367    5.2872 C   0  0  2  0  0  0  0  0  0  0  0  0
    3.4263   -6.8557    4.4515 C   0  0  1  0  0  0  0  0  0  0  0  0
    4.5332   -7.2001    5.2655 O   0  0  0  0  0  0  0  0  0  0  0  0
    2.9518   -7.4842    3.0638 C   0  0  2  0  0  0  0  0  0  0  0  0
    3.8190   -6.5671    2.1220 C   0  0  0  0  0  0  0  0  0  0  0  0
    3.6615   -4.9684    2.4093 C   0  0  2  0  0  0  0  0  0  0  0  0
    4.9144   -4.4534    2.9430 O   0  0  0  0  0  0  0  0  0  0  0  0
    4.9238   -3.5756    4.1053 C   0  0  1  0  0  0  0  0  0  0  0  0
    4.4646   -2.1679    3.8022 C   0  0  0  0  0  0  0  0  0  0  0  0
    3.3010   -2.0526    3.1735 C   0  0  0  0  0  0  0  0  0  0  0  0
    2.2423   -2.9321    2.7002 C   0  0  1  0  0  0  0  0  0  0  0  0
    2.4624   -4.3548    3.3015 C   0  0  2  0  0  0  0  0  0  0  0  0
    2.6412   -4.6413    4.8840 C   0  0  1  0  0  0  0  0  0  0  0  0
    1.7969   -3.7767    5.6583 O   0  0  0  0  0  0  0  0  0  0  0  0
    4.0738   -4.1090    5.3014 C   0  0  0  0  0  0  0  0  0  0  0  0
    1.9823   -1.4218    3.1757 C   0  0  0  0  0  0  0  0  0  0  0  0
    1.2081   -1.1039    4.4432 C   0  0  0  0  0  0  0  0  0  0  0  0
    1.7739   -0.3536    2.1144 C   0  0  0  0  0  0  0  0  0  0  0  0
    2.9603   -9.1248    3.1958 C   0  0  1  0  0  0  0  0  0  0  0  0
    3.8386   -9.6358    4.3711 C   0  0  0  0  0  0  0  0  0  0  0  0
    2.9154   -9.4519    5.6552 C   0  0  0  0  0  0  0  0  0  0  0  0
    1.4890   -9.0493    5.1400 C   0  0  1  0  0  0  0  0  0  0  0  0
    0.4290   -9.7639    6.0230 C   0  0  0  0  0  0  0  0  0  0  0  0
    1.6102   -9.8357    3.7443 C   0  0  0  0  0  0  0  0  0  0  0  0
    0.3134  -10.0149    2.8433 C   0  0  0  0  0  0  0  0  0  0  0  0
    1.8179  -11.4147    3.8882 C   0  0  0  0  0  0  0  0  0  0  0  0
    0.0063   -6.6245    1.0362 H   0  0  0  0  0  0  0  0  0  0  0  0
    1.5724   -6.8914    0.3770 H   0  0  0  0  0  0  0  0  0  0  0  0
    1.2658   -5.4147    1.1951 H   0  0  0  0  0  0  0  0  0  0  0  0
    1.3032   -8.1561    2.0216 H   0  0  0  0  0  0  0  0  0  0  0  0
   -0.4326   -7.7700    6.0566 H   0  0  0  0  0  0  0  0  0  0  0  0
    1.4998   -5.6990    4.9592 H   0  0  0  0  0  0  0  0  0  0  0  0
    4.2201   -6.1869    4.2474 H   0  0  0  0  0  0  0  0  0  0  0  0
    4.3344   -8.0191    5.6879 H   0  0  0  0  0  0  0  0  0  0  0  0
    4.8749   -6.8392    2.2337 H   0  0  0  0  0  0  0  0  0  0  0  0
    3.6224   -6.7810    1.0717 H   0  0  0  0  0  0  0  0  0  0  0  0
    3.6079   -4.5371    1.4101 H   0  0  0  0  0  0  0  0  0  0  0  0
    5.9566   -3.4934    4.4298 H   0  0  0  0  0  0  0  0  0  0  0  0
    4.8836   -1.3659    4.3898 H   0  0  0  0  0  0  0  0  0  0  0  0
    2.0286   -3.0274    1.6358 H   0  0  0  0  0  0  0  0  0  0  0  0
    1.4994   -4.7724    3.0807 H   0  0  0  0  0  0  0  0  0  0  0  0
    2.0266   -3.8997    6.5669 H   0  0  0  0  0  0  0  0  0  0  0  0
    4.6611   -4.8475    5.8502 H   0  0  0  0  0  0  0  0  0  0  0  0
    4.0135   -3.3042    6.0373 H   0  0  0  0  0  0  0  0  0  0  0  0
    0.3620   -1.7866    4.5272 H   0  0  0  0  0  0  0  0  0  0  0  0
    0.8024   -0.0949    4.4143 H   0  0  0  0  0  0  0  0  0  0  0  0
    1.8365   -1.1936    5.3299 H   0  0  0  0  0  0  0  0  0  0  0  0
    0.7306   -0.3042    1.8087 H   0  0  0  0  0  0  0  0  0  0  0  0
    2.3708   -0.5880    1.2324 H   0  0  0  0  0  0  0  0  0  0  0  0
    2.0861    0.6235    2.4799 H   0  0  0  0  0  0  0  0  0  0  0  0
    3.2745   -9.5715    2.2477 H   0  0  0  0  0  0  0  0  0  0  0  0
    4.1099  -10.6783    4.2266 H   0  0  0  0  0  0  0  0  0  0  0  0
    4.8478   -9.2385    4.3842 H   0  0  0  0  0  0  0  0  0  0  0  0
    2.8831  -10.3962    6.2005 H   0  0  0  0  0  0  0  0  0  0  0  0
    3.2529   -8.7724    6.4334 H   0  0  0  0  0  0  0  0  0  0  0  0
    0.5753  -10.8421    6.0685 H   0  0  0  0  0  0  0  0  0  0  0  0
   -0.5821   -9.5936    5.6524 H   0  0  0  0  0  0  0  0  0  0  0  0
    0.4778   -9.4355    7.0629 H   0  0  0  0  0  0  0  0  0  0  0  0
   -0.4439  -10.6301    3.3286 H   0  0  0  0  0  0  0  0  0  0  0  0
    0.5797  -10.5203    1.9160 H   0  0  0  0  0  0  0  0  0  0  0  0
   -0.2907   -9.1749    2.5338 H   0  0  0  0  0  0  0  0  0  0  0  0
    0.9000  -11.9737    4.0855 H   0  0  0  0  0  0  0  0  0  0  0  0
    2.4438  -11.7799    4.6983 H   0  0  0  0  0  0  0  0  0  0  0  0
    2.2353  -11.8312    2.9683 H   0  0  0  0  0  0  0  0  0  0  0  0
  1  2  1  0
  1 33  1  0
  1 34  1  0
  1 35  1  0
  2 10  1  0
  2  3  1  0
  2 36  1  6
  3  4  2  0
  3  5  1  0
  5 28  1  0
  5  6  1  1
  5  7  1  0
  6 37  1  0
  7 19  1  0
  7  8  1  0
  7 38  1  1
  8  9  1  0
  8 10  1  0
  8 39  1  6
  9 40  1  0
 10 11  1  6
 10 25  1  0
 11 12  1  0
 11 41  1  0
 11 42  1  0
 12 18  1  0
 12 13  1  0
 12 43  1  6
 13 14  1  0
 14 21  1  0
 14 15  1  0
 14 44  1  1
 15 16  2  0
 15 45  1  0
 16 22  1  0
 16 17  1  0
 17 18  1  0
 17 22  1  0
 17 46  1  6
 18 19  1  0
 18 47  1  6
 19 20  1  1
 19 21  1  0
 20 48  1  0
 21 49  1  0
 21 50  1  0
 22 23  1  0
 22 24  1  0
 23 51  1  0
 23 52  1  0
 23 53  1  0
 24 54  1  0
 24 55  1  0
 24 56  1  0
 25 30  1  0
 25 26  1  0
 25 57  1  6
 26 27  1  0
 26 58  1  0
 26 59  1  0
 27 28  1  0
 27 60  1  0
 27 61  1  0
 28 29  1  1
 28 30  1  0
 29 62  1  0
 29 63  1  0
 29 64  1  0
 30 31  1  0
 30 32  1  0
 31 65  1  0
 31 66  1  0
 31 67  1  0
 32 68  1  0
 32 69  1  0
 32 70  1  0
M  END
>  <i_m_ct_stereo_status>  (285) 
1

>  <s_m_source_file>  (285) 
/var/tmp/pbs.5076255.sched01/tmpn8rdt6mw/90ee43ygr2.sdf

>  <i_m_source_file_index>  (285) 
31

>  <i_lp_mmshare_version>  (285) 
48012

>  <i_f3d_flags>  (285) 
1

>  <s_epik_input>  (285) 
W0NAXTEyM1tDQEhdNFtDSDJdW0NIMl1bQ0BdKFtDSDNdKShDNChbQ0gzXSlbQ0gzXSlbQ0BdKFtPSF0pKEMoPU8pW0NASF0xW0NIM10pW0NASF0oW0NASF0yW09IXSlbQ0BdNShbT0hdKVtDQEBIXTZbQ0BIXShbQ0gyXTMpT1tDQEhdKFtDSDJdNSlbQ0hdPUM3W0NIXTZDNyhbQ0gzXSlbQ0gzXQ==

>  <s_epik_cmdline>  (285) 
J2VwaWtfcHl0aG9uJywgJy1waHQnLCAnMi4wJywgJy1waCcsICc3LjAnLCAnLXRuJywgJzgnLCAnLW1hJywgJzIwMCcsICctaW1hZScsICc8aW5maWxlLm1hZT4nLCAnLW9tYWUnLCAnPG91dGZpbGUubWFlPic=

>  <r_lp_tautomer_probability>  (285) 
1

>  <r_epik_Ionization_Penalty>  (285) 
3.91552e-07

>  <r_epik_Ionization_Penalty_Charging>  (285) 
0

>  <r_epik_Ionization_Penalty_Neutral>  (285) 
3.91552e-07

>  <r_epik_State_Penalty>  (285) 
-0

>  <r_epik_Charging_Adjusted_Penalty>  (285) 
0

>  <i_epik_Tot_Q>  (285) 
0

>  <i_epik_Tot_abs_Q>  (285) 
0

>  <s_lp_Force_Field>  (285) 
OPLS3e

>  <r_lp_Energy>  (285) 
339.309

>  <b_lp_Chiralities_Consistent>  (285) 
1

>  <s_lp_Variant>  (285) 
75:0-2

>  <s_i_glide_gridfile>  (285) 
pfpi4k_grid

>  <i_i_glide_lignum>  (285) 
31

>  <i_i_glide_rotatable_bonds>  (285) 
3

>  <r_i_docking_score>  (285) 
-2.2788

>  <r_i_glide_ligand_efficiency>  (285) 
-0.0712124

>  <r_i_glide_ligand_efficiency_sa>  (285) 
-0.226085

>  <r_i_glide_ligand_efficiency_ln>  (285) 
-0.510284

>  <r_i_glide_gscore>  (285) 
-2.2788

>  <r_i_glide_lipo>  (285) 
-0.158522

>  <r_i_glide_hbond>  (285) 
-0.0957224

>  <r_i_glide_metal>  (285) 
-0

>  <r_i_glide_rewards>  (285) 
-0.391448

>  <r_i_glide_evdw>  (285) 
-26.0744

>  <r_i_glide_ecoul>  (285) 
-1.99167

>  <r_i_glide_erotb>  (285) 
0

>  <r_i_glide_esite>  (285) 
-0.0306345

>  <r_i_glide_emodel>  (285) 
-30.8763

>  <r_i_glide_energy>  (285) 
-28.066

>  <r_i_glide_einternal>  (285) 
1.75127

>  <r_i_glide_intrahb_reward>  (285) 
-0

>  <i_i_glide_confnum>  (285) 
2

>  <i_i_glide_posenum>  (285) 
33

>  <r_i_glide_eff_state_penalty>  (285) 
0

>  <ligand_id>  (285) 
75

>  <original_smiles>  (285) 
CC1C(=O)C2(O)C3C(O)C1(CC1OC4C=C5C(C1C3(O)C4)C5(C)C)C1CCC2(C)C1(C)C

>  <smiles>  (285) 
[H]OC1([H])C2([H])C3(O[H])C(=O)C([H])(C([H])([H])[H])C1(C([H])([H])C1([H])OC4([H])C([H])=C5C([H])(C1([H])C2(O[H])C4([H])[H])C5(C([H])([H])[H])C([H])([H])[H])C1([H])C([H])([H])C([H])([H])C3(C([H])([H])[H])C1(C([H])([H])[H])C([H])([H])[H]

$$$$
75:1:2
     RDKit          3D

 70 76  0  0  1  0  0  0  0  0999 V2000
    1.0834   -7.2796    1.3823 C   0  0  0  0  0  0  0  0  0  0  0  0
    1.7889   -7.2903    2.7758 C   0  0  2  0  0  0  0  0  0  0  0  0
    1.3389   -6.2198    3.7708 C   0  0  0  0  0  0  0  0  0  0  0  0
    0.2436   -5.6618    3.6942 O   0  0  0  0  0  0  0  0  0  0  0  0
    2.4099   -5.9111    4.8581 C   0  0  2  0  0  0  0  0  0  0  0  0
    1.9889   -4.7667    5.6040 O   0  0  0  0  0  0  0  0  0  0  0  0
    3.7854   -5.3902    4.0806 C   0  0  2  0  0  0  0  0  0  0  0  0
    4.3309   -6.7193    3.6701 C   0  0  1  0  0  0  0  0  0  0  0  0
    5.5697   -6.9520    4.3211 O   0  0  0  0  0  0  0  0  0  0  0  0
    3.2678   -7.7629    3.0988 C   0  0  2  0  0  0  0  0  0  0  0  0
    3.8893   -7.9263    1.6619 C   0  0  0  0  0  0  0  0  0  0  0  0
    4.1694   -6.5163    0.8881 C   0  0  2  0  0  0  0  0  0  0  0  0
    5.6054   -6.3277    0.7602 O   0  0  0  0  0  0  0  0  0  0  0  0
    6.2217   -5.0466    1.0679 C   0  0  1  0  0  0  0  0  0  0  0  0
    5.9697   -3.9849    0.0238 C   0  0  0  0  0  0  0  0  0  0  0  0
    4.7025   -3.7921   -0.3266 C   0  0  0  0  0  0  0  0  0  0  0  0
    3.3891   -4.2939    0.0533 C   0  0  1  0  0  0  0  0  0  0  0  0
    3.5314   -5.1120    1.3714 C   0  0  2  0  0  0  0  0  0  0  0  0
    4.2224   -4.5322    2.7160 C   0  0  1  0  0  0  0  0  0  0  0  0
    3.9289   -3.1353    2.8897 O   0  0  0  0  0  0  0  0  0  0  0  0
    5.7815   -4.4628    2.4481 C   0  0  0  0  0  0  0  0  0  0  0  0
    3.6373   -2.8122   -0.5122 C   0  0  0  0  0  0  0  0  0  0  0  0
    3.4649   -1.5856    0.3697 C   0  0  0  0  0  0  0  0  0  0  0  0
    3.2730   -2.5210   -1.9590 C   0  0  0  0  0  0  0  0  0  0  0  0
    2.9914   -8.9137    4.2427 C   0  0  1  0  0  0  0  0  0  0  0  0
    4.1153   -8.9943    5.3119 C   0  0  0  0  0  0  0  0  0  0  0  0
    3.7865   -7.8029    6.3123 C   0  0  0  0  0  0  0  0  0  0  0  0
    2.3798   -7.2332    5.9064 C   0  0  1  0  0  0  0  0  0  0  0  0
    1.5999   -6.8837    7.2081 C   0  0  0  0  0  0  0  0  0  0  0  0
    1.8199   -8.6256    5.3274 C   0  0  0  0  0  0  0  0  0  0  0  0
    0.2734   -8.7635    4.9710 C   0  0  0  0  0  0  0  0  0  0  0  0
    1.7506   -9.7952    6.4063 C   0  0  0  0  0  0  0  0  0  0  0  0
    0.0151   -7.1006    1.5039 H   0  0  0  0  0  0  0  0  0  0  0  0
    1.1436   -8.2554    0.9114 H   0  0  0  0  0  0  0  0  0  0  0  0
    1.4252   -6.5721    0.6341 H   0  0  0  0  0  0  0  0  0  0  0  0
    1.2538   -8.1923    3.0086 H   0  0  0  0  0  0  0  0  0  0  0  0
    2.6346   -4.5896    6.2674 H   0  0  0  0  0  0  0  0  0  0  0  0
    2.9965   -4.8398    3.6267 H   0  0  0  0  0  0  0  0  0  0  0  0
    5.1082   -6.6395    2.9563 H   0  0  0  0  0  0  0  0  0  0  0  0
    6.0002   -7.6721    3.8885 H   0  0  0  0  0  0  0  0  0  0  0  0
    4.8330   -8.4763    1.7418 H   0  0  0  0  0  0  0  0  0  0  0  0
    3.2813   -8.5841    1.0408 H   0  0  0  0  0  0  0  0  0  0  0  0
    3.8458   -6.7105   -0.1343 H   0  0  0  0  0  0  0  0  0  0  0  0
    7.2974   -5.2135    1.0711 H   0  0  0  0  0  0  0  0  0  0  0  0
    6.7239   -3.2261   -0.1154 H   0  0  0  0  0  0  0  0  0  0  0  0
    2.7803   -4.8567   -0.6547 H   0  0  0  0  0  0  0  0  0  0  0  0
    2.4904   -5.1819    1.6234 H   0  0  0  0  0  0  0  0  0  0  0  0
    2.9964   -3.0216    2.9507 H   0  0  0  0  0  0  0  0  0  0  0  0
    6.3597   -4.9356    3.2418 H   0  0  0  0  0  0  0  0  0  0  0  0
    6.1534   -3.4366    2.4929 H   0  0  0  0  0  0  0  0  0  0  0  0
    2.5856   -1.7183    1.0005 H   0  0  0  0  0  0  0  0  0  0  0  0
    3.2822   -0.6935   -0.2278 H   0  0  0  0  0  0  0  0  0  0  0  0
    4.3398   -1.4071    0.9939 H   0  0  0  0  0  0  0  0  0  0  0  0
    2.2217   -2.2507   -2.0461 H   0  0  0  0  0  0  0  0  0  0  0  0
    3.4432   -3.4086   -2.5699 H   0  0  0  0  0  0  0  0  0  0  0  0
    3.8813   -1.7105   -2.3579 H   0  0  0  0  0  0  0  0  0  0  0  0
    2.8390   -9.8839    3.7625 H   0  0  0  0  0  0  0  0  0  0  0  0
    4.1024   -9.9541    5.8213 H   0  0  0  0  0  0  0  0  0  0  0  0
    5.1188   -9.0751    4.9118 H   0  0  0  0  0  0  0  0  0  0  0  0
    3.7818   -8.1910    7.3309 H   0  0  0  0  0  0  0  0  0  0  0  0
    4.5239   -7.0095    6.3930 H   0  0  0  0  0  0  0  0  0  0  0  0
    1.5539   -7.7149    7.9105 H   0  0  0  0  0  0  0  0  0  0  0  0
    0.5730   -6.5873    6.9937 H   0  0  0  0  0  0  0  0  0  0  0  0
    2.0806   -6.0726    7.7596 H   0  0  0  0  0  0  0  0  0  0  0  0
   -0.3625   -8.6751    5.8525 H   0  0  0  0  0  0  0  0  0  0  0  0
    0.0732   -9.7471    4.5458 H   0  0  0  0  0  0  0  0  0  0  0  0
   -0.2222   -8.0714    4.3081 H   0  0  0  0  0  0  0  0  0  0  0  0
    0.8772   -9.7611    7.0613 H   0  0  0  0  0  0  0  0  0  0  0  0
    2.5455   -9.8721    7.1438 H   0  0  0  0  0  0  0  0  0  0  0  0
    1.7135  -10.7618    5.9017 H   0  0  0  0  0  0  0  0  0  0  0  0
  1  2  1  0
  1 33  1  0
  1 34  1  0
  1 35  1  0
  2 10  1  0
  2  3  1  0
  2 36  1  1
  3  4  2  0
  3  5  1  0
  5 28  1  0
  5  6  1  1
  5  7  1  0
  6 37  1  0
  7 19  1  0
  7  8  1  0
  7 38  1  1
  8  9  1  0
  8 10  1  0
  8 39  1  6
  9 40  1  0
 10 11  1  6
 10 25  1  0
 11 12  1  0
 11 41  1  0
 11 42  1  0
 12 18  1  0
 12 13  1  0
 12 43  1  6
 13 14  1  0
 14 21  1  0
 14 15  1  0
 14 44  1  1
 15 16  2  0
 15 45  1  0
 16 22  1  0
 16 17  1  0
 17 18  1  0
 17 22  1  0
 17 46  1  6
 18 19  1  0
 18 47  1  1
 19 20  1  1
 19 21  1  0
 20 48  1  0
 21 49  1  0
 21 50  1  0
 22 23  1  0
 22 24  1  0
 23 51  1  0
 23 52  1  0
 23 53  1  0
 24 54  1  0
 24 55  1  0
 24 56  1  0
 25 30  1  0
 25 26  1  0
 25 57  1  6
 26 27  1  0
 26 58  1  0
 26 59  1  0
 27 28  1  0
 27 60  1  0
 27 61  1  0
 28 29  1  1
 28 30  1  0
 29 62  1  0
 29 63  1  0
 29 64  1  0
 30 31  1  0
 30 32  1  0
 31 65  1  0
 31 66  1  0
 31 67  1  0
 32 68  1  0
 32 69  1  0
 32 70  1  0
M  END
>  <i_m_ct_stereo_status>  (286) 
1

>  <s_m_source_file>  (286) 
/var/tmp/pbs.5076255.sched01/tmpn8rdt6mw/90ee43ygr2.sdf

>  <i_m_source_file_index>  (286) 
31

>  <i_lp_mmshare_version>  (286) 
48012

>  <i_f3d_flags>  (286) 
1

>  <s_epik_input>  (286) 
W0NAXTEyM1tDQEhdNFtDSDJdW0NIMl1bQ0BdKFtDSDNdKShDNChbQ0gzXSlbQ0gzXSlbQ0BdKFtPSF0pKEMoPU8pW0NASF0xW0NIM10pW0NASF0oW0NASF0yW09IXSlbQ0BdNShbT0hdKVtDQEBIXTZbQ0BIXShbQ0gyXTMpT1tDQEhdKFtDSDJdNSlbQ0hdPUM3W0NIXTZDNyhbQ0gzXSlbQ0gzXQ==

>  <s_epik_cmdline>  (286) 
J2VwaWtfcHl0aG9uJywgJy1waHQnLCAnMi4wJywgJy1waCcsICc3LjAnLCAnLXRuJywgJzgnLCAnLW1hJywgJzIwMCcsICctaW1hZScsICc8aW5maWxlLm1hZT4nLCAnLW9tYWUnLCAnPG91dGZpbGUubWFlPic=

>  <r_lp_tautomer_probability>  (286) 
1

>  <r_epik_Ionization_Penalty>  (286) 
3.91552e-07

>  <r_epik_Ionization_Penalty_Charging>  (286) 
0

>  <r_epik_Ionization_Penalty_Neutral>  (286) 
3.91552e-07

>  <r_epik_State_Penalty>  (286) 
-0

>  <r_epik_Charging_Adjusted_Penalty>  (286) 
0

>  <i_epik_Tot_Q>  (286) 
0

>  <i_epik_Tot_abs_Q>  (286) 
0

>  <s_lp_Force_Field>  (286) 
OPLS3e

>  <r_lp_Energy>  (286) 
339.309

>  <b_lp_Chiralities_Consistent>  (286) 
1

>  <s_lp_Variant>  (286) 
75:0-2

>  <s_i_glide_gridfile>  (286) 
pfpi4k_grid

>  <i_i_glide_lignum>  (286) 
31

>  <i_i_glide_rotatable_bonds>  (286) 
3

>  <r_i_docking_score>  (286) 
-2.2245

>  <r_i_glide_ligand_efficiency>  (286) 
-0.0695155

>  <r_i_glide_ligand_efficiency_sa>  (286) 
-0.220698

>  <r_i_glide_ligand_efficiency_ln>  (286) 
-0.498125

>  <r_i_glide_gscore>  (286) 
-2.2245

>  <r_i_glide_lipo>  (286) 
-0.340583

>  <r_i_glide_hbond>  (286) 
-0.0354859

>  <r_i_glide_metal>  (286) 
-0

>  <r_i_glide_rewards>  (286) 
-0.391448

>  <r_i_glide_evdw>  (286) 
-25.5173

>  <r_i_glide_ecoul>  (286) 
-1.12193

>  <r_i_glide_erotb>  (286) 
0

>  <r_i_glide_esite>  (286) 
-0.0128262

>  <r_i_glide_emodel>  (286) 
-30.0577

>  <r_i_glide_energy>  (286) 
-26.6392

>  <r_i_glide_einternal>  (286) 
0.352266

>  <r_i_glide_intrahb_reward>  (286) 
-0

>  <i_i_glide_confnum>  (286) 
2

>  <i_i_glide_posenum>  (286) 
16

>  <r_i_glide_eff_state_penalty>  (286) 
0

>  <ligand_id>  (286) 
75

>  <original_smiles>  (286) 
CC1C(=O)C2(O)C3C(O)C1(CC1OC4C=C5C(C1C3(O)C4)C5(C)C)C1CCC2(C)C1(C)C

>  <smiles>  (286) 
[H]OC1([H])C2([H])C3(O[H])C(=O)C([H])(C([H])([H])[H])C1(C([H])([H])C1([H])OC4([H])C([H])=C5C([H])(C1([H])C2(O[H])C4([H])[H])C5(C([H])([H])[H])C([H])([H])[H])C1([H])C([H])([H])C([H])([H])C3(C([H])([H])[H])C1(C([H])([H])[H])C([H])([H])[H]

$$$$
76:1:0
     RDKit          3D

 35 37  0  0  1  0  0  0  0  0999 V2000
   -4.6976  -11.8359   -5.8526 C   0  0  0  0  0  0  0  0  0  0  0  0
   -4.5412  -10.9710   -7.0505 N   0  0  0  0  0  0  0  0  0  0  0  0
   -5.0986   -9.5931   -6.9592 C   0  0  2  0  0  0  0  0  0  0  0  0
   -4.5578   -8.8307   -5.7224 C   0  0  0  0  0  0  0  0  0  0  0  0
   -5.1212   -7.4179   -5.6121 C   0  0  0  0  0  0  0  0  0  0  0  0
   -6.6656   -7.4262   -5.6411 C   0  0  1  0  0  0  0  0  0  0  0  0
   -7.2146   -6.0580   -5.6107 N   0  0  0  0  0  0  0  0  0  0  0  0
   -6.7993   -5.1049   -4.7357 C   0  0  0  0  0  0  0  0  0  0  0  0
   -7.5437   -3.9860   -4.9495 N   0  0  0  0  0  0  0  0  0  0  0  0
   -8.4267   -4.2991   -5.9352 C   0  0  0  0  0  0  0  0  0  0  0  0
   -9.4711   -3.5327   -6.5359 C   0  0  0  0  0  0  0  0  0  0  0  0
  -10.1055   -4.3841   -7.4393 C   0  0  0  0  0  0  0  0  0  0  0  0
   -9.3269   -5.9648   -7.6250 S   0  0  0  0  0  0  0  0  0  0  0  0
   -8.2431   -5.5424   -6.3598 C   0  0  0  0  0  0  0  0  0  0  0  0
   -7.1964   -8.2197   -6.8627 C   0  0  0  0  0  0  0  0  0  0  0  0
   -6.6298   -9.6239   -6.9709 C   0  0  0  0  0  0  0  0  0  0  0  0
   -4.3417  -12.8538   -6.0662 H   0  0  0  0  0  0  0  0  0  0  0  0
   -5.7492  -11.8950   -5.5472 H   0  0  0  0  0  0  0  0  0  0  0  0
   -4.1040  -11.4358   -5.0214 H   0  0  0  0  0  0  0  0  0  0  0  0
   -3.5502  -10.8933   -7.2374 H   0  0  0  0  0  0  0  0  0  0  0  0
   -4.8150   -9.0412   -7.8637 H   0  0  0  0  0  0  0  0  0  0  0  0
   -4.8153   -9.3217   -4.7843 H   0  0  0  0  0  0  0  0  0  0  0  0
   -3.4748   -8.7535   -5.7551 H   0  0  0  0  0  0  0  0  0  0  0  0
   -4.7381   -6.9791   -4.6899 H   0  0  0  0  0  0  0  0  0  0  0  0
   -4.7514   -6.8166   -6.4316 H   0  0  0  0  0  0  0  0  0  0  0  0
   -7.0353   -7.8856   -4.7178 H   0  0  0  0  0  0  0  0  0  0  0  0
   -6.0139   -5.1923   -4.0030 H   0  0  0  0  0  0  0  0  0  0  0  0
   -9.6971   -2.4995   -6.2537 H   0  0  0  0  0  0  0  0  0  0  0  0
  -11.0002   -4.2457   -8.0272 H   0  0  0  0  0  0  0  0  0  0  0  0
   -8.2749   -8.3597   -6.7800 H   0  0  0  0  0  0  0  0  0  0  0  0
   -6.9794   -7.6625   -7.7803 H   0  0  0  0  0  0  0  0  0  0  0  0
   -7.0014  -10.0628   -7.8961 H   0  0  0  0  0  0  0  0  0  0  0  0
   -7.0472  -10.1946   -6.1439 H   0  0  0  0  0  0  0  0  0  0  0  0
   -4.9737  -11.4268   -7.8431 H   0  0  0  0  0  0  0  0  0  0  0  0
   -7.4444   -3.0837   -4.4763 H   0  0  0  0  0  0  0  0  0  0  0  0
  1  2  1  0
  1 17  1  0
  1 18  1  0
  1 19  1  0
  2  3  1  0
  2 20  1  0
  2 34  1  0
  3 16  1  0
  3  4  1  0
  3 21  1  6
  4  5  1  0
  4 22  1  0
  4 23  1  0
  5  6  1  0
  5 24  1  0
  5 25  1  0
  6  7  1  0
  6 15  1  0
  6 26  1  1
  7 14  1  0
  7  8  1  0
  8  9  2  0
  8 27  1  0
  9 10  1  0
  9 35  1  0
 10 14  2  0
 10 11  1  0
 11 12  2  0
 11 28  1  0
 12 13  1  0
 12 29  1  0
 13 14  1  0
 15 16  1  0
 15 30  1  0
 15 31  1  0
 16 32  1  0
 16 33  1  0
M  CHG  2   2   1   9   1
M  END
>  <i_m_ct_stereo_status>  (287) 
1

>  <s_m_source_file>  (287) 
/var/tmp/pbs.5076255.sched01/tmpn8rdt6mw/90ee43ygr2.sdf

>  <i_m_source_file_index>  (287) 
33

>  <i_lp_mmshare_version>  (287) 
48012

>  <i_f3d_flags>  (287) 
0

>  <s_epik_input>  (287) 
W0NIM11bTkhdW0NAQEhdMVtDSDJdW0NIMl1bQ0BIXShbQ0gyXVtDSDJdMSluKFtjSF1uMiljKGMyMylzW2NIXVtjSF0z

>  <s_epik_cmdline>  (287) 
J2VwaWtfcHl0aG9uJywgJy1waHQnLCAnMi4wJywgJy1waCcsICc3LjAnLCAnLXRuJywgJzgnLCAnLW1hJywgJzIwMCcsICctaW1hZScsICc8aW5maWxlLm1hZT4nLCAnLW9tYWUnLCAnPG91dGZpbGUubWFlPic=

>  <r_epik_Ionization_Penalty>  (287) 
0.755089

>  <r_epik_Ionization_Penalty_Charging>  (287) 
0.000318716

>  <r_epik_Ionization_Penalty_Neutral>  (287) 
0.75477

>  <r_epik_State_Penalty>  (287) 
0.782082

>  <r_epik_Charging_Adjusted_Penalty>  (287) 
0.782401

>  <i_epik_Tot_Q>  (287) 
2

>  <i_epik_Tot_abs_Q>  (287) 
2

>  <s_lp_Force_Field>  (287) 
OPLS3e

>  <r_lp_Energy>  (287) 
15.3588

>  <b_lp_Chiralities_Consistent>  (287) 
1

>  <s_lp_Variant>  (287) 
76:0-2

>  <s_i_glide_gridfile>  (287) 
pfpi4k_grid

>  <i_i_glide_lignum>  (287) 
33

>  <i_i_glide_rotatable_bonds>  (287) 
2

>  <r_i_docking_score>  (287) 
-6.0434

>  <r_i_glide_ligand_efficiency>  (287) 
-0.377713

>  <r_i_glide_ligand_efficiency_sa>  (287) 
-0.951776

>  <r_i_glide_ligand_efficiency_ln>  (287) 
-1.60192

>  <r_i_glide_gscore>  (287) 
-6.0434

>  <r_i_glide_lipo>  (287) 
-2.27754

>  <r_i_glide_hbond>  (287) 
0

>  <r_i_glide_metal>  (287) 
-0

>  <r_i_glide_rewards>  (287) 
-2.82461

>  <r_i_glide_evdw>  (287) 
-22.881

>  <r_i_glide_ecoul>  (287) 
-0.687686

>  <r_i_glide_erotb>  (287) 
0.305948

>  <r_i_glide_esite>  (287) 
0

>  <r_i_glide_emodel>  (287) 
-28.5713

>  <r_i_glide_energy>  (287) 
-23.5687

>  <r_i_glide_einternal>  (287) 
5.62321

>  <r_i_glide_intrahb_reward>  (287) 
-0

>  <i_i_glide_confnum>  (287) 
1

>  <i_i_glide_posenum>  (287) 
3

>  <r_i_glide_eff_state_penalty>  (287) 
0

>  <ligand_id>  (287) 
76

>  <original_smiles>  (287) 
CNC1CCC(n2cnc3ccsc32)CC1

>  <smiles>  (287) 
[H]c1sc2c(c1[H])[n+]([H])c([H])n2C1([H])C([H])([H])C([H])([H])C([H])([N+]([H])([H])C([H])([H])[H])C([H])([H])C1([H])[H]

$$$$
76:1:1
     RDKit          3D

 35 37  0  0  1  0  0  0  0  0999 V2000
   -3.9043  -11.4577   -6.5265 C   0  0  0  0  0  0  0  0  0  0  0  0
   -3.8463  -10.3723   -5.5128 N   0  0  0  0  0  0  0  0  0  0  0  0
   -4.6174   -9.1547   -5.8513 C   0  0  2  0  0  0  0  0  0  0  0  0
   -4.4410   -8.0931   -4.7595 C   0  0  0  0  0  0  0  0  0  0  0  0
   -5.2455   -6.8187   -5.0363 C   0  0  0  0  0  0  0  0  0  0  0  0
   -6.7381   -7.1155   -5.2603 C   0  0  1  0  0  0  0  0  0  0  0  0
   -7.4775   -5.9138   -5.6218 N   0  0  0  0  0  0  0  0  0  0  0  0
   -7.4349   -4.7502   -4.8964 C   0  0  0  0  0  0  0  0  0  0  0  0
   -8.2758   -3.8670   -5.4845 N   0  0  0  0  0  0  0  0  0  0  0  0
   -8.8485   -4.5129   -6.5422 C   0  0  0  0  0  0  0  0  0  0  0  0
   -9.7928   -4.0854   -7.4890 C   0  0  0  0  0  0  0  0  0  0  0  0
  -10.0573   -5.1520   -8.3419 C   0  0  0  0  0  0  0  0  0  0  0  0
   -9.1043   -6.6020   -7.9745 S   0  0  0  0  0  0  0  0  0  0  0  0
   -8.3927   -5.7493   -6.6531 C   0  0  0  0  0  0  0  0  0  0  0  0
   -6.8950   -8.2091   -6.3389 C   0  0  0  0  0  0  0  0  0  0  0  0
   -6.1018   -9.4576   -6.0588 C   0  0  0  0  0  0  0  0  0  0  0  0
   -3.2311  -12.2711   -6.2465 H   0  0  0  0  0  0  0  0  0  0  0  0
   -3.6141  -11.0769   -7.5059 H   0  0  0  0  0  0  0  0  0  0  0  0
   -4.9070  -11.8776   -6.6009 H   0  0  0  0  0  0  0  0  0  0  0  0
   -4.1658  -10.7331   -4.6191 H   0  0  0  0  0  0  0  0  0  0  0  0
   -4.2179   -8.7212   -6.7593 H   0  0  0  0  0  0  0  0  0  0  0  0
   -4.7359   -8.5278   -3.8070 H   0  0  0  0  0  0  0  0  0  0  0  0
   -3.3884   -7.8257   -4.7195 H   0  0  0  0  0  0  0  0  0  0  0  0
   -5.1159   -6.1334   -4.1974 H   0  0  0  0  0  0  0  0  0  0  0  0
   -4.8460   -6.3192   -5.9166 H   0  0  0  0  0  0  0  0  0  0  0  0
   -7.1834   -7.4369   -4.3211 H   0  0  0  0  0  0  0  0  0  0  0  0
   -6.8420   -4.5635   -4.0211 H   0  0  0  0  0  0  0  0  0  0  0  0
  -10.2102   -3.0820   -7.4838 H   0  0  0  0  0  0  0  0  0  0  0  0
  -10.7389   -5.2204   -9.1783 H   0  0  0  0  0  0  0  0  0  0  0  0
   -7.9340   -8.5303   -6.4101 H   0  0  0  0  0  0  0  0  0  0  0  0
   -6.5878   -7.8134   -7.3115 H   0  0  0  0  0  0  0  0  0  0  0  0
   -6.2682  -10.1203   -6.9110 H   0  0  0  0  0  0  0  0  0  0  0  0
   -6.5230   -9.9262   -5.1760 H   0  0  0  0  0  0  0  0  0  0  0  0
   -2.8790  -10.1104   -5.4000 H   0  0  0  0  0  0  0  0  0  0  0  0
   -8.4482   -2.9061   -5.2005 H   0  0  0  0  0  0  0  0  0  0  0  0
  1  2  1  0
  1 17  1  0
  1 18  1  0
  1 19  1  0
  2  3  1  0
  2 20  1  0
  2 34  1  0
  3 16  1  0
  3  4  1  0
  3 21  1  6
  4  5  1  0
  4 22  1  0
  4 23  1  0
  5  6  1  0
  5 24  1  0
  5 25  1  0
  6  7  1  0
  6 15  1  0
  6 26  1  1
  7 14  1  0
  7  8  1  0
  8  9  2  0
  8 27  1  0
  9 10  1  0
  9 35  1  0
 10 14  2  0
 10 11  1  0
 11 12  2  0
 11 28  1  0
 12 13  1  0
 12 29  1  0
 13 14  1  0
 15 16  1  0
 15 30  1  0
 15 31  1  0
 16 32  1  0
 16 33  1  0
M  CHG  2   2   1   9   1
M  END
>  <i_m_ct_stereo_status>  (288) 
1

>  <s_m_source_file>  (288) 
/var/tmp/pbs.5076255.sched01/tmpn8rdt6mw/90ee43ygr2.sdf

>  <i_m_source_file_index>  (288) 
33

>  <i_lp_mmshare_version>  (288) 
48012

>  <i_f3d_flags>  (288) 
0

>  <s_epik_input>  (288) 
W0NIM11bTkhdW0NAQEhdMVtDSDJdW0NIMl1bQ0BIXShbQ0gyXVtDSDJdMSluKFtjSF1uMiljKGMyMylzW2NIXVtjSF0z

>  <s_epik_cmdline>  (288) 
J2VwaWtfcHl0aG9uJywgJy1waHQnLCAnMi4wJywgJy1waCcsICc3LjAnLCAnLXRuJywgJzgnLCAnLW1hJywgJzIwMCcsICctaW1hZScsICc8aW5maWxlLm1hZT4nLCAnLW9tYWUnLCAnPG91dGZpbGUubWFlPic=

>  <r_epik_Ionization_Penalty>  (288) 
0.755089

>  <r_epik_Ionization_Penalty_Charging>  (288) 
0.000318716

>  <r_epik_Ionization_Penalty_Neutral>  (288) 
0.75477

>  <r_epik_State_Penalty>  (288) 
0.782082

>  <r_epik_Charging_Adjusted_Penalty>  (288) 
0.782401

>  <i_epik_Tot_Q>  (288) 
2

>  <i_epik_Tot_abs_Q>  (288) 
2

>  <s_lp_Force_Field>  (288) 
OPLS3e

>  <r_lp_Energy>  (288) 
15.3588

>  <b_lp_Chiralities_Consistent>  (288) 
1

>  <s_lp_Variant>  (288) 
76:0-2

>  <s_i_glide_gridfile>  (288) 
pfpi4k_grid

>  <i_i_glide_lignum>  (288) 
33

>  <i_i_glide_rotatable_bonds>  (288) 
2

>  <r_i_docking_score>  (288) 
-6.0131

>  <r_i_glide_ligand_efficiency>  (288) 
-0.375819

>  <r_i_glide_ligand_efficiency_sa>  (288) 
-0.947004

>  <r_i_glide_ligand_efficiency_ln>  (288) 
-1.59389

>  <r_i_glide_gscore>  (288) 
-6.0131

>  <r_i_glide_lipo>  (288) 
-1.74232

>  <r_i_glide_hbond>  (288) 
0

>  <r_i_glide_metal>  (288) 
-0

>  <r_i_glide_rewards>  (288) 
-2.99969

>  <r_i_glide_evdw>  (288) 
-22.666

>  <r_i_glide_ecoul>  (288) 
-2.95823

>  <r_i_glide_erotb>  (288) 
0.305948

>  <r_i_glide_esite>  (288) 
0

>  <r_i_glide_emodel>  (288) 
-31.8307

>  <r_i_glide_energy>  (288) 
-25.6243

>  <r_i_glide_einternal>  (288) 
3.28499

>  <r_i_glide_intrahb_reward>  (288) 
-0

>  <i_i_glide_confnum>  (288) 
1

>  <i_i_glide_posenum>  (288) 
35

>  <r_i_glide_eff_state_penalty>  (288) 
0

>  <ligand_id>  (288) 
76

>  <original_smiles>  (288) 
CNC1CCC(n2cnc3ccsc32)CC1

>  <smiles>  (288) 
[H]c1sc2c(c1[H])[n+]([H])c([H])n2C1([H])C([H])([H])C([H])([H])C([H])([N+]([H])([H])C([H])([H])[H])C([H])([H])C1([H])[H]

$$$$
77:0:0
     RDKit          3D

 57 62  0  0  1  0  0  0  0  0999 V2000
    1.1840    4.6494    8.6406 C   0  0  0  0  0  0  0  0  0  0  0  0
    0.3478    4.1786    7.4534 C   0  0  0  0  0  0  0  0  0  0  0  0
   -0.5591    4.8937    7.0285 O   0  0  0  0  0  0  0  0  0  0  0  0
    0.6765    2.7753    6.8741 C   0  0  2  0  0  0  0  0  0  0  0  0
    1.9880    2.8201    6.1050 C   0  0  0  0  0  0  0  0  0  0  0  0
    2.0771    2.6841    4.7487 C   0  0  0  0  0  0  0  0  0  0  0  0
    2.6624    1.4466    4.4411 C   0  0  0  0  0  0  0  0  0  0  0  0
    3.8947    1.3708    4.4956 O   0  0  0  0  0  0  0  0  0  0  0  0
    1.6675    0.2253    4.0366 C   0  0  2  0  0  0  0  0  0  0  0  0
    0.1137    0.1879    3.5673 C   0  0  0  0  0  0  0  0  0  0  0  0
   -0.8303   -0.6787    4.1205 O   0  0  0  0  0  0  0  0  0  0  0  0
   -1.3050   -0.3487    5.2793 C   0  0  0  0  0  0  0  0  0  0  0  0
   -2.4114   -0.6715    5.6913 O   0  0  0  0  0  0  0  0  0  0  0  0
   -0.2733    0.3591    6.1565 C   0  0  1  0  0  0  0  0  0  0  0  0
    0.9921   -0.7224    6.2701 C   0  0  0  0  0  0  0  0  0  0  0  0
    1.6483   -0.4527    7.6500 C   0  0  0  0  0  0  0  0  0  0  0  0
    0.5512   -2.2130    6.3814 C   0  0  0  0  0  0  0  0  0  0  0  0
    2.0970   -0.6532    5.1461 C   0  0  1  0  0  0  0  0  0  0  0  0
    2.8031   -1.4251    3.9813 C   0  0  0  0  0  0  0  0  0  0  0  0
    2.2194   -0.5046    2.8336 C   0  0  1  0  0  0  0  0  0  0  0  0
    1.5295   -1.4181    1.9840 O   0  0  0  0  0  0  0  0  0  0  0  0
    2.4364    0.8292    1.9330 C   0  0  0  0  0  0  0  0  0  0  0  0
    1.4190    2.1501    2.1890 C   0  0  0  0  0  0  0  0  0  0  0  0
    1.0675    2.9344    3.6572 C   0  0  2  0  0  0  0  0  0  0  0  0
    1.1729    4.2975    3.2780 O   0  0  0  0  0  0  0  0  0  0  0  0
   -0.2637    2.8691    4.5570 C   0  0  1  0  0  0  0  0  0  0  0  0
   -1.6940    2.9898    4.0622 C   0  0  0  0  0  0  0  0  0  0  0  0
   -2.0311    3.1947    2.8951 O   0  0  0  0  0  0  0  0  0  0  0  0
   -2.5430    2.8400    5.2334 C   0  0  0  0  0  0  0  0  0  0  0  0
   -1.8054    2.3764    6.2628 C   0  0  0  0  0  0  0  0  0  0  0  0
   -0.3430    2.0298    5.9518 C   0  0  2  0  0  0  0  0  0  0  0  0
    2.2352    4.7343    8.3681 H   0  0  0  0  0  0  0  0  0  0  0  0
    1.0932    3.9581    9.4791 H   0  0  0  0  0  0  0  0  0  0  0  0
    0.8340    5.6266    8.9702 H   0  0  0  0  0  0  0  0  0  0  0  0
    0.8413    2.1534    7.7519 H   0  0  0  0  0  0  0  0  0  0  0  0
    2.8101    2.4612    6.7045 H   0  0  0  0  0  0  0  0  0  0  0  0
   -0.3986    1.0859    3.4000 H   0  0  0  0  0  0  0  0  0  0  0  0
   -0.0207   -0.0438    2.5230 H   0  0  0  0  0  0  0  0  0  0  0  0
   -0.7170    0.2588    7.1478 H   0  0  0  0  0  0  0  0  0  0  0  0
    2.3779   -1.2174    7.9198 H   0  0  0  0  0  0  0  0  0  0  0  0
    0.9097   -0.4379    8.4516 H   0  0  0  0  0  0  0  0  0  0  0  0
    2.1814    0.4933    7.6805 H   0  0  0  0  0  0  0  0  0  0  0  0
    1.3860   -2.8532    6.6694 H   0  0  0  0  0  0  0  0  0  0  0  0
    0.2003   -2.6165    5.4320 H   0  0  0  0  0  0  0  0  0  0  0  0
   -0.2349   -2.3585    7.1215 H   0  0  0  0  0  0  0  0  0  0  0  0
    3.0218   -0.4639    5.7005 H   0  0  0  0  0  0  0  0  0  0  0  0
    3.8948   -1.3862    4.0037 H   0  0  0  0  0  0  0  0  0  0  0  0
    2.4629   -2.4589    3.9228 H   0  0  0  0  0  0  0  0  0  0  0  0
    1.4346   -1.0203    1.1262 H   0  0  0  0  0  0  0  0  0  0  0  0
    3.4797    1.1567    1.9876 H   0  0  0  0  0  0  0  0  0  0  0  0
    2.3429    0.5713    0.8801 H   0  0  0  0  0  0  0  0  0  0  0  0
    1.8816    2.9130    1.5647 H   0  0  0  0  0  0  0  0  0  0  0  0
    0.4771    1.9804    1.6659 H   0  0  0  0  0  0  0  0  0  0  0  0
    0.7891    4.4032    2.4013 H   0  0  0  0  0  0  0  0  0  0  0  0
   -0.2363    3.8949    4.9251 H   0  0  0  0  0  0  0  0  0  0  0  0
   -3.5934    3.0928    5.2569 H   0  0  0  0  0  0  0  0  0  0  0  0
   -2.2102    2.2081    7.2507 H   0  0  0  0  0  0  0  0  0  0  0  0
  1  2  1  0
  1 32  1  0
  1 33  1  0
  1 34  1  0
  2  3  2  0
  2  4  1  0
  4 31  1  0
  4  5  1  0
  4 35  1  1
  5  6  2  0
  5 36  1  0
  6 24  1  0
  6  7  1  0
  7  8  2  0
  7  9  1  0
  9 18  1  0
  9 20  1  0
  9 10  1  6
 10 11  1  0
 10 37  1  0
 10 38  1  0
 11 12  1  0
 12 13  2  0
 12 14  1  0
 14 31  1  0
 14 15  1  0
 14 39  1  1
 15 16  1  0
 15 17  1  0
 15 18  1  0
 16 40  1  0
 16 41  1  0
 16 42  1  0
 17 43  1  0
 17 44  1  0
 17 45  1  0
 18 19  1  0
 18 46  1  1
 19 20  1  0
 19 47  1  0
 19 48  1  0
 20 21  1  6
 20 22  1  0
 21 49  1  0
 22 23  1  0
 22 50  1  0
 22 51  1  0
 23 24  1  0
 23 52  1  0
 23 53  1  0
 24 25  1  6
 24 26  1  0
 25 54  1  0
 26 31  1  0
 26 27  1  0
 26 55  1  1
 27 28  2  0
 27 29  1  0
 29 30  2  0
 29 56  1  0
 31 30  1  1
 30 57  1  0
M  END
>  <i_m_ct_stereo_status>  (289) 
1

>  <s_m_source_file>  (289) 
/var/tmp/pbs.5076255.sched01/tmpn8rdt6mw/90ee43ygr2.sdf

>  <i_m_source_file_index>  (289) 
34

>  <i_lp_mmshare_version>  (289) 
48012

>  <i_f3d_flags>  (289) 
0

>  <s_epik_input>  (289) 
W0NIM11DKD1PKVtDQEBIXTFbQ0hdPUMoQzI9TylbQ0BAXShbT0hdKShbQ0gyXVtDSDJdQzMoW0NIMl00KVtPSF0pW0NAQEhdKEMoPU8pW0NIXT1bQ0hdNSlbQ0BAXTE1W0NASF0oQyhbQ0gzXSkoW0NIM10pW0NAQEhdNFtDQEBdMjM2KUMoPU8pT1tDSDJdNg==

>  <s_epik_cmdline>  (289) 
J2VwaWtfcHl0aG9uJywgJy1waHQnLCAnMi4wJywgJy1waCcsICc3LjAnLCAnLXRuJywgJzgnLCAnLW1hJywgJzIwMCcsICctaW1hZScsICc8aW5maWxlLm1hZT4nLCAnLW9tYWUnLCAnPG91dGZpbGUubWFlPic=

>  <r_lp_tautomer_probability>  (289) 
1

>  <r_epik_Ionization_Penalty>  (289) 
9.7592e-06

>  <r_epik_Ionization_Penalty_Charging>  (289) 
0

>  <r_epik_Ionization_Penalty_Neutral>  (289) 
9.7592e-06

>  <r_epik_State_Penalty>  (289) 
-0

>  <r_epik_Charging_Adjusted_Penalty>  (289) 
0

>  <i_epik_Tot_Q>  (289) 
0

>  <i_epik_Tot_abs_Q>  (289) 
0

>  <s_epik_Chemistry_Notes>  (289) 
This compound has an ester and may undergo hydrolysis at high or low pH.

>  <s_lp_Force_Field>  (289) 
OPLS3e

>  <r_lp_Energy>  (289) 
322.841

>  <b_lp_Chiralities_Consistent>  (289) 
1

>  <s_lp_Variant>  (289) 
77:0-1

>  <s_i_glide_gridfile>  (289) 
pfpi4k_grid

>  <i_i_glide_lignum>  (289) 
34

>  <i_i_glide_rotatable_bonds>  (289) 
3

>  <r_i_docking_score>  (289) 
-2.90595

>  <r_i_glide_ligand_efficiency>  (289) 
-0.0937403

>  <r_i_glide_ligand_efficiency_sa>  (289) 
-0.294474

>  <r_i_glide_ligand_efficiency_ln>  (289) 
-0.655381

>  <r_i_glide_gscore>  (289) 
-2.90595

>  <r_i_glide_lipo>  (289) 
-0.0243664

>  <r_i_glide_hbond>  (289) 
-0.0782082

>  <r_i_glide_metal>  (289) 
-0

>  <r_i_glide_rewards>  (289) 
-0.501416

>  <r_i_glide_evdw>  (289) 
-25.889

>  <r_i_glide_ecoul>  (289) 
-6.1616

>  <r_i_glide_erotb>  (289) 
0

>  <r_i_glide_esite>  (289) 
-0.0832692

>  <r_i_glide_emodel>  (289) 
-38.1064

>  <r_i_glide_energy>  (289) 
-32.0506

>  <r_i_glide_einternal>  (289) 
2.03315

>  <r_i_glide_intrahb_reward>  (289) 
-0

>  <i_i_glide_confnum>  (289) 
2

>  <i_i_glide_posenum>  (289) 
6

>  <r_i_glide_eff_state_penalty>  (289) 
0

>  <ligand_id>  (289) 
77

>  <original_smiles>  (289) 
CC(=O)C1C=C2C(=O)C34COC(=O)C5C(C)(C)C3CC4(O)CCC2(O)C2C(=O)C=CC125

>  <smiles>  (289) 
[H]OC12C3=C([H])C([H])(C(=O)C([H])([H])[H])C4(C([H])=C([H])C(=O)C14[H])C1([H])C(=O)OC([H])([H])C4(C3=O)C([H])(C([H])([H])C4(O[H])C([H])([H])C2([H])[H])C1(C([H])([H])[H])C([H])([H])[H]

$$$$
77:0:1
     RDKit          3D

 57 62  0  0  1  0  0  0  0  0999 V2000
   -0.2114    5.3953   10.2875 C   0  0  0  0  0  0  0  0  0  0  0  0
   -0.7280    4.9096    8.9339 C   0  0  0  0  0  0  0  0  0  0  0  0
   -1.7894    5.3471    8.4992 O   0  0  0  0  0  0  0  0  0  0  0  0
    0.1354    3.8467    8.1907 C   0  0  2  0  0  0  0  0  0  0  0  0
    1.3818    4.4985    7.6209 C   0  0  0  0  0  0  0  0  0  0  0  0
    1.6106    4.6588    6.2776 C   0  0  0  0  0  0  0  0  0  0  0  0
    2.6174    3.7935    5.8638 C   0  0  0  0  0  0  0  0  0  0  0  0
    3.7953    4.1466    6.0509 O   0  0  0  0  0  0  0  0  0  0  0  0
    2.1689    2.4065    5.1539 C   0  0  2  0  0  0  0  0  0  0  0  0
    0.7713    1.9041    4.4826 C   0  0  0  0  0  0  0  0  0  0  0  0
    0.1620    0.6663    4.7799 O   0  0  0  0  0  0  0  0  0  0  0  0
   -0.4688    0.5808    5.9180 C   0  0  0  0  0  0  0  0  0  0  0  0
   -1.4270   -0.1674    6.1421 O   0  0  0  0  0  0  0  0  0  0  0  0
    0.1907    1.4329    6.9960 C   0  0  1  0  0  0  0  0  0  0  0  0
    1.7516    0.8666    7.1011 C   0  0  0  0  0  0  0  0  0  0  0  0
    2.1725    1.0840    8.5782 C   0  0  0  0  0  0  0  0  0  0  0  0
    1.8860   -0.6730    6.9209 C   0  0  0  0  0  0  0  0  0  0  0  0
    2.8175    1.5376    6.1501 C   0  0  1  0  0  0  0  0  0  0  0  0
    3.8372    1.3025    4.9868 C   0  0  0  0  0  0  0  0  0  0  0  0
    3.0193    2.1707    3.9399 C   0  0  1  0  0  0  0  0  0  0  0  0
    2.7626    1.2763    2.8657 O   0  0  0  0  0  0  0  0  0  0  0  0
    2.7974    3.6440    3.2853 C   0  0  0  0  0  0  0  0  0  0  0  0
    1.3613    4.4534    3.6095 C   0  0  0  0  0  0  0  0  0  0  0  0
    0.6549    4.7577    5.1193 C   0  0  2  0  0  0  0  0  0  0  0  0
    0.2521    6.1178    4.9773 O   0  0  0  0  0  0  0  0  0  0  0  0
   -0.6019    4.0450    5.8208 C   0  0  1  0  0  0  0  0  0  0  0  0
   -1.9155    3.7399    5.1548 C   0  0  0  0  0  0  0  0  0  0  0  0
   -2.1788    4.0477    3.9946 O   0  0  0  0  0  0  0  0  0  0  0  0
   -2.7433    3.0612    6.1500 C   0  0  0  0  0  0  0  0  0  0  0  0
   -1.9700    2.7155    7.1984 C   0  0  0  0  0  0  0  0  0  0  0  0
   -0.4659    2.9787    7.0374 C   0  0  2  0  0  0  0  0  0  0  0  0
    0.7530    5.8874   10.1816 H   0  0  0  0  0  0  0  0  0  0  0  0
   -0.1076    4.5640   10.9827 H   0  0  0  0  0  0  0  0  0  0  0  0
   -0.9185    6.1059   10.7116 H   0  0  0  0  0  0  0  0  0  0  0  0
    0.4580    3.1692    8.9787 H   0  0  0  0  0  0  0  0  0  0  0  0
    2.2339    4.3409    8.2544 H   0  0  0  0  0  0  0  0  0  0  0  0
   -0.0095    2.5893    4.3858 H   0  0  0  0  0  0  0  0  0  0  0  0
    0.7937    1.8530    3.4034 H   0  0  0  0  0  0  0  0  0  0  0  0
   -0.2453    1.0020    7.8889 H   0  0  0  0  0  0  0  0  0  0  0  0
    3.1121    0.5866    8.8196 H   0  0  0  0  0  0  0  0  0  0  0  0
    1.4283    0.6837    9.2669 H   0  0  0  0  0  0  0  0  0  0  0  0
    2.3146    2.1329    8.8228 H   0  0  0  0  0  0  0  0  0  0  0  0
    2.8760   -1.0203    7.2129 H   0  0  0  0  0  0  0  0  0  0  0  0
    1.7716   -0.9809    5.8829 H   0  0  0  0  0  0  0  0  0  0  0  0
    1.1603   -1.2207    7.5207 H   0  0  0  0  0  0  0  0  0  0  0  0
    3.5729    1.9306    6.8325 H   0  0  0  0  0  0  0  0  0  0  0  0
    4.8362    1.7180    5.1567 H   0  0  0  0  0  0  0  0  0  0  0  0
    3.9018    0.2455    4.7174 H   0  0  0  0  0  0  0  0  0  0  0  0
    3.3672    1.4950    2.1733 H   0  0  0  0  0  0  0  0  0  0  0  0
    3.6482    4.2907    3.5199 H   0  0  0  0  0  0  0  0  0  0  0  0
    2.8684    3.5780    2.2017 H   0  0  0  0  0  0  0  0  0  0  0  0
    1.5521    5.4240    3.1561 H   0  0  0  0  0  0  0  0  0  0  0  0
    0.5891    4.0606    2.9559 H   0  0  0  0  0  0  0  0  0  0  0  0
    0.8410    6.5623    4.3824 H   0  0  0  0  0  0  0  0  0  0  0  0
   -0.9886    4.9264    6.3328 H   0  0  0  0  0  0  0  0  0  0  0  0
   -3.8230    2.9559    6.0893 H   0  0  0  0  0  0  0  0  0  0  0  0
   -2.3586    2.2658    8.0983 H   0  0  0  0  0  0  0  0  0  0  0  0
  1  2  1  0
  1 32  1  0
  1 33  1  0
  1 34  1  0
  2  3  2  0
  2  4  1  0
  4 31  1  0
  4  5  1  0
  4 35  1  1
  5  6  2  0
  5 36  1  0
  6 24  1  0
  6  7  1  0
  7  8  2  0
  7  9  1  0
  9 18  1  0
  9 20  1  0
  9 10  1  6
 10 11  1  0
 10 37  1  0
 10 38  1  0
 11 12  1  0
 12 13  2  0
 12 14  1  0
 14 31  1  0
 14 15  1  0
 14 39  1  1
 15 16  1  0
 15 17  1  0
 15 18  1  0
 16 40  1  0
 16 41  1  0
 16 42  1  0
 17 43  1  0
 17 44  1  0
 17 45  1  0
 18 19  1  0
 18 46  1  1
 19 20  1  0
 19 47  1  0
 19 48  1  0
 20 21  1  6
 20 22  1  0
 21 49  1  0
 22 23  1  0
 22 50  1  0
 22 51  1  0
 23 24  1  0
 23 52  1  0
 23 53  1  0
 24 25  1  6
 24 26  1  0
 25 54  1  0
 26 31  1  0
 26 27  1  0
 26 55  1  1
 27 28  2  0
 27 29  1  0
 29 30  2  0
 29 56  1  0
 31 30  1  1
 30 57  1  0
M  END
>  <i_m_ct_stereo_status>  (290) 
1

>  <s_m_source_file>  (290) 
/var/tmp/pbs.5076255.sched01/tmpn8rdt6mw/90ee43ygr2.sdf

>  <i_m_source_file_index>  (290) 
34

>  <i_lp_mmshare_version>  (290) 
48012

>  <i_f3d_flags>  (290) 
0

>  <s_epik_input>  (290) 
W0NIM11DKD1PKVtDQEBIXTFbQ0hdPUMoQzI9TylbQ0BAXShbT0hdKShbQ0gyXVtDSDJdQzMoW0NIMl00KVtPSF0pW0NAQEhdKEMoPU8pW0NIXT1bQ0hdNSlbQ0BAXTE1W0NASF0oQyhbQ0gzXSkoW0NIM10pW0NAQEhdNFtDQEBdMjM2KUMoPU8pT1tDSDJdNg==

>  <s_epik_cmdline>  (290) 
J2VwaWtfcHl0aG9uJywgJy1waHQnLCAnMi4wJywgJy1waCcsICc3LjAnLCAnLXRuJywgJzgnLCAnLW1hJywgJzIwMCcsICctaW1hZScsICc8aW5maWxlLm1hZT4nLCAnLW9tYWUnLCAnPG91dGZpbGUubWFlPic=

>  <r_lp_tautomer_probability>  (290) 
1

>  <r_epik_Ionization_Penalty>  (290) 
9.7592e-06

>  <r_epik_Ionization_Penalty_Charging>  (290) 
0

>  <r_epik_Ionization_Penalty_Neutral>  (290) 
9.7592e-06

>  <r_epik_State_Penalty>  (290) 
-0

>  <r_epik_Charging_Adjusted_Penalty>  (290) 
0

>  <i_epik_Tot_Q>  (290) 
0

>  <i_epik_Tot_abs_Q>  (290) 
0

>  <s_epik_Chemistry_Notes>  (290) 
This compound has an ester and may undergo hydrolysis at high or low pH.

>  <s_lp_Force_Field>  (290) 
OPLS3e

>  <r_lp_Energy>  (290) 
322.841

>  <b_lp_Chiralities_Consistent>  (290) 
1

>  <s_lp_Variant>  (290) 
77:0-1

>  <s_i_glide_gridfile>  (290) 
pfpi4k_grid

>  <i_i_glide_lignum>  (290) 
34

>  <i_i_glide_rotatable_bonds>  (290) 
3

>  <r_i_docking_score>  (290) 
-2.85869

>  <r_i_glide_ligand_efficiency>  (290) 
-0.0922157

>  <r_i_glide_ligand_efficiency_sa>  (290) 
-0.289685

>  <r_i_glide_ligand_efficiency_ln>  (290) 
-0.644722

>  <r_i_glide_gscore>  (290) 
-2.85869

>  <r_i_glide_lipo>  (290) 
-0.168849

>  <r_i_glide_hbond>  (290) 
-0.17007

>  <r_i_glide_metal>  (290) 
-0

>  <r_i_glide_rewards>  (290) 
-0.501416

>  <r_i_glide_evdw>  (290) 
-21.8492

>  <r_i_glide_ecoul>  (290) 
-5.82173

>  <r_i_glide_erotb>  (290) 
0

>  <r_i_glide_esite>  (290) 
-0.0526335

>  <r_i_glide_emodel>  (290) 
-34.061

>  <r_i_glide_energy>  (290) 
-27.6709

>  <r_i_glide_einternal>  (290) 
1.07878

>  <r_i_glide_intrahb_reward>  (290) 
-0

>  <i_i_glide_confnum>  (290) 
2

>  <i_i_glide_posenum>  (290) 
30

>  <r_i_glide_eff_state_penalty>  (290) 
0

>  <ligand_id>  (290) 
77

>  <original_smiles>  (290) 
CC(=O)C1C=C2C(=O)C34COC(=O)C5C(C)(C)C3CC4(O)CCC2(O)C2C(=O)C=CC125

>  <smiles>  (290) 
[H]OC12C3=C([H])C([H])(C(=O)C([H])([H])[H])C4(C([H])=C([H])C(=O)C14[H])C1([H])C(=O)OC([H])([H])C4(C3=O)C([H])(C([H])([H])C4(O[H])C([H])([H])C2([H])[H])C1(C([H])([H])[H])C([H])([H])[H]

$$$$
77:0:2
     RDKit          3D

 57 62  0  0  1  0  0  0  0  0999 V2000
    4.9109   -0.0847    7.3735 C   0  0  0  0  0  0  0  0  0  0  0  0
    3.4387    0.2890    7.5200 C   0  0  0  0  0  0  0  0  0  0  0  0
    2.7251   -0.2532    8.3685 O   0  0  0  0  0  0  0  0  0  0  0  0
    2.9003    1.3944    6.5930 C   0  0  2  0  0  0  0  0  0  0  0  0
    1.8143    2.2081    7.2861 C   0  0  0  0  0  0  0  0  0  0  0  0
    0.5057    2.1709    6.9318 C   0  0  0  0  0  0  0  0  0  0  0  0
    0.1225    3.3715    6.3154 C   0  0  0  0  0  0  0  0  0  0  0  0
   -0.1453    4.3305    7.0416 O   0  0  0  0  0  0  0  0  0  0  0  0
    0.0900    3.3690    4.6861 C   0  0  2  0  0  0  0  0  0  0  0  0
    0.0344    2.1921    3.5847 C   0  0  0  0  0  0  0  0  0  0  0  0
    0.8908    2.1395    2.4825 O   0  0  0  0  0  0  0  0  0  0  0  0
    2.1162    1.7469    2.6711 C   0  0  0  0  0  0  0  0  0  0  0  0
    2.8145    1.1483    1.8625 O   0  0  0  0  0  0  0  0  0  0  0  0
    2.6195    2.1889    4.0438 C   0  0  1  0  0  0  0  0  0  0  0  0
    2.4857    3.8439    4.0699 C   0  0  0  0  0  0  0  0  0  0  0  0
    3.6197    4.3512    4.9963 C   0  0  0  0  0  0  0  0  0  0  0  0
    2.8043    4.5350    2.7220 C   0  0  0  0  0  0  0  0  0  0  0  0
    1.1111    4.4240    4.5602 C   0  0  1  0  0  0  0  0  0  0  0  0
   -0.1207    5.3050    4.1757 C   0  0  0  0  0  0  0  0  0  0  0  0
   -1.1450    4.0962    4.2461 C   0  0  1  0  0  0  0  0  0  0  0  0
   -1.7657    4.0753    2.9699 O   0  0  0  0  0  0  0  0  0  0  0  0
   -2.1759    3.2385    5.1744 C   0  0  0  0  0  0  0  0  0  0  0  0
   -1.7620    1.6517    5.5882 C   0  0  0  0  0  0  0  0  0  0  0  0
   -0.3091    1.0974    6.2673 C   0  0  2  0  0  0  0  0  0  0  0  0
   -0.7866    0.2309    7.2805 O   0  0  0  0  0  0  0  0  0  0  0  0
    0.9057    0.2910    5.5808 C   0  0  1  0  0  0  0  0  0  0  0  0
    0.7745   -0.9091    4.6653 C   0  0  0  0  0  0  0  0  0  0  0  0
   -0.2950   -1.4355    4.3785 O   0  0  0  0  0  0  0  0  0  0  0  0
    2.1341   -1.2553    4.2430 C   0  0  0  0  0  0  0  0  0  0  0  0
    2.9612   -0.2653    4.6011 C   0  0  0  0  0  0  0  0  0  0  0  0
    2.3140    1.0035    5.2001 C   0  0  2  0  0  0  0  0  0  0  0  0
    5.5504    0.7796    7.5540 H   0  0  0  0  0  0  0  0  0  0  0  0
    5.1230   -0.4448    6.3693 H   0  0  0  0  0  0  0  0  0  0  0  0
    5.1869   -0.8681    8.0779 H   0  0  0  0  0  0  0  0  0  0  0  0
    3.7443    2.0572    6.4395 H   0  0  0  0  0  0  0  0  0  0  0  0
    2.2077    3.1351    7.6715 H   0  0  0  0  0  0  0  0  0  0  0  0
   -0.0573    1.2027    3.9047 H   0  0  0  0  0  0  0  0  0  0  0  0
   -0.9246    2.1126    3.0965 H   0  0  0  0  0  0  0  0  0  0  0  0
    3.6915    2.0700    3.9066 H   0  0  0  0  0  0  0  0  0  0  0  0
    3.7518    5.4304    4.9353 H   0  0  0  0  0  0  0  0  0  0  0  0
    4.5761    3.9087    4.7220 H   0  0  0  0  0  0  0  0  0  0  0  0
    3.4436    4.1187    6.0402 H   0  0  0  0  0  0  0  0  0  0  0  0
    2.9112    5.6126    2.8240 H   0  0  0  0  0  0  0  0  0  0  0  0
    2.0079    4.3978    1.9963 H   0  0  0  0  0  0  0  0  0  0  0  0
    3.7226    4.1603    2.2689 H   0  0  0  0  0  0  0  0  0  0  0  0
    1.3812    5.0650    5.3993 H   0  0  0  0  0  0  0  0  0  0  0  0
   -0.3732    6.0807    4.9110 H   0  0  0  0  0  0  0  0  0  0  0  0
   -0.0215    5.7309    3.1713 H   0  0  0  0  0  0  0  0  0  0  0  0
   -1.0752    4.1463    2.3142 H   0  0  0  0  0  0  0  0  0  0  0  0
   -2.4196    3.7953    6.0824 H   0  0  0  0  0  0  0  0  0  0  0  0
   -3.1433    3.1872    4.6800 H   0  0  0  0  0  0  0  0  0  0  0  0
   -2.5345    1.4071    6.3071 H   0  0  0  0  0  0  0  0  0  0  0  0
   -2.0157    1.0027    4.7564 H   0  0  0  0  0  0  0  0  0  0  0  0
   -0.0577    0.0151    7.8432 H   0  0  0  0  0  0  0  0  0  0  0  0
    1.1960   -0.3231    6.4329 H   0  0  0  0  0  0  0  0  0  0  0  0
    2.4081   -2.1985    3.7713 H   0  0  0  0  0  0  0  0  0  0  0  0
    4.0261   -0.3040    4.4257 H   0  0  0  0  0  0  0  0  0  0  0  0
  1  2  1  0
  1 32  1  0
  1 33  1  0
  1 34  1  0
  2  3  2  0
  2  4  1  0
  4 31  1  0
  4  5  1  0
  4 35  1  6
  5  6  2  0
  5 36  1  0
  6 24  1  0
  6  7  1  0
  7  8  2  0
  7  9  1  0
  9 18  1  0
  9 20  1  0
  9 10  1  6
 10 11  1  0
 10 37  1  0
 10 38  1  0
 11 12  1  0
 12 13  2  0
 12 14  1  0
 14 31  1  0
 14 15  1  0
 14 39  1  6
 15 16  1  0
 15 17  1  0
 15 18  1  0
 16 40  1  0
 16 41  1  0
 16 42  1  0
 17 43  1  0
 17 44  1  0
 17 45  1  0
 18 19  1  0
 18 46  1  1
 19 20  1  0
 19 47  1  0
 19 48  1  0
 20 21  1  6
 20 22  1  0
 21 49  1  0
 22 23  1  0
 22 50  1  0
 22 51  1  0
 23 24  1  0
 23 52  1  0
 23 53  1  0
 24 25  1  1
 24 26  1  0
 25 54  1  0
 26 31  1  0
 26 27  1  0
 26 55  1  1
 27 28  2  0
 27 29  1  0
 29 30  2  0
 29 56  1  0
 31 30  1  6
 30 57  1  0
M  END
>  <i_m_ct_stereo_status>  (291) 
1

>  <s_m_source_file>  (291) 
/var/tmp/pbs.5076255.sched01/tmpn8rdt6mw/90ee43ygr2.sdf

>  <i_m_source_file_index>  (291) 
34

>  <i_lp_mmshare_version>  (291) 
48012

>  <i_f3d_flags>  (291) 
0

>  <s_epik_input>  (291) 
W0NIM11DKD1PKVtDQEBIXTFbQ0hdPUMoQzI9TylbQ0BAXShbT0hdKShbQ0gyXVtDSDJdQzMoW0NIMl00KVtPSF0pW0NAQEhdKEMoPU8pW0NIXT1bQ0hdNSlbQ0BAXTE1W0NASF0oQyhbQ0gzXSkoW0NIM10pW0NAQEhdNFtDQEBdMjM2KUMoPU8pT1tDSDJdNg==

>  <s_epik_cmdline>  (291) 
J2VwaWtfcHl0aG9uJywgJy1waHQnLCAnMi4wJywgJy1waCcsICc3LjAnLCAnLXRuJywgJzgnLCAnLW1hJywgJzIwMCcsICctaW1hZScsICc8aW5maWxlLm1hZT4nLCAnLW9tYWUnLCAnPG91dGZpbGUubWFlPic=

>  <r_lp_tautomer_probability>  (291) 
1

>  <r_epik_Ionization_Penalty>  (291) 
9.7592e-06

>  <r_epik_Ionization_Penalty_Charging>  (291) 
0

>  <r_epik_Ionization_Penalty_Neutral>  (291) 
9.7592e-06

>  <r_epik_State_Penalty>  (291) 
-0

>  <r_epik_Charging_Adjusted_Penalty>  (291) 
0

>  <i_epik_Tot_Q>  (291) 
0

>  <i_epik_Tot_abs_Q>  (291) 
0

>  <s_epik_Chemistry_Notes>  (291) 
This compound has an ester and may undergo hydrolysis at high or low pH.

>  <s_lp_Force_Field>  (291) 
OPLS3e

>  <r_lp_Energy>  (291) 
322.841

>  <b_lp_Chiralities_Consistent>  (291) 
1

>  <s_lp_Variant>  (291) 
77:0-1

>  <s_i_glide_gridfile>  (291) 
pfpi4k_grid

>  <i_i_glide_lignum>  (291) 
34

>  <i_i_glide_rotatable_bonds>  (291) 
3

>  <r_i_docking_score>  (291) 
-2.59921

>  <r_i_glide_ligand_efficiency>  (291) 
-0.0838456

>  <r_i_glide_ligand_efficiency_sa>  (291) 
-0.263391

>  <r_i_glide_ligand_efficiency_ln>  (291) 
-0.586203

>  <r_i_glide_gscore>  (291) 
-2.59921

>  <r_i_glide_lipo>  (291) 
-0.0172271

>  <r_i_glide_hbond>  (291) 
0

>  <r_i_glide_metal>  (291) 
-0

>  <r_i_glide_rewards>  (291) 
-0.557588

>  <r_i_glide_evdw>  (291) 
-24.4621

>  <r_i_glide_ecoul>  (291) 
-5.31186

>  <r_i_glide_erotb>  (291) 
0

>  <r_i_glide_esite>  (291) 
-0.00451369

>  <r_i_glide_emodel>  (291) 
-35.99

>  <r_i_glide_energy>  (291) 
-29.774

>  <r_i_glide_einternal>  (291) 
0.194864

>  <r_i_glide_intrahb_reward>  (291) 
-0

>  <i_i_glide_confnum>  (291) 
2

>  <i_i_glide_posenum>  (291) 
38

>  <r_i_glide_eff_state_penalty>  (291) 
0

>  <ligand_id>  (291) 
77

>  <original_smiles>  (291) 
CC(=O)C1C=C2C(=O)C34COC(=O)C5C(C)(C)C3CC4(O)CCC2(O)C2C(=O)C=CC125

>  <smiles>  (291) 
[H]OC12C3=C([H])C([H])(C(=O)C([H])([H])[H])C4(C([H])=C([H])C(=O)C14[H])C1([H])C(=O)OC([H])([H])C4(C3=O)C([H])(C([H])([H])C4(O[H])C([H])([H])C2([H])[H])C1(C([H])([H])[H])C([H])([H])[H]

$$$$
77:1:0
     RDKit          3D

 57 62  0  0  1  0  0  0  0  0999 V2000
    8.4838   -3.0928   -0.0660 C   0  0  0  0  0  0  0  0  0  0  0  0
    7.0436   -2.7037   -0.3796 C   0  0  0  0  0  0  0  0  0  0  0  0
    6.7482   -2.4425   -1.5336 O   0  0  0  0  0  0  0  0  0  0  0  0
    6.0673   -2.5492    0.8256 C   0  0  2  0  0  0  0  0  0  0  0  0
    6.0674   -3.8548    1.6144 C   0  0  0  0  0  0  0  0  0  0  0  0
    4.9538   -4.6139    1.8454 C   0  0  0  0  0  0  0  0  0  0  0  0
    4.4860   -4.3585    3.1507 C   0  0  0  0  0  0  0  0  0  0  0  0
    5.1900   -4.7273    4.1139 O   0  0  0  0  0  0  0  0  0  0  0  0
    3.1679   -3.5479    3.3100 C   0  0  2  0  0  0  0  0  0  0  0  0
    2.1164   -2.9409    2.1722 C   0  0  0  0  0  0  0  0  0  0  0  0
    1.7359   -1.5833    2.0399 O   0  0  0  0  0  0  0  0  0  0  0  0
    2.6086   -0.7095    1.6451 C   0  0  0  0  0  0  0  0  0  0  0  0
    2.3463    0.4495    1.2860 O   0  0  0  0  0  0  0  0  0  0  0  0
    4.0058   -1.1568    1.8891 C   0  0  1  0  0  0  0  0  0  0  0  0
    4.0138   -1.2400    3.5402 C   0  0  0  0  0  0  0  0  0  0  0  0
    5.4667   -1.1558    3.9159 C   0  0  0  0  0  0  0  0  0  0  0  0
    3.4459    0.0393    4.2130 C   0  0  0  0  0  0  0  0  0  0  0  0
    3.3682   -2.4894    4.2903 C   0  0  1  0  0  0  0  0  0  0  0  0
    1.9200   -2.9427    4.7257 C   0  0  0  0  0  0  0  0  0  0  0  0
    2.2735   -4.3894    4.1355 C   0  0  2  0  0  0  0  0  0  0  0  0
    2.7121   -5.2252    5.1935 O   0  0  0  0  0  0  0  0  0  0  0  0
    1.7174   -5.3981    3.0293 C   0  0  0  0  0  0  0  0  0  0  0  0
    2.5122   -5.6263    1.5946 C   0  0  0  0  0  0  0  0  0  0  0  0
    3.8127   -4.8367    0.9114 C   0  0  2  0  0  0  0  0  0  0  0  0
    4.2359   -5.8343   -0.0054 O   0  0  0  0  0  0  0  0  0  0  0  0
    3.8978   -3.4746    0.0741 C   0  0  1  0  0  0  0  0  0  0  0  0
    2.9520   -3.0610   -1.0168 C   0  0  0  0  0  0  0  0  0  0  0  0
    1.9687   -3.7155   -1.3481 O   0  0  0  0  0  0  0  0  0  0  0  0
    3.4226   -1.7575   -1.4933 C   0  0  0  0  0  0  0  0  0  0  0  0
    4.3296   -1.2850   -0.6108 C   0  0  0  0  0  0  0  0  0  0  0  0
    4.5697   -2.1302    0.6466 C   0  0  2  0  0  0  0  0  0  0  0  0
    8.5330   -4.0820    0.3825 H   0  0  0  0  0  0  0  0  0  0  0  0
    8.9524   -2.3659    0.5934 H   0  0  0  0  0  0  0  0  0  0  0  0
    9.0313   -3.1080   -1.0094 H   0  0  0  0  0  0  0  0  0  0  0  0
    6.5312   -1.8019    1.4634 H   0  0  0  0  0  0  0  0  0  0  0  0
    6.7460   -3.7906    2.4535 H   0  0  0  0  0  0  0  0  0  0  0  0
    2.0010   -3.4201    1.2324 H   0  0  0  0  0  0  0  0  0  0  0  0
    1.1120   -3.2073    2.4877 H   0  0  0  0  0  0  0  0  0  0  0  0
    4.5657   -0.2490    1.7121 H   0  0  0  0  0  0  0  0  0  0  0  0
    5.6275   -1.0419    4.9875 H   0  0  0  0  0  0  0  0  0  0  0  0
    5.9934   -0.3407    3.4188 H   0  0  0  0  0  0  0  0  0  0  0  0
    5.9336   -2.0804    3.6222 H   0  0  0  0  0  0  0  0  0  0  0  0
    3.6816    0.0572    5.2749 H   0  0  0  0  0  0  0  0  0  0  0  0
    2.3610    0.0886    4.1461 H   0  0  0  0  0  0  0  0  0  0  0  0
    3.8630    0.9467    3.7663 H   0  0  0  0  0  0  0  0  0  0  0  0
    3.9951   -2.8007    5.1276 H   0  0  0  0  0  0  0  0  0  0  0  0
    1.8360   -2.9401    5.8067 H   0  0  0  0  0  0  0  0  0  0  0  0
    1.0717   -2.3850    4.3220 H   0  0  0  0  0  0  0  0  0  0  0  0
    3.3071   -4.7088    5.7068 H   0  0  0  0  0  0  0  0  0  0  0  0
    1.5920   -6.3863    3.4895 H   0  0  0  0  0  0  0  0  0  0  0  0
    0.6818   -5.1471    2.8178 H   0  0  0  0  0  0  0  0  0  0  0  0
    2.8493   -6.6603    1.6931 H   0  0  0  0  0  0  0  0  0  0  0  0
    1.7496   -5.6881    0.8256 H   0  0  0  0  0  0  0  0  0  0  0  0
    3.7542   -5.7454   -0.8235 H   0  0  0  0  0  0  0  0  0  0  0  0
    4.6675   -3.7809   -0.6380 H   0  0  0  0  0  0  0  0  0  0  0  0
    3.1182   -1.2700   -2.4168 H   0  0  0  0  0  0  0  0  0  0  0  0
    4.8351   -0.3373   -0.7331 H   0  0  0  0  0  0  0  0  0  0  0  0
  1  2  1  0
  1 32  1  0
  1 33  1  0
  1 34  1  0
  2  3  2  0
  2  4  1  0
  4 31  1  0
  4  5  1  0
  4 35  1  1
  5  6  2  0
  5 36  1  0
  6 24  1  0
  6  7  1  0
  7  8  2  0
  7  9  1  0
  9 18  1  0
  9 20  1  0
  9 10  1  6
 10 11  1  0
 10 37  1  0
 10 38  1  0
 11 12  1  0
 12 13  2  0
 12 14  1  0
 14 31  1  0
 14 15  1  0
 14 39  1  1
 15 16  1  0
 15 17  1  0
 15 18  1  0
 16 40  1  0
 16 41  1  0
 16 42  1  0
 17 43  1  0
 17 44  1  0
 17 45  1  0
 18 19  1  0
 18 46  1  1
 19 20  1  0
 19 47  1  0
 19 48  1  0
 20 21  1  1
 20 22  1  0
 21 49  1  0
 22 23  1  0
 22 50  1  0
 22 51  1  0
 23 24  1  0
 23 52  1  0
 23 53  1  0
 24 25  1  6
 24 26  1  0
 25 54  1  0
 26 31  1  0
 26 27  1  0
 26 55  1  6
 27 28  2  0
 27 29  1  0
 29 30  2  0
 29 56  1  0
 31 30  1  6
 30 57  1  0
M  END
>  <i_m_ct_stereo_status>  (292) 
1

>  <s_m_source_file>  (292) 
/var/tmp/pbs.5076255.sched01/tmpn8rdt6mw/90ee43ygr2.sdf

>  <i_m_source_file_index>  (292) 
35

>  <i_lp_mmshare_version>  (292) 
48012

>  <i_f3d_flags>  (292) 
0

>  <s_epik_input>  (292) 
W0NIM11DKD1PKVtDQEBIXTFbQ0hdPUMoQzI9TylbQ0BAXShbT0hdKShbQ0gyXVtDSDJdQzMoW0NIMl00KVtPSF0pW0NAQEhdKEMoPU8pW0NIXT1bQ0hdNSlbQ0BAXTE1W0NASF0oQyhbQ0gzXSkoW0NIM10pW0NAQEhdNFtDQEBdMjM2KUMoPU8pT1tDSDJdNg==

>  <s_epik_cmdline>  (292) 
J2VwaWtfcHl0aG9uJywgJy1waHQnLCAnMi4wJywgJy1waCcsICc3LjAnLCAnLXRuJywgJzgnLCAnLW1hJywgJzIwMCcsICctaW1hZScsICc8aW5maWxlLm1hZT4nLCAnLW9tYWUnLCAnPG91dGZpbGUubWFlPic=

>  <r_lp_tautomer_probability>  (292) 
1

>  <r_epik_Ionization_Penalty>  (292) 
9.7592e-06

>  <r_epik_Ionization_Penalty_Charging>  (292) 
0

>  <r_epik_Ionization_Penalty_Neutral>  (292) 
9.7592e-06

>  <r_epik_State_Penalty>  (292) 
-0

>  <r_epik_Charging_Adjusted_Penalty>  (292) 
0

>  <i_epik_Tot_Q>  (292) 
0

>  <i_epik_Tot_abs_Q>  (292) 
0

>  <s_epik_Chemistry_Notes>  (292) 
This compound has an ester and may undergo hydrolysis at high or low pH.

>  <s_lp_Force_Field>  (292) 
OPLS3e

>  <r_lp_Energy>  (292) 
273.91

>  <b_lp_Chiralities_Consistent>  (292) 
1

>  <s_lp_Variant>  (292) 
77:0-2

>  <s_i_glide_gridfile>  (292) 
pfpi4k_grid

>  <i_i_glide_lignum>  (292) 
35

>  <i_i_glide_rotatable_bonds>  (292) 
3

>  <r_i_docking_score>  (292) 
-2.85353

>  <r_i_glide_ligand_efficiency>  (292) 
-0.0920493

>  <r_i_glide_ligand_efficiency_sa>  (292) 
-0.289162

>  <r_i_glide_ligand_efficiency_ln>  (292) 
-0.643558

>  <r_i_glide_gscore>  (292) 
-2.85353

>  <r_i_glide_lipo>  (292) 
-0.353765

>  <r_i_glide_hbond>  (292) 
-0.135334

>  <r_i_glide_metal>  (292) 
-0

>  <r_i_glide_rewards>  (292) 
-0.509397

>  <r_i_glide_evdw>  (292) 
-26.0678

>  <r_i_glide_ecoul>  (292) 
-3.25041

>  <r_i_glide_erotb>  (292) 
0

>  <r_i_glide_esite>  (292) 
-0.064082

>  <r_i_glide_emodel>  (292) 
-31.8465

>  <r_i_glide_energy>  (292) 
-29.3182

>  <r_i_glide_einternal>  (292) 
1.5077

>  <r_i_glide_intrahb_reward>  (292) 
-0

>  <i_i_glide_confnum>  (292) 
2

>  <i_i_glide_posenum>  (292) 
2

>  <r_i_glide_eff_state_penalty>  (292) 
0

>  <ligand_id>  (292) 
77

>  <original_smiles>  (292) 
CC(=O)C1C=C2C(=O)C34COC(=O)C5C(C)(C)C3CC4(O)CCC2(O)C2C(=O)C=CC125

>  <smiles>  (292) 
[H]OC12C3=C([H])C([H])(C(=O)C([H])([H])[H])C4(C([H])=C([H])C(=O)C14[H])C1([H])C(=O)OC([H])([H])C4(C3=O)C([H])(C([H])([H])C4(O[H])C([H])([H])C2([H])[H])C1(C([H])([H])[H])C([H])([H])[H]

$$$$
77:1:1
     RDKit          3D

 57 62  0  0  1  0  0  0  0  0999 V2000
    7.5452   -3.8041   -0.3520 C   0  0  0  0  0  0  0  0  0  0  0  0
    7.0246   -2.6898    0.5346 C   0  0  0  0  0  0  0  0  0  0  0  0
    7.4046   -1.5319    0.3715 O   0  0  0  0  0  0  0  0  0  0  0  0
    6.0485   -3.0335    1.6786 C   0  0  2  0  0  0  0  0  0  0  0  0
    6.1579   -4.5063    2.0570 C   0  0  0  0  0  0  0  0  0  0  0  0
    5.1376   -5.3797    1.9294 C   0  0  0  0  0  0  0  0  0  0  0  0
    4.5840   -5.6183    3.2114 C   0  0  0  0  0  0  0  0  0  0  0  0
    5.2890   -6.1960    4.0455 O   0  0  0  0  0  0  0  0  0  0  0  0
    3.1888   -4.9801    3.5189 C   0  0  2  0  0  0  0  0  0  0  0  0
    2.1055   -4.1542    2.5701 C   0  0  0  0  0  0  0  0  0  0  0  0
    1.6205   -2.8542    2.8372 O   0  0  0  0  0  0  0  0  0  0  0  0
    2.3885   -1.8153    2.7317 C   0  0  0  0  0  0  0  0  0  0  0  0
    2.0220   -0.6556    2.5755 O   0  0  0  0  0  0  0  0  0  0  0  0
    3.8319   -2.2058    2.9688 C   0  0  1  0  0  0  0  0  0  0  0  0
    3.8499   -2.8151    4.5133 C   0  0  0  0  0  0  0  0  0  0  0  0
    5.3087   -2.7555    5.0050 C   0  0  0  0  0  0  0  0  0  0  0  0
    3.1135   -1.8719    5.5033 C   0  0  0  0  0  0  0  0  0  0  0  0
    3.2780   -4.2782    4.7966 C   0  0  1  0  0  0  0  0  0  0  0  0
    1.8539   -4.9628    4.9824 C   0  0  0  0  0  0  0  0  0  0  0  0
    2.3694   -6.1200    3.9973 C   0  0  2  0  0  0  0  0  0  0  0  0
    2.8508   -7.2064    4.7687 O   0  0  0  0  0  0  0  0  0  0  0  0
    1.9433   -6.7685    2.5966 C   0  0  0  0  0  0  0  0  0  0  0  0
    2.8091   -6.4630    1.2146 C   0  0  0  0  0  0  0  0  0  0  0  0
    4.0490   -5.3945    0.8900 C   0  0  2  0  0  0  0  0  0  0  0  0
    4.5956   -5.9828   -0.2842 O   0  0  0  0  0  0  0  0  0  0  0  0
    3.9964   -3.8325    0.5304 C   0  0  1  0  0  0  0  0  0  0  0  0
    3.0440   -3.1598   -0.4310 C   0  0  0  0  0  0  0  0  0  0  0  0
    2.1518   -3.7494   -1.0227 O   0  0  0  0  0  0  0  0  0  0  0  0
    3.4256   -1.7465   -0.4429 C   0  0  0  0  0  0  0  0  0  0  0  0
    4.2797   -1.5160    0.5638 C   0  0  0  0  0  0  0  0  0  0  0  0
    4.5325   -2.6965    1.5303 C   0  0  2  0  0  0  0  0  0  0  0  0
    6.6984   -4.2537   -0.8559 H   0  0  0  0  0  0  0  0  0  0  0  0
    8.0527   -4.5719    0.2293 H   0  0  0  0  0  0  0  0  0  0  0  0
    8.2304   -3.4245   -1.1069 H   0  0  0  0  0  0  0  0  0  0  0  0
    6.4097   -2.4510    2.5152 H   0  0  0  0  0  0  0  0  0  0  0  0
    6.8292   -4.6530    2.8844 H   0  0  0  0  0  0  0  0  0  0  0  0
    2.0679   -4.3160    1.5229 H   0  0  0  0  0  0  0  0  0  0  0  0
    1.1195   -4.5840    2.7220 H   0  0  0  0  0  0  0  0  0  0  0  0
    4.3048   -1.2381    3.1139 H   0  0  0  0  0  0  0  0  0  0  0  0
    5.3945   -2.9447    6.0742 H   0  0  0  0  0  0  0  0  0  0  0  0
    5.7507   -1.7769    4.8186 H   0  0  0  0  0  0  0  0  0  0  0  0
    5.9218   -3.5032    4.5242 H   0  0  0  0  0  0  0  0  0  0  0  0
    3.2958   -2.1635    6.5365 H   0  0  0  0  0  0  0  0  0  0  0  0
    2.0294   -1.8993    5.3846 H   0  0  0  0  0  0  0  0  0  0  0  0
    3.4339   -0.8330    5.3999 H   0  0  0  0  0  0  0  0  0  0  0  0
    3.8964   -4.7845    5.5380 H   0  0  0  0  0  0  0  0  0  0  0  0
    1.7202   -5.3092    6.0079 H   0  0  0  0  0  0  0  0  0  0  0  0
    0.9658   -4.3862    4.7191 H   0  0  0  0  0  0  0  0  0  0  0  0
    3.3511   -6.8374    5.4820 H   0  0  0  0  0  0  0  0  0  0  0  0
    1.9042   -7.8560    2.7065 H   0  0  0  0  0  0  0  0  0  0  0  0
    0.8966   -6.5536    2.3964 H   0  0  0  0  0  0  0  0  0  0  0  0
    3.2390   -7.4411    0.9978 H   0  0  0  0  0  0  0  0  0  0  0  0
    2.0771   -6.3314    0.4235 H   0  0  0  0  0  0  0  0  0  0  0  0
    3.9877   -5.8792   -1.0069 H   0  0  0  0  0  0  0  0  0  0  0  0
    4.7966   -3.8179   -0.2045 H   0  0  0  0  0  0  0  0  0  0  0  0
    3.0777   -1.0322   -1.1874 H   0  0  0  0  0  0  0  0  0  0  0  0
    4.7291   -0.5476    0.7508 H   0  0  0  0  0  0  0  0  0  0  0  0
  1  2  1  0
  1 32  1  0
  1 33  1  0
  1 34  1  0
  2  3  2  0
  2  4  1  0
  4 31  1  0
  4  5  1  0
  4 35  1  1
  5  6  2  0
  5 36  1  0
  6 24  1  0
  6  7  1  0
  7  8  2  0
  7  9  1  0
  9 18  1  0
  9 20  1  0
  9 10  1  6
 10 11  1  0
 10 37  1  0
 10 38  1  0
 11 12  1  0
 12 13  2  0
 12 14  1  0
 14 31  1  0
 14 15  1  0
 14 39  1  1
 15 16  1  0
 15 17  1  0
 15 18  1  0
 16 40  1  0
 16 41  1  0
 16 42  1  0
 17 43  1  0
 17 44  1  0
 17 45  1  0
 18 19  1  0
 18 46  1  1
 19 20  1  0
 19 47  1  0
 19 48  1  0
 20 21  1  1
 20 22  1  0
 21 49  1  0
 22 23  1  0
 22 50  1  0
 22 51  1  0
 23 24  1  0
 23 52  1  0
 23 53  1  0
 24 25  1  6
 24 26  1  0
 25 54  1  0
 26 31  1  0
 26 27  1  0
 26 55  1  6
 27 28  2  0
 27 29  1  0
 29 30  2  0
 29 56  1  0
 31 30  1  6
 30 57  1  0
M  END
>  <i_m_ct_stereo_status>  (293) 
1

>  <s_m_source_file>  (293) 
/var/tmp/pbs.5076255.sched01/tmpn8rdt6mw/90ee43ygr2.sdf

>  <i_m_source_file_index>  (293) 
35

>  <i_lp_mmshare_version>  (293) 
48012

>  <i_f3d_flags>  (293) 
0

>  <s_epik_input>  (293) 
W0NIM11DKD1PKVtDQEBIXTFbQ0hdPUMoQzI9TylbQ0BAXShbT0hdKShbQ0gyXVtDSDJdQzMoW0NIMl00KVtPSF0pW0NAQEhdKEMoPU8pW0NIXT1bQ0hdNSlbQ0BAXTE1W0NASF0oQyhbQ0gzXSkoW0NIM10pW0NAQEhdNFtDQEBdMjM2KUMoPU8pT1tDSDJdNg==

>  <s_epik_cmdline>  (293) 
J2VwaWtfcHl0aG9uJywgJy1waHQnLCAnMi4wJywgJy1waCcsICc3LjAnLCAnLXRuJywgJzgnLCAnLW1hJywgJzIwMCcsICctaW1hZScsICc8aW5maWxlLm1hZT4nLCAnLW9tYWUnLCAnPG91dGZpbGUubWFlPic=

>  <r_lp_tautomer_probability>  (293) 
1

>  <r_epik_Ionization_Penalty>  (293) 
9.7592e-06

>  <r_epik_Ionization_Penalty_Charging>  (293) 
0

>  <r_epik_Ionization_Penalty_Neutral>  (293) 
9.7592e-06

>  <r_epik_State_Penalty>  (293) 
-0

>  <r_epik_Charging_Adjusted_Penalty>  (293) 
0

>  <i_epik_Tot_Q>  (293) 
0

>  <i_epik_Tot_abs_Q>  (293) 
0

>  <s_epik_Chemistry_Notes>  (293) 
This compound has an ester and may undergo hydrolysis at high or low pH.

>  <s_lp_Force_Field>  (293) 
OPLS3e

>  <r_lp_Energy>  (293) 
273.91

>  <b_lp_Chiralities_Consistent>  (293) 
1

>  <s_lp_Variant>  (293) 
77:0-2

>  <s_i_glide_gridfile>  (293) 
pfpi4k_grid

>  <i_i_glide_lignum>  (293) 
35

>  <i_i_glide_rotatable_bonds>  (293) 
3

>  <r_i_docking_score>  (293) 
-2.4247

>  <r_i_glide_ligand_efficiency>  (293) 
-0.0782163

>  <r_i_glide_ligand_efficiency_sa>  (293) 
-0.245707

>  <r_i_glide_ligand_efficiency_ln>  (293) 
-0.546845

>  <r_i_glide_gscore>  (293) 
-2.4247

>  <r_i_glide_lipo>  (293) 
-0.357134

>  <r_i_glide_hbond>  (293) 
-0.0391718

>  <r_i_glide_metal>  (293) 
-0

>  <r_i_glide_rewards>  (293) 
-0.650367

>  <r_i_glide_evdw>  (293) 
-22.1765

>  <r_i_glide_ecoul>  (293) 
-1.69892

>  <r_i_glide_erotb>  (293) 
0

>  <r_i_glide_esite>  (293) 
-0.0143674

>  <r_i_glide_emodel>  (293) 
-25.931

>  <r_i_glide_energy>  (293) 
-23.8754

>  <r_i_glide_einternal>  (293) 
2.43625

>  <r_i_glide_intrahb_reward>  (293) 
-0

>  <i_i_glide_confnum>  (293) 
2

>  <i_i_glide_posenum>  (293) 
28

>  <r_i_glide_eff_state_penalty>  (293) 
0

>  <ligand_id>  (293) 
77

>  <original_smiles>  (293) 
CC(=O)C1C=C2C(=O)C34COC(=O)C5C(C)(C)C3CC4(O)CCC2(O)C2C(=O)C=CC125

>  <smiles>  (293) 
[H]OC12C3=C([H])C([H])(C(=O)C([H])([H])[H])C4(C([H])=C([H])C(=O)C14[H])C1([H])C(=O)OC([H])([H])C4(C3=O)C([H])(C([H])([H])C4(O[H])C([H])([H])C2([H])[H])C1(C([H])([H])[H])C([H])([H])[H]

$$$$
77:1:2
     RDKit          3D

 57 62  0  0  1  0  0  0  0  0999 V2000
    6.8655   -6.6984    3.1772 C   0  0  0  0  0  0  0  0  0  0  0  0
    5.7624   -5.9956    3.9680 C   0  0  0  0  0  0  0  0  0  0  0  0
    5.2905   -6.5115    4.9813 O   0  0  0  0  0  0  0  0  0  0  0  0
    5.3094   -4.6089    3.4622 C   0  0  2  0  0  0  0  0  0  0  0  0
    4.9291   -3.7206    4.6412 C   0  0  0  0  0  0  0  0  0  0  0  0
    3.6784   -3.2176    4.8192 C   0  0  0  0  0  0  0  0  0  0  0  0
    3.6823   -1.8616    4.3890 C   0  0  0  0  0  0  0  0  0  0  0  0
    4.3337   -1.0530    5.0582 O   0  0  0  0  0  0  0  0  0  0  0  0
    2.9414   -1.4974    3.0544 C   0  0  2  0  0  0  0  0  0  0  0  0
    2.0288   -2.4295    2.0192 C   0  0  0  0  0  0  0  0  0  0  0  0
    2.2766   -2.6648    0.6452 O   0  0  0  0  0  0  0  0  0  0  0  0
    3.3137   -3.3256    0.2612 C   0  0  0  0  0  0  0  0  0  0  0  0
    3.4551   -3.8480   -0.8413 O   0  0  0  0  0  0  0  0  0  0  0  0
    4.4100   -3.3013    1.3005 C   0  0  1  0  0  0  0  0  0  0  0  0
    4.8010   -1.6927    1.4321 C   0  0  0  0  0  0  0  0  0  0  0  0
    6.1983   -1.6440    2.0640 C   0  0  0  0  0  0  0  0  0  0  0  0
    5.0307   -1.0409    0.0388 C   0  0  0  0  0  0  0  0  0  0  0  0
    3.8439   -0.6889    2.2301 C   0  0  1  0  0  0  0  0  0  0  0  0
    2.4863    0.0959    1.9576 C   0  0  0  0  0  0  0  0  0  0  0  0
    1.9901   -0.4081    3.4027 C   0  0  2  0  0  0  0  0  0  0  0  0
    2.2498    0.5994    4.3694 O   0  0  0  0  0  0  0  0  0  0  0  0
    0.7894   -1.2816    4.0130 C   0  0  0  0  0  0  0  0  0  0  0  0
    1.0330   -2.8300    4.5699 C   0  0  0  0  0  0  0  0  0  0  0  0
    2.3547   -3.8531    4.4650 C   0  0  2  0  0  0  0  0  0  0  0  0
    2.0242   -4.7609    5.5046 O   0  0  0  0  0  0  0  0  0  0  0  0
    2.8197   -4.8119    3.2613 C   0  0  1  0  0  0  0  0  0  0  0  0
    1.9355   -5.7139    2.4079 C   0  0  0  0  0  0  0  0  0  0  0  0
    0.7128   -5.8355    2.4995 O   0  0  0  0  0  0  0  0  0  0  0  0
    2.8393   -6.3881    1.4857 C   0  0  0  0  0  0  0  0  0  0  0  0
    4.0479   -5.8016    1.5375 C   0  0  0  0  0  0  0  0  0  0  0  0
    4.1616   -4.5312    2.4065 C   0  0  2  0  0  0  0  0  0  0  0  0
    7.7769   -6.1014    3.1723 H   0  0  0  0  0  0  0  0  0  0  0  0
    6.5622   -6.8601    2.1448 H   0  0  0  0  0  0  0  0  0  0  0  0
    7.0932   -7.6674    3.6175 H   0  0  0  0  0  0  0  0  0  0  0  0
    6.2003   -4.1725    3.0115 H   0  0  0  0  0  0  0  0  0  0  0  0
    5.7708   -3.0992    4.9054 H   0  0  0  0  0  0  0  0  0  0  0  0
    1.4825   -3.2696    2.3824 H   0  0  0  0  0  0  0  0  0  0  0  0
    1.1279   -1.8776    1.7770 H   0  0  0  0  0  0  0  0  0  0  0  0
    5.2619   -3.6854    0.7406 H   0  0  0  0  0  0  0  0  0  0  0  0
    6.6391   -0.6516    2.0232 H   0  0  0  0  0  0  0  0  0  0  0  0
    6.8940   -2.3208    1.5642 H   0  0  0  0  0  0  0  0  0  0  0  0
    6.1781   -1.9090    3.1108 H   0  0  0  0  0  0  0  0  0  0  0  0
    5.4864   -0.0561    0.1393 H   0  0  0  0  0  0  0  0  0  0  0  0
    4.0984   -0.8732   -0.5030 H   0  0  0  0  0  0  0  0  0  0  0  0
    5.6841   -1.6405   -0.5934 H   0  0  0  0  0  0  0  0  0  0  0  0
    4.4485    0.0191    2.8037 H   0  0  0  0  0  0  0  0  0  0  0  0
    2.6568    1.1701    1.9143 H   0  0  0  0  0  0  0  0  0  0  0  0
    1.9082   -0.1744    1.0732 H   0  0  0  0  0  0  0  0  0  0  0  0
    2.9355    1.1427    4.0153 H   0  0  0  0  0  0  0  0  0  0  0  0
    0.3355   -0.7261    4.8348 H   0  0  0  0  0  0  0  0  0  0  0  0
   -0.0376   -1.2995    3.3052 H   0  0  0  0  0  0  0  0  0  0  0  0
    0.8574   -2.7087    5.6407 H   0  0  0  0  0  0  0  0  0  0  0  0
    0.1701   -3.4106    4.2407 H   0  0  0  0  0  0  0  0  0  0  0  0
    1.9927   -4.2954    6.3257 H   0  0  0  0  0  0  0  0  0  0  0  0
    3.1667   -5.6496    3.8714 H   0  0  0  0  0  0  0  0  0  0  0  0
    2.5621   -7.2506    0.8916 H   0  0  0  0  0  0  0  0  0  0  0  0
    4.8866   -6.1410    0.9489 H   0  0  0  0  0  0  0  0  0  0  0  0
  1  2  1  0
  1 32  1  0
  1 33  1  0
  1 34  1  0
  2  3  2  0
  2  4  1  0
  4 31  1  0
  4  5  1  0
  4 35  1  6
  5  6  2  0
  5 36  1  0
  6 24  1  0
  6  7  1  0
  7  8  2  0
  7  9  1  0
  9 18  1  0
  9 20  1  0
  9 10  1  6
 10 11  1  0
 10 37  1  0
 10 38  1  0
 11 12  1  0
 12 13  2  0
 12 14  1  0
 14 31  1  0
 14 15  1  0
 14 39  1  6
 15 16  1  0
 15 17  1  0
 15 18  1  0
 16 40  1  0
 16 41  1  0
 16 42  1  0
 17 43  1  0
 17 44  1  0
 17 45  1  0
 18 19  1  0
 18 46  1  1
 19 20  1  0
 19 47  1  0
 19 48  1  0
 20 21  1  1
 20 22  1  0
 21 49  1  0
 22 23  1  0
 22 50  1  0
 22 51  1  0
 23 24  1  0
 23 52  1  0
 23 53  1  0
 24 25  1  1
 24 26  1  0
 25 54  1  0
 26 31  1  0
 26 27  1  0
 26 55  1  1
 27 28  2  0
 27 29  1  0
 29 30  2  0
 29 56  1  0
 31 30  1  6
 30 57  1  0
M  END
>  <i_m_ct_stereo_status>  (294) 
1

>  <s_m_source_file>  (294) 
/var/tmp/pbs.5076255.sched01/tmpn8rdt6mw/90ee43ygr2.sdf

>  <i_m_source_file_index>  (294) 
35

>  <i_lp_mmshare_version>  (294) 
48012

>  <i_f3d_flags>  (294) 
0

>  <s_epik_input>  (294) 
W0NIM11DKD1PKVtDQEBIXTFbQ0hdPUMoQzI9TylbQ0BAXShbT0hdKShbQ0gyXVtDSDJdQzMoW0NIMl00KVtPSF0pW0NAQEhdKEMoPU8pW0NIXT1bQ0hdNSlbQ0BAXTE1W0NASF0oQyhbQ0gzXSkoW0NIM10pW0NAQEhdNFtDQEBdMjM2KUMoPU8pT1tDSDJdNg==

>  <s_epik_cmdline>  (294) 
J2VwaWtfcHl0aG9uJywgJy1waHQnLCAnMi4wJywgJy1waCcsICc3LjAnLCAnLXRuJywgJzgnLCAnLW1hJywgJzIwMCcsICctaW1hZScsICc8aW5maWxlLm1hZT4nLCAnLW9tYWUnLCAnPG91dGZpbGUubWFlPic=

>  <r_lp_tautomer_probability>  (294) 
1

>  <r_epik_Ionization_Penalty>  (294) 
9.7592e-06

>  <r_epik_Ionization_Penalty_Charging>  (294) 
0

>  <r_epik_Ionization_Penalty_Neutral>  (294) 
9.7592e-06

>  <r_epik_State_Penalty>  (294) 
-0

>  <r_epik_Charging_Adjusted_Penalty>  (294) 
0

>  <i_epik_Tot_Q>  (294) 
0

>  <i_epik_Tot_abs_Q>  (294) 
0

>  <s_epik_Chemistry_Notes>  (294) 
This compound has an ester and may undergo hydrolysis at high or low pH.

>  <s_lp_Force_Field>  (294) 
OPLS3e

>  <r_lp_Energy>  (294) 
273.91

>  <b_lp_Chiralities_Consistent>  (294) 
1

>  <s_lp_Variant>  (294) 
77:0-2

>  <s_i_glide_gridfile>  (294) 
pfpi4k_grid

>  <i_i_glide_lignum>  (294) 
35

>  <i_i_glide_rotatable_bonds>  (294) 
3

>  <r_i_docking_score>  (294) 
-2.25634

>  <r_i_glide_ligand_efficiency>  (294) 
-0.0727851

>  <r_i_glide_ligand_efficiency_sa>  (294) 
-0.228646

>  <r_i_glide_ligand_efficiency_ln>  (294) 
-0.508873

>  <r_i_glide_gscore>  (294) 
-2.25634

>  <r_i_glide_lipo>  (294) 
-0.322538

>  <r_i_glide_hbond>  (294) 
-0.0840967

>  <r_i_glide_metal>  (294) 
-0

>  <r_i_glide_rewards>  (294) 
-0.502429

>  <r_i_glide_evdw>  (294) 
-20.9948

>  <r_i_glide_ecoul>  (294) 
-1.80173

>  <r_i_glide_erotb>  (294) 
0

>  <r_i_glide_esite>  (294) 
-0.027277

>  <r_i_glide_emodel>  (294) 
-25.7052

>  <r_i_glide_energy>  (294) 
-22.7965

>  <r_i_glide_einternal>  (294) 
0.159705

>  <r_i_glide_intrahb_reward>  (294) 
-0

>  <i_i_glide_confnum>  (294) 
2

>  <i_i_glide_posenum>  (294) 
1

>  <r_i_glide_eff_state_penalty>  (294) 
0

>  <ligand_id>  (294) 
77

>  <original_smiles>  (294) 
CC(=O)C1C=C2C(=O)C34COC(=O)C5C(C)(C)C3CC4(O)CCC2(O)C2C(=O)C=CC125

>  <smiles>  (294) 
[H]OC12C3=C([H])C([H])(C(=O)C([H])([H])[H])C4(C([H])=C([H])C(=O)C14[H])C1([H])C(=O)OC([H])([H])C4(C3=O)C([H])(C([H])([H])C4(O[H])C([H])([H])C2([H])[H])C1(C([H])([H])[H])C([H])([H])[H]

$$$$
78:0:0
     RDKit          3D

 46 51  0  0  1  0  0  0  0  0999 V2000
    4.0136   -0.0632    4.8110 C   0  0  0  0  0  0  0  0  0  0  0  0
    4.9242   -0.9628    3.9562 C   0  0  2  0  0  0  0  0  0  0  0  0
    5.3720   -0.1903    2.8482 O   0  0  0  0  0  0  0  0  0  0  0  0
    5.0575   -0.5111    1.5085 C   0  0  1  0  0  0  0  0  0  0  0  0
    6.2147   -0.8890    0.7895 O   0  0  0  0  0  0  0  0  0  0  0  0
    5.8252   -1.6490   -0.3827 C   0  0  1  0  0  0  0  0  0  0  0  0
    5.6288   -3.2276   -0.7369 C   0  0  2  0  0  0  0  0  0  0  0  0
    5.3785   -2.8926   -2.1963 C   0  0  0  0  0  0  0  0  0  0  0  0
    4.0848   -2.1563   -1.7923 C   0  0  1  0  0  0  0  0  0  0  0  0
    3.5619   -1.2171   -2.8924 C   0  0  0  0  0  0  0  0  0  0  0  0
    3.2048   -3.3180   -1.5643 C   0  0  0  0  0  0  0  0  0  0  0  0
    4.1867   -4.0667   -0.6650 C   0  0  2  0  0  0  0  0  0  0  0  0
    3.2803   -4.4311    0.5209 C   0  0  0  0  0  0  0  0  0  0  0  0
    2.6310   -3.6173    1.3971 C   0  0  0  0  0  0  0  0  0  0  0  0
    2.9026   -2.1322    1.6807 C   0  0  1  0  0  0  0  0  0  0  0  0
    3.0112   -2.0224    3.0848 O   0  0  0  0  0  0  0  0  0  0  0  0
    4.3485   -2.3120    3.4992 C   0  0  2  0  0  0  0  0  0  0  0  0
    4.3189   -3.3428    4.6492 C   0  0  0  0  0  0  0  0  0  0  0  0
    5.1614   -2.7005    2.2354 C   0  0  1  0  0  0  0  0  0  0  0  0
    5.4097   -4.0933    2.1595 O   0  0  0  0  0  0  0  0  0  0  0  0
    4.3047   -1.8070    1.1872 C   0  0  2  0  0  0  0  0  0  0  0  0
    4.4034   -1.4213   -0.4116 C   0  0  1  0  0  0  0  0  0  0  0  0
    3.6340   -0.5811    5.6939 H   0  0  0  0  0  0  0  0  0  0  0  0
    3.1655    0.3199    4.2413 H   0  0  0  0  0  0  0  0  0  0  0  0
    4.5811    0.7986    5.1578 H   0  0  0  0  0  0  0  0  0  0  0  0
    5.8153   -1.1672    4.5504 H   0  0  0  0  0  0  0  0  0  0  0  0
    4.6010    0.4067    1.1291 H   0  0  0  0  0  0  0  0  0  0  0  0
    6.3495   -1.0760   -1.1430 H   0  0  0  0  0  0  0  0  0  0  0  0
    6.5202   -3.8385   -0.5872 H   0  0  0  0  0  0  0  0  0  0  0  0
    6.1307   -2.2920   -2.7066 H   0  0  0  0  0  0  0  0  0  0  0  0
    5.2329   -3.7580   -2.8480 H   0  0  0  0  0  0  0  0  0  0  0  0
    2.6187   -0.7621   -2.5910 H   0  0  0  0  0  0  0  0  0  0  0  0
    3.3836   -1.7524   -3.8251 H   0  0  0  0  0  0  0  0  0  0  0  0
    4.2598   -0.4064   -3.1017 H   0  0  0  0  0  0  0  0  0  0  0  0
    2.2550   -3.0071   -1.1236 H   0  0  0  0  0  0  0  0  0  0  0  0
    2.9809   -3.8576   -2.4858 H   0  0  0  0  0  0  0  0  0  0  0  0
    4.3983   -5.0404   -1.1134 H   0  0  0  0  0  0  0  0  0  0  0  0
    2.9988   -5.4742    0.5202 H   0  0  0  0  0  0  0  0  0  0  0  0
    1.9353   -4.0821    2.0786 H   0  0  0  0  0  0  0  0  0  0  0  0
    2.1092   -1.4956    1.2780 H   0  0  0  0  0  0  0  0  0  0  0  0
    5.3289   -3.5687    4.9967 H   0  0  0  0  0  0  0  0  0  0  0  0
    3.8477   -4.2749    4.3380 H   0  0  0  0  0  0  0  0  0  0  0  0
    3.7538   -2.9570    5.4973 H   0  0  0  0  0  0  0  0  0  0  0  0
    6.2015   -2.4053    2.4020 H   0  0  0  0  0  0  0  0  0  0  0  0
    4.5780   -4.5144    1.9917 H   0  0  0  0  0  0  0  0  0  0  0  0
    4.1314   -0.3856   -0.6223 H   0  0  0  0  0  0  0  0  0  0  0  0
  1  2  1  0
  1 23  1  0
  1 24  1  0
  1 25  1  0
  2 17  1  0
  2  3  1  0
  2 26  1  1
  3  4  1  0
 21  4  1  1
  4  5  1  0
  4 27  1  6
  5  6  1  0
  6 22  1  0
  6  7  1  0
  6 28  1  6
  7 12  1  0
  7  8  1  0
  7 29  1  6
  8  9  1  0
  8 30  1  0
  8 31  1  0
  9 22  1  0
  9 10  1  6
  9 11  1  0
 10 32  1  0
 10 33  1  0
 10 34  1  0
 11 12  1  0
 11 35  1  0
 11 36  1  0
 12 13  1  0
 12 37  1  6
 13 14  2  3
 13 38  1  0
 14 15  1  0
 14 39  1  0
 15 21  1  0
 15 16  1  0
 15 40  1  6
 16 17  1  0
 17 18  1  1
 17 19  1  0
 18 41  1  0
 18 42  1  0
 18 43  1  0
 19 20  1  0
 19 21  1  0
 19 44  1  1
 20 45  1  0
 21 22  1  0
 22 46  1  1
M  END
>  <i_m_ct_stereo_status>  (295) 
1

>  <s_m_source_file>  (295) 
/var/tmp/pbs.5076255.sched01/tmpn8rdt6mw/90ee43ygr2.sdf

>  <i_m_source_file_index>  (295) 
36

>  <i_lp_mmshare_version>  (295) 
48012

>  <i_f3d_flags>  (295) 
0

>  <s_epik_input>  (295) 
W0NAQF0xMjNbQ0BIXTRPW0NAQEhdKFtDSDNdKVtDQF0oW0NIM10pKFtDQEhdMltPSF0pT1tDQEBIXTEvW0NIXT1bQ0hdXFtDQEBIXTVbQ0BASF02W0NASF0oTzQpW0NASF0zW0NAXShbQ0gyXTYpKFtDSDNdKVtDSDJdNQ==

>  <s_epik_cmdline>  (295) 
J2VwaWtfcHl0aG9uJywgJy1waHQnLCAnMi4wJywgJy1waCcsICc3LjAnLCAnLXRuJywgJzgnLCAnLW1hJywgJzIwMCcsICctaW1hZScsICc8aW5maWxlLm1hZT4nLCAnLW9tYWUnLCAnPG91dGZpbGUubWFlPic=

>  <r_lp_tautomer_probability>  (295) 
1

>  <r_epik_Ionization_Penalty>  (295) 
1.25342e-06

>  <r_epik_Ionization_Penalty_Charging>  (295) 
0

>  <r_epik_Ionization_Penalty_Neutral>  (295) 
1.25342e-06

>  <r_epik_State_Penalty>  (295) 
-0

>  <r_epik_Charging_Adjusted_Penalty>  (295) 
0

>  <i_epik_Tot_Q>  (295) 
0

>  <i_epik_Tot_abs_Q>  (295) 
0

>  <s_epik_Chemistry_Notes>  (295) 
This compound contains an acetal/aminal-like group ( X-CH(R)-Y where X, Y are N, S, or O) that may be acid/base labile, releasing an aldehyde.

>  <s_lp_Force_Field>  (295) 
OPLS3e

>  <r_lp_Energy>  (295) 
205.155

>  <b_lp_Chiralities_Consistent>  (295) 
1

>  <s_lp_Variant>  (295) 
78:0-1

>  <s_i_glide_gridfile>  (295) 
pfpi4k_grid

>  <i_i_glide_lignum>  (295) 
36

>  <i_i_glide_rotatable_bonds>  (295) 
1

>  <r_i_docking_score>  (295) 
-3.38102

>  <r_i_glide_ligand_efficiency>  (295) 
-0.153683

>  <r_i_glide_ligand_efficiency_sa>  (295) 
-0.430625

>  <r_i_glide_ligand_efficiency_ln>  (295) 
-0.826444

>  <r_i_glide_gscore>  (295) 
-3.38102

>  <r_i_glide_lipo>  (295) 
-0.422471

>  <r_i_glide_hbond>  (295) 
-0.0867214

>  <r_i_glide_metal>  (295) 
-0

>  <r_i_glide_rewards>  (295) 
-1.55583

>  <r_i_glide_evdw>  (295) 
-24.9384

>  <r_i_glide_ecoul>  (295) 
-0.460504

>  <r_i_glide_erotb>  (295) 
0

>  <r_i_glide_esite>  (295) 
0

>  <r_i_glide_emodel>  (295) 
-30.545

>  <r_i_glide_energy>  (295) 
-25.3989

>  <r_i_glide_einternal>  (295) 
0.00441251

>  <r_i_glide_intrahb_reward>  (295) 
-0

>  <i_i_glide_confnum>  (295) 
1

>  <i_i_glide_posenum>  (295) 
25

>  <r_i_glide_eff_state_penalty>  (295) 
0

>  <ligand_id>  (295) 
78

>  <original_smiles>  (295) 
CC1OC2OC3C4CC5(C)CC4C=CC4OC1(C)C(O)C42C35

>  <smiles>  (295) 
[H]OC1([H])C2(C([H])([H])[H])OC3([H])C([H])=C([H])C4([H])C([H])([H])C5(C([H])([H])[H])C([H])([H])C4([H])C4([H])OC([H])(OC2([H])C([H])([H])[H])C31C45[H]

$$$$
78:0:1
     RDKit          3D

 46 51  0  0  1  0  0  0  0  0999 V2000
    2.5683   -7.7659    2.2572 C   0  0  0  0  0  0  0  0  0  0  0  0
    2.8973   -6.2796    2.4870 C   0  0  2  0  0  0  0  0  0  0  0  0
    2.0979   -5.5323    1.5718 O   0  0  0  0  0  0  0  0  0  0  0  0
    2.6537   -4.6982    0.5764 C   0  0  1  0  0  0  0  0  0  0  0  0
    2.4155   -3.3340    0.8508 O   0  0  0  0  0  0  0  0  0  0  0  0
    3.3511   -2.5148    0.0967 C   0  0  1  0  0  0  0  0  0  0  0  0
    4.8174   -1.8545    0.3766 C   0  0  2  0  0  0  0  0  0  0  0  0
    4.7846   -1.1548   -0.9686 C   0  0  0  0  0  0  0  0  0  0  0  0
    4.8347   -2.5223   -1.6754 C   0  0  1  0  0  0  0  0  0  0  0  0
    4.4074   -2.4486   -3.1525 C   0  0  0  0  0  0  0  0  0  0  0  0
    6.2670   -2.8358   -1.5010 C   0  0  0  0  0  0  0  0  0  0  0  0
    6.2962   -2.5418   -0.0016 C   0  0  2  0  0  0  0  0  0  0  0  0
    6.9869   -3.8096    0.5322 C   0  0  0  0  0  0  0  0  0  0  0  0
    6.5726   -5.1040    0.4837 C   0  0  0  0  0  0  0  0  0  0  0  0
    5.1538   -5.6399    0.2239 C   0  0  1  0  0  0  0  0  0  0  0  0
    4.8865   -6.5603    1.2625 O   0  0  0  0  0  0  0  0  0  0  0  0
    4.3789   -5.8757    2.4084 C   0  0  2  0  0  0  0  0  0  0  0  0
    5.1740   -6.3152    3.6569 C   0  0  0  0  0  0  0  0  0  0  0  0
    4.3718   -4.3590    2.0849 C   0  0  1  0  0  0  0  0  0  0  0  0
    5.4132   -3.6570    2.7385 O   0  0  0  0  0  0  0  0  0  0  0  0
    4.1706   -4.5128    0.4820 C   0  0  2  0  0  0  0  0  0  0  0  0
    3.9281   -3.4946   -0.7915 C   0  0  1  0  0  0  0  0  0  0  0  0
    3.1385   -8.4270    2.9096 H   0  0  0  0  0  0  0  0  0  0  0  0
    2.7544   -8.0632    1.2256 H   0  0  0  0  0  0  0  0  0  0  0  0
    1.5112   -7.9424    2.4520 H   0  0  0  0  0  0  0  0  0  0  0  0
    2.5386   -6.0137    3.4841 H   0  0  0  0  0  0  0  0  0  0  0  0
    2.1648   -5.0455   -0.3347 H   0  0  0  0  0  0  0  0  0  0  0  0
    2.6367   -1.8552   -0.3958 H   0  0  0  0  0  0  0  0  0  0  0  0
    4.8419   -1.1637    1.2218 H   0  0  0  0  0  0  0  0  0  0  0  0
    3.9097   -0.5488   -1.1936 H   0  0  0  0  0  0  0  0  0  0  0  0
    5.6340   -0.4991   -1.1633 H   0  0  0  0  0  0  0  0  0  0  0  0
    4.5160   -3.4164   -3.6366 H   0  0  0  0  0  0  0  0  0  0  0  0
    5.0100   -1.7303   -3.7056 H   0  0  0  0  0  0  0  0  0  0  0  0
    3.3630   -2.1511   -3.2486 H   0  0  0  0  0  0  0  0  0  0  0  0
    6.4739   -3.8529   -1.8158 H   0  0  0  0  0  0  0  0  0  0  0  0
    6.9208   -2.1778   -2.0743 H   0  0  0  0  0  0  0  0  0  0  0  0
    7.0397   -1.7589    0.1759 H   0  0  0  0  0  0  0  0  0  0  0  0
    8.0168   -3.6384    0.8098 H   0  0  0  0  0  0  0  0  0  0  0  0
    7.2861   -5.8567    0.7913 H   0  0  0  0  0  0  0  0  0  0  0  0
    5.0621   -6.1059   -0.7588 H   0  0  0  0  0  0  0  0  0  0  0  0
    4.7978   -5.8191    4.5533 H   0  0  0  0  0  0  0  0  0  0  0  0
    6.2364   -6.0850    3.5587 H   0  0  0  0  0  0  0  0  0  0  0  0
    5.0877   -7.3925    3.8110 H   0  0  0  0  0  0  0  0  0  0  0  0
    3.5526   -3.9068    2.6481 H   0  0  0  0  0  0  0  0  0  0  0  0
    6.2266   -3.9688    2.3664 H   0  0  0  0  0  0  0  0  0  0  0  0
    3.2253   -3.8882   -1.5280 H   0  0  0  0  0  0  0  0  0  0  0  0
  1  2  1  0
  1 23  1  0
  1 24  1  0
  1 25  1  0
  2 17  1  0
  2  3  1  0
  2 26  1  1
  3  4  1  0
 21  4  1  1
  4  5  1  0
  4 27  1  6
  5  6  1  0
  6 22  1  0
  6  7  1  0
  6 28  1  6
  7 12  1  0
  7  8  1  0
  7 29  1  1
  8  9  1  0
  8 30  1  0
  8 31  1  0
  9 22  1  0
  9 10  1  6
  9 11  1  0
 10 32  1  0
 10 33  1  0
 10 34  1  0
 11 12  1  0
 11 35  1  0
 11 36  1  0
 12 13  1  0
 12 37  1  6
 13 14  2  3
 13 38  1  0
 14 15  1  0
 14 39  1  0
 15 21  1  0
 15 16  1  0
 15 40  1  6
 16 17  1  0
 17 18  1  1
 17 19  1  0
 18 41  1  0
 18 42  1  0
 18 43  1  0
 19 20  1  0
 19 21  1  0
 19 44  1  1
 20 45  1  0
 21 22  1  0
 22 46  1  6
M  END
>  <i_m_ct_stereo_status>  (296) 
1

>  <s_m_source_file>  (296) 
/var/tmp/pbs.5076255.sched01/tmpn8rdt6mw/90ee43ygr2.sdf

>  <i_m_source_file_index>  (296) 
36

>  <i_lp_mmshare_version>  (296) 
48012

>  <i_f3d_flags>  (296) 
0

>  <s_epik_input>  (296) 
W0NAQF0xMjNbQ0BIXTRPW0NAQEhdKFtDSDNdKVtDQF0oW0NIM10pKFtDQEhdMltPSF0pT1tDQEBIXTEvW0NIXT1bQ0hdXFtDQEBIXTVbQ0BASF02W0NASF0oTzQpW0NASF0zW0NAXShbQ0gyXTYpKFtDSDNdKVtDSDJdNQ==

>  <s_epik_cmdline>  (296) 
J2VwaWtfcHl0aG9uJywgJy1waHQnLCAnMi4wJywgJy1waCcsICc3LjAnLCAnLXRuJywgJzgnLCAnLW1hJywgJzIwMCcsICctaW1hZScsICc8aW5maWxlLm1hZT4nLCAnLW9tYWUnLCAnPG91dGZpbGUubWFlPic=

>  <r_lp_tautomer_probability>  (296) 
1

>  <r_epik_Ionization_Penalty>  (296) 
1.25342e-06

>  <r_epik_Ionization_Penalty_Charging>  (296) 
0

>  <r_epik_Ionization_Penalty_Neutral>  (296) 
1.25342e-06

>  <r_epik_State_Penalty>  (296) 
-0

>  <r_epik_Charging_Adjusted_Penalty>  (296) 
0

>  <i_epik_Tot_Q>  (296) 
0

>  <i_epik_Tot_abs_Q>  (296) 
0

>  <s_epik_Chemistry_Notes>  (296) 
This compound contains an acetal/aminal-like group ( X-CH(R)-Y where X, Y are N, S, or O) that may be acid/base labile, releasing an aldehyde.

>  <s_lp_Force_Field>  (296) 
OPLS3e

>  <r_lp_Energy>  (296) 
205.155

>  <b_lp_Chiralities_Consistent>  (296) 
1

>  <s_lp_Variant>  (296) 
78:0-1

>  <s_i_glide_gridfile>  (296) 
pfpi4k_grid

>  <i_i_glide_lignum>  (296) 
36

>  <i_i_glide_rotatable_bonds>  (296) 
1

>  <r_i_docking_score>  (296) 
-3.21007

>  <r_i_glide_ligand_efficiency>  (296) 
-0.145912

>  <r_i_glide_ligand_efficiency_sa>  (296) 
-0.408852

>  <r_i_glide_ligand_efficiency_ln>  (296) 
-0.784658

>  <r_i_glide_gscore>  (296) 
-3.21007

>  <r_i_glide_lipo>  (296) 
-0.554054

>  <r_i_glide_hbond>  (296) 
0

>  <r_i_glide_metal>  (296) 
-0

>  <r_i_glide_rewards>  (296) 
-1.33377

>  <r_i_glide_evdw>  (296) 
-23.5861

>  <r_i_glide_ecoul>  (296) 
-0.727413

>  <r_i_glide_erotb>  (296) 
0

>  <r_i_glide_esite>  (296) 
-0.0338326

>  <r_i_glide_emodel>  (296) 
-29.1764

>  <r_i_glide_energy>  (296) 
-24.3135

>  <r_i_glide_einternal>  (296) 
3.63985e-05

>  <r_i_glide_intrahb_reward>  (296) 
-0

>  <i_i_glide_confnum>  (296) 
1

>  <i_i_glide_posenum>  (296) 
6

>  <r_i_glide_eff_state_penalty>  (296) 
0

>  <ligand_id>  (296) 
78

>  <original_smiles>  (296) 
CC1OC2OC3C4CC5(C)CC4C=CC4OC1(C)C(O)C42C35

>  <smiles>  (296) 
[H]OC1([H])C2(C([H])([H])[H])OC3([H])C([H])=C([H])C4([H])C([H])([H])C5(C([H])([H])[H])C([H])([H])C4([H])C4([H])OC([H])(OC2([H])C([H])([H])[H])C31C45[H]

$$$$
78:0:2
     RDKit          3D

 46 51  0  0  1  0  0  0  0  0999 V2000
    2.7982   -7.6906    2.4583 C   0  0  0  0  0  0  0  0  0  0  0  0
    3.0349   -6.1769    2.5961 C   0  0  2  0  0  0  0  0  0  0  0  0
    2.2304   -5.5402    1.6070 O   0  0  0  0  0  0  0  0  0  0  0  0
    2.7737   -4.7487    0.5718 C   0  0  1  0  0  0  0  0  0  0  0  0
    2.4527   -3.3825    0.7385 O   0  0  0  0  0  0  0  0  0  0  0  0
    3.3670   -2.5670   -0.0421 C   0  0  1  0  0  0  0  0  0  0  0  0
    4.7810   -1.8015    0.2403 C   0  0  2  0  0  0  0  0  0  0  0  0
    4.7542   -1.1983   -1.1514 C   0  0  0  0  0  0  0  0  0  0  0  0
    4.9100   -2.6079   -1.7530 C   0  0  1  0  0  0  0  0  0  0  0  0
    4.5343   -2.6680   -3.2437 C   0  0  0  0  0  0  0  0  0  0  0  0
    6.3515   -2.8216   -1.5121 C   0  0  0  0  0  0  0  0  0  0  0  0
    6.3084   -2.4260   -0.0379 C   0  0  2  0  0  0  0  0  0  0  0  0
    7.0468   -3.6154    0.6022 C   0  0  0  0  0  0  0  0  0  0  0  0
    6.7111   -4.9321    0.6325 C   0  0  0  0  0  0  0  0  0  0  0  0
    5.3364   -5.5663    0.3676 C   0  0  1  0  0  0  0  0  0  0  0  0
    5.0783   -6.4270    1.4593 O   0  0  0  0  0  0  0  0  0  0  0  0
    4.4954   -5.6934    2.5374 C   0  0  2  0  0  0  0  0  0  0  0  0
    5.2628   -5.9964    3.8419 C   0  0  0  0  0  0  0  0  0  0  0  0
    4.4201   -4.2071    2.1067 C   0  0  1  0  0  0  0  0  0  0  0  0
    5.3847   -3.3897    2.7509 O   0  0  0  0  0  0  0  0  0  0  0  0
    4.2835   -4.4827    0.5154 C   0  0  2  0  0  0  0  0  0  0  0  0
    4.0315   -3.5725   -0.8338 C   0  0  1  0  0  0  0  0  0  0  0  0
    3.3797   -8.2729    3.1747 H   0  0  0  0  0  0  0  0  0  0  0  0
    3.0363   -8.0456    1.4550 H   0  0  0  0  0  0  0  0  0  0  0  0
    1.7456   -7.9129    2.6322 H   0  0  0  0  0  0  0  0  0  0  0  0
    2.6258   -5.8643    3.5602 H   0  0  0  0  0  0  0  0  0  0  0  0
    2.3356   -5.1851   -0.3273 H   0  0  0  0  0  0  0  0  0  0  0  0
    2.6404   -1.9900   -0.6110 H   0  0  0  0  0  0  0  0  0  0  0  0
    4.7307   -1.0457    1.0274 H   0  0  0  0  0  0  0  0  0  0  0  0
    3.8552   -0.6559   -1.4448 H   0  0  0  0  0  0  0  0  0  0  0  0
    5.5716   -0.5098   -1.3657 H   0  0  0  0  0  0  0  0  0  0  0  0
    4.7242   -3.6575   -3.6561 H   0  0  0  0  0  0  0  0  0  0  0  0
    5.1017   -1.9474   -3.8259 H   0  0  0  0  0  0  0  0  0  0  0  0
    3.4808   -2.4374   -3.4017 H   0  0  0  0  0  0  0  0  0  0  0  0
    6.6273   -3.8505   -1.7459 H   0  0  0  0  0  0  0  0  0  0  0  0
    6.9879   -2.1677   -2.1103 H   0  0  0  0  0  0  0  0  0  0  0  0
    7.0008   -1.5916    0.1105 H   0  0  0  0  0  0  0  0  0  0  0  0
    8.0521   -3.3662    0.9094 H   0  0  0  0  0  0  0  0  0  0  0  0
    7.4500   -5.6143    1.0270 H   0  0  0  0  0  0  0  0  0  0  0  0
    5.3132   -6.0987   -0.5842 H   0  0  0  0  0  0  0  0  0  0  0  0
    4.8258   -5.4607    4.6868 H   0  0  0  0  0  0  0  0  0  0  0  0
    6.3119   -5.7057    3.7608 H   0  0  0  0  0  0  0  0  0  0  0  0
    5.2340   -7.0620    4.0695 H   0  0  0  0  0  0  0  0  0  0  0  0
    3.5508   -3.7722    2.6072 H   0  0  0  0  0  0  0  0  0  0  0  0
    5.2165   -2.4948    2.4948 H   0  0  0  0  0  0  0  0  0  0  0  0
    3.3803   -4.0569   -1.5623 H   0  0  0  0  0  0  0  0  0  0  0  0
  1  2  1  0
  1 23  1  0
  1 24  1  0
  1 25  1  0
  2 17  1  0
  2  3  1  0
  2 26  1  1
  3  4  1  0
 21  4  1  1
  4  5  1  0
  4 27  1  6
  5  6  1  0
  6 22  1  0
  6  7  1  0
  6 28  1  6
  7 12  1  0
  7  8  1  0
  7 29  1  1
  8  9  1  0
  8 30  1  0
  8 31  1  0
  9 22  1  0
  9 10  1  6
  9 11  1  0
 10 32  1  0
 10 33  1  0
 10 34  1  0
 11 12  1  0
 11 35  1  0
 11 36  1  0
 12 13  1  0
 12 37  1  6
 13 14  2  3
 13 38  1  0
 14 15  1  0
 14 39  1  0
 15 21  1  0
 15 16  1  0
 15 40  1  6
 16 17  1  0
 17 18  1  1
 17 19  1  0
 18 41  1  0
 18 42  1  0
 18 43  1  0
 19 20  1  0
 19 21  1  0
 19 44  1  1
 20 45  1  0
 21 22  1  0
 22 46  1  6
M  END
>  <i_m_ct_stereo_status>  (297) 
1

>  <s_m_source_file>  (297) 
/var/tmp/pbs.5076255.sched01/tmpn8rdt6mw/90ee43ygr2.sdf

>  <i_m_source_file_index>  (297) 
36

>  <i_lp_mmshare_version>  (297) 
48012

>  <i_f3d_flags>  (297) 
0

>  <s_epik_input>  (297) 
W0NAQF0xMjNbQ0BIXTRPW0NAQEhdKFtDSDNdKVtDQF0oW0NIM10pKFtDQEhdMltPSF0pT1tDQEBIXTEvW0NIXT1bQ0hdXFtDQEBIXTVbQ0BASF02W0NASF0oTzQpW0NASF0zW0NAXShbQ0gyXTYpKFtDSDNdKVtDSDJdNQ==

>  <s_epik_cmdline>  (297) 
J2VwaWtfcHl0aG9uJywgJy1waHQnLCAnMi4wJywgJy1waCcsICc3LjAnLCAnLXRuJywgJzgnLCAnLW1hJywgJzIwMCcsICctaW1hZScsICc8aW5maWxlLm1hZT4nLCAnLW9tYWUnLCAnPG91dGZpbGUubWFlPic=

>  <r_lp_tautomer_probability>  (297) 
1

>  <r_epik_Ionization_Penalty>  (297) 
1.25342e-06

>  <r_epik_Ionization_Penalty_Charging>  (297) 
0

>  <r_epik_Ionization_Penalty_Neutral>  (297) 
1.25342e-06

>  <r_epik_State_Penalty>  (297) 
-0

>  <r_epik_Charging_Adjusted_Penalty>  (297) 
0

>  <i_epik_Tot_Q>  (297) 
0

>  <i_epik_Tot_abs_Q>  (297) 
0

>  <s_epik_Chemistry_Notes>  (297) 
This compound contains an acetal/aminal-like group ( X-CH(R)-Y where X, Y are N, S, or O) that may be acid/base labile, releasing an aldehyde.

>  <s_lp_Force_Field>  (297) 
OPLS3e

>  <r_lp_Energy>  (297) 
205.155

>  <b_lp_Chiralities_Consistent>  (297) 
1

>  <s_lp_Variant>  (297) 
78:0-1

>  <s_i_glide_gridfile>  (297) 
pfpi4k_grid

>  <i_i_glide_lignum>  (297) 
36

>  <i_i_glide_rotatable_bonds>  (297) 
1

>  <r_i_docking_score>  (297) 
-3.20664

>  <r_i_glide_ligand_efficiency>  (297) 
-0.145757

>  <r_i_glide_ligand_efficiency_sa>  (297) 
-0.408416

>  <r_i_glide_ligand_efficiency_ln>  (297) 
-0.783821

>  <r_i_glide_gscore>  (297) 
-3.20664

>  <r_i_glide_lipo>  (297) 
-0.519578

>  <r_i_glide_hbond>  (297) 
0

>  <r_i_glide_metal>  (297) 
-0

>  <r_i_glide_rewards>  (297) 
-1.33377

>  <r_i_glide_evdw>  (297) 
-23.4463

>  <r_i_glide_ecoul>  (297) 
-1.01023

>  <r_i_glide_erotb>  (297) 
0

>  <r_i_glide_esite>  (297) 
-0.0294489

>  <r_i_glide_emodel>  (297) 
-29.1376

>  <r_i_glide_energy>  (297) 
-24.4565

>  <r_i_glide_einternal>  (297) 
0.349562

>  <r_i_glide_intrahb_reward>  (297) 
-0

>  <i_i_glide_confnum>  (297) 
2

>  <i_i_glide_posenum>  (297) 
33

>  <r_i_glide_eff_state_penalty>  (297) 
0

>  <ligand_id>  (297) 
78

>  <original_smiles>  (297) 
CC1OC2OC3C4CC5(C)CC4C=CC4OC1(C)C(O)C42C35

>  <smiles>  (297) 
[H]OC1([H])C2(C([H])([H])[H])OC3([H])C([H])=C([H])C4([H])C([H])([H])C5(C([H])([H])[H])C([H])([H])C4([H])C4([H])OC([H])(OC2([H])C([H])([H])[H])C31C45[H]

$$$$
78:1:0
     RDKit          3D

 46 51  0  0  1  0  0  0  0  0999 V2000
    4.0496   -6.7613    2.6141 C   0  0  0  0  0  0  0  0  0  0  0  0
    3.0802   -5.5973    2.3392 C   0  0  2  0  0  0  0  0  0  0  0  0
    2.6683   -5.4891    0.9305 O   0  0  0  0  0  0  0  0  0  0  0  0
    3.7313   -4.8815    0.2673 C   0  0  1  0  0  0  0  0  0  0  0  0
    3.8010   -3.9085   -0.6738 O   0  0  0  0  0  0  0  0  0  0  0  0
    3.9297   -2.3031   -0.4091 C   0  0  2  0  0  0  0  0  0  0  0  0
    4.8195   -1.4751   -1.3499 C   0  0  2  0  0  0  0  0  0  0  0  0
    3.9136   -1.2716   -2.5344 C   0  0  0  0  0  0  0  0  0  0  0  0
    3.6312   -2.7434   -2.5420 C   0  0  1  0  0  0  0  0  0  0  0  0
    2.6838   -3.1589   -3.6719 C   0  0  0  0  0  0  0  0  0  0  0  0
    5.1182   -3.2769   -2.7492 C   0  0  0  0  0  0  0  0  0  0  0  0
    5.9646   -2.4026   -1.7663 C   0  0  2  0  0  0  0  0  0  0  0  0
    6.5852   -3.1274   -0.5519 C   0  0  0  0  0  0  0  0  0  0  0  0
    6.2922   -2.8035    0.7409 C   0  0  0  0  0  0  0  0  0  0  0  0
    5.2050   -3.6984    1.3236 C   0  0  1  0  0  0  0  0  0  0  0  0
    4.9395   -3.8011    2.7130 O   0  0  0  0  0  0  0  0  0  0  0  0
    3.5393   -4.1867    2.8937 C   0  0  2  0  0  0  0  0  0  0  0  0
    3.1616   -4.0164    4.3822 C   0  0  0  0  0  0  0  0  0  0  0  0
    2.8409   -3.2574    1.9239 C   0  0  1  0  0  0  0  0  0  0  0  0
    2.8911   -1.9350    2.4056 O   0  0  0  0  0  0  0  0  0  0  0  0
    3.7143   -3.5611    0.6617 C   0  0  2  0  0  0  0  0  0  0  0  0
    3.0330   -3.0711   -0.9526 C   0  0  1  0  0  0  0  0  0  0  0  0
    4.3143   -6.8274    3.6721 H   0  0  0  0  0  0  0  0  0  0  0  0
    4.9848   -6.6983    2.0587 H   0  0  0  0  0  0  0  0  0  0  0  0
    3.5878   -7.7100    2.3545 H   0  0  0  0  0  0  0  0  0  0  0  0
    2.1512   -5.8570    2.8569 H   0  0  0  0  0  0  0  0  0  0  0  0
    4.5421   -5.5214   -0.0657 H   0  0  0  0  0  0  0  0  0  0  0  0
    3.2232   -1.5614    0.0228 H   0  0  0  0  0  0  0  0  0  0  0  0
    5.1569   -0.5433   -0.8967 H   0  0  0  0  0  0  0  0  0  0  0  0
    3.0285   -0.6672   -2.3204 H   0  0  0  0  0  0  0  0  0  0  0  0
    4.4293   -0.8962   -3.4215 H   0  0  0  0  0  0  0  0  0  0  0  0
    2.5226   -4.2420   -3.6832 H   0  0  0  0  0  0  0  0  0  0  0  0
    3.0872   -2.8880   -4.6475 H   0  0  0  0  0  0  0  0  0  0  0  0
    1.7075   -2.6892   -3.5737 H   0  0  0  0  0  0  0  0  0  0  0  0
    5.2019   -4.3472   -2.5480 H   0  0  0  0  0  0  0  0  0  0  0  0
    5.4506   -3.1321   -3.7751 H   0  0  0  0  0  0  0  0  0  0  0  0
    6.7506   -1.8939   -2.3166 H   0  0  0  0  0  0  0  0  0  0  0  0
    6.6305   -4.1876   -0.7451 H   0  0  0  0  0  0  0  0  0  0  0  0
    6.0928   -1.7716    0.9862 H   0  0  0  0  0  0  0  0  0  0  0  0
    5.7232   -4.6534    1.2360 H   0  0  0  0  0  0  0  0  0  0  0  0
    2.0924   -4.1762    4.5438 H   0  0  0  0  0  0  0  0  0  0  0  0
    3.4025   -3.0170    4.7490 H   0  0  0  0  0  0  0  0  0  0  0  0
    3.7029   -4.7297    5.0059 H   0  0  0  0  0  0  0  0  0  0  0  0
    1.7850   -3.4977    1.7879 H   0  0  0  0  0  0  0  0  0  0  0  0
    2.5278   -1.3511    1.7543 H   0  0  0  0  0  0  0  0  0  0  0  0
    1.9971   -2.7093   -0.8897 H   0  0  0  0  0  0  0  0  0  0  0  0
  1  2  1  0
  1 23  1  0
  1 24  1  0
  1 25  1  0
  2 17  1  0
  2  3  1  0
  2 26  1  1
  3  4  1  0
 21  4  1  6
  4  5  1  0
  4 27  1  1
  5  6  1  0
  6 22  1  0
  6  7  1  0
  6 28  1  1
  7 12  1  0
  7  8  1  0
  7 29  1  1
  8  9  1  0
  8 30  1  0
  8 31  1  0
  9 22  1  0
  9 10  1  6
  9 11  1  0
 10 32  1  0
 10 33  1  0
 10 34  1  0
 11 12  1  0
 11 35  1  0
 11 36  1  0
 12 13  1  0
 12 37  1  6
 13 14  2  3
 13 38  1  0
 14 15  1  0
 14 39  1  0
 15 21  1  0
 15 16  1  0
 15 40  1  6
 16 17  1  0
 17 18  1  1
 17 19  1  0
 18 41  1  0
 18 42  1  0
 18 43  1  0
 19 20  1  0
 19 21  1  0
 19 44  1  6
 20 45  1  0
 21 22  1  0
 22 46  1  6
M  END
>  <i_m_ct_stereo_status>  (298) 
1

>  <s_m_source_file>  (298) 
/var/tmp/pbs.5076255.sched01/tmpn8rdt6mw/90ee43ygr2.sdf

>  <i_m_source_file_index>  (298) 
37

>  <i_lp_mmshare_version>  (298) 
48012

>  <i_f3d_flags>  (298) 
0

>  <s_epik_input>  (298) 
W0NAQF0xMjNbQ0BIXTRPW0NAQEhdKFtDSDNdKVtDQF0oW0NIM10pKFtDQEhdMltPSF0pT1tDQEBIXTEvW0NIXT1bQ0hdXFtDQEBIXTVbQ0BASF02W0NASF0oTzQpW0NASF0zW0NAXShbQ0gyXTYpKFtDSDNdKVtDSDJdNQ==

>  <s_epik_cmdline>  (298) 
J2VwaWtfcHl0aG9uJywgJy1waHQnLCAnMi4wJywgJy1waCcsICc3LjAnLCAnLXRuJywgJzgnLCAnLW1hJywgJzIwMCcsICctaW1hZScsICc8aW5maWxlLm1hZT4nLCAnLW9tYWUnLCAnPG91dGZpbGUubWFlPic=

>  <r_lp_tautomer_probability>  (298) 
1

>  <r_epik_Ionization_Penalty>  (298) 
1.25342e-06

>  <r_epik_Ionization_Penalty_Charging>  (298) 
0

>  <r_epik_Ionization_Penalty_Neutral>  (298) 
1.25342e-06

>  <r_epik_State_Penalty>  (298) 
-0

>  <r_epik_Charging_Adjusted_Penalty>  (298) 
0

>  <i_epik_Tot_Q>  (298) 
0

>  <i_epik_Tot_abs_Q>  (298) 
0

>  <s_epik_Chemistry_Notes>  (298) 
This compound contains an acetal/aminal-like group ( X-CH(R)-Y where X, Y are N, S, or O) that may be acid/base labile, releasing an aldehyde.

>  <s_lp_Force_Field>  (298) 
OPLS3e

>  <r_lp_Energy>  (298) 
462.989

>  <b_lp_Chiralities_Consistent>  (298) 
1

>  <s_lp_Variant>  (298) 
78:0-2

>  <s_i_glide_gridfile>  (298) 
pfpi4k_grid

>  <i_i_glide_lignum>  (298) 
37

>  <i_i_glide_rotatable_bonds>  (298) 
1

>  <r_i_docking_score>  (298) 
-3.44126

>  <r_i_glide_ligand_efficiency>  (298) 
-0.156421

>  <r_i_glide_ligand_efficiency_sa>  (298) 
-0.438297

>  <r_i_glide_ligand_efficiency_ln>  (298) 
-0.841169

>  <r_i_glide_gscore>  (298) 
-3.44126

>  <r_i_glide_lipo>  (298) 
-0.633957

>  <r_i_glide_hbond>  (298) 
0

>  <r_i_glide_metal>  (298) 
-0

>  <r_i_glide_rewards>  (298) 
-1.33377

>  <r_i_glide_evdw>  (298) 
-26.1555

>  <r_i_glide_ecoul>  (298) 
-1.05909

>  <r_i_glide_erotb>  (298) 
0

>  <r_i_glide_esite>  (298) 
-0.00689151

>  <r_i_glide_emodel>  (298) 
-32.5431

>  <r_i_glide_energy>  (298) 
-27.2146

>  <r_i_glide_einternal>  (298) 
0.305908

>  <r_i_glide_intrahb_reward>  (298) 
-0

>  <i_i_glide_confnum>  (298) 
2

>  <i_i_glide_posenum>  (298) 
31

>  <r_i_glide_eff_state_penalty>  (298) 
0

>  <ligand_id>  (298) 
78

>  <original_smiles>  (298) 
CC1OC2OC3C4CC5(C)CC4C=CC4OC1(C)C(O)C42C35

>  <smiles>  (298) 
[H]OC1([H])C2(C([H])([H])[H])OC3([H])C([H])=C([H])C4([H])C([H])([H])C5(C([H])([H])[H])C([H])([H])C4([H])C4([H])OC([H])(OC2([H])C([H])([H])[H])C31C45[H]

$$$$
78:1:1
     RDKit          3D

 46 51  0  0  1  0  0  0  0  0999 V2000
    3.3797   -5.8013    2.8514 C   0  0  0  0  0  0  0  0  0  0  0  0
    2.5945   -4.6096    2.2674 C   0  0  2  0  0  0  0  0  0  0  0  0
    2.3146   -4.7357    0.8305 O   0  0  0  0  0  0  0  0  0  0  0  0
    3.4938   -4.3905    0.1852 C   0  0  1  0  0  0  0  0  0  0  0  0
    3.7797   -3.6397   -0.9085 O   0  0  0  0  0  0  0  0  0  0  0  0
    4.0899   -2.0355   -0.9269 C   0  0  2  0  0  0  0  0  0  0  0  0
    5.1456   -1.5066   -1.9034 C   0  0  2  0  0  0  0  0  0  0  0  0
    4.3629   -1.4332   -3.1905 C   0  0  0  0  0  0  0  0  0  0  0  0
    3.9097   -2.8360   -2.9537 C   0  0  1  0  0  0  0  0  0  0  0  0
    2.9966   -3.3441   -4.0603 C   0  0  0  0  0  0  0  0  0  0  0  0
    5.3250   -3.5575   -2.9169 C   0  0  0  0  0  0  0  0  0  0  0  0
    6.1966   -2.6177   -2.0191 C   0  0  2  0  0  0  0  0  0  0  0  0
    6.6157   -3.1656   -0.6412 C   0  0  0  0  0  0  0  0  0  0  0  0
    6.2636   -2.5622    0.5345 C   0  0  0  0  0  0  0  0  0  0  0  0
    5.0201   -3.1983    1.1490 C   0  0  1  0  0  0  0  0  0  0  0  0
    4.6360   -3.0030    2.5008 O   0  0  0  0  0  0  0  0  0  0  0  0
    3.1864   -3.1823    2.5978 C   0  0  2  0  0  0  0  0  0  0  0  0
    2.7116   -2.6847    3.9815 C   0  0  0  0  0  0  0  0  0  0  0  0
    2.6879   -2.3871    1.4081 C   0  0  1  0  0  0  0  0  0  0  0  0
    2.8654   -1.0123    1.6441 O   0  0  0  0  0  0  0  0  0  0  0  0
    3.6211   -3.0224    0.3192 C   0  0  2  0  0  0  0  0  0  0  0  0
    3.1536   -2.7868   -1.4200 C   0  0  1  0  0  0  0  0  0  0  0  0
    3.5450   -5.6925    3.9258 H   0  0  0  0  0  0  0  0  0  0  0  0
    4.3558   -5.9536    2.3933 H   0  0  0  0  0  0  0  0  0  0  0  0
    2.8192   -6.7221    2.7194 H   0  0  0  0  0  0  0  0  0  0  0  0
    1.6018   -4.6566    2.7246 H   0  0  0  0  0  0  0  0  0  0  0  0
    4.2430   -5.1718    0.0515 H   0  0  0  0  0  0  0  0  0  0  0  0
    3.4582   -1.1476   -0.7017 H   0  0  0  0  0  0  0  0  0  0  0  0
    5.5512   -0.5445   -1.5947 H   0  0  0  0  0  0  0  0  0  0  0  0
    3.5504   -0.7013   -3.1827 H   0  0  0  0  0  0  0  0  0  0  0  0
    4.9860   -1.3087   -4.0785 H   0  0  0  0  0  0  0  0  0  0  0  0
    2.6892   -4.3718   -3.9267 H   0  0  0  0  0  0  0  0  0  0  0  0
    3.5159   -3.3221   -5.0076 H   0  0  0  0  0  0  0  0  0  0  0  0
    2.0883   -2.7564   -4.1580 H   0  0  0  0  0  0  0  0  0  0  0  0
    5.2459   -4.5714   -2.5178 H   0  0  0  0  0  0  0  0  0  0  0  0
    5.7653   -3.6519   -3.9119 H   0  0  0  0  0  0  0  0  0  0  0  0
    7.0921   -2.3087   -2.5523 H   0  0  0  0  0  0  0  0  0  0  0  0
    6.5389   -4.2413   -0.6427 H   0  0  0  0  0  0  0  0  0  0  0  0
    6.1751   -1.4878    0.5616 H   0  0  0  0  0  0  0  0  0  0  0  0
    5.4169   -4.2065    1.2854 H   0  0  0  0  0  0  0  0  0  0  0  0
    1.6214   -2.6900    4.0530 H   0  0  0  0  0  0  0  0  0  0  0  0
    3.0473   -1.6676    4.1819 H   0  0  0  0  0  0  0  0  0  0  0  0
    3.1015   -3.3200    4.7770 H   0  0  0  0  0  0  0  0  0  0  0  0
    1.6226   -2.5185    1.2080 H   0  0  0  0  0  0  0  0  0  0  0  0
    2.4481   -0.5431    0.9350 H   0  0  0  0  0  0  0  0  0  0  0  0
    2.2046   -2.2825   -1.5774 H   0  0  0  0  0  0  0  0  0  0  0  0
  1  2  1  0
  1 23  1  0
  1 24  1  0
  1 25  1  0
  2 17  1  0
  2  3  1  0
  2 26  1  1
  3  4  1  0
 21  4  1  1
  4  5  1  0
  4 27  1  1
  5  6  1  0
  6 22  1  0
  6  7  1  0
  6 28  1  1
  7 12  1  0
  7  8  1  0
  7 29  1  1
  8  9  1  0
  8 30  1  0
  8 31  1  0
  9 22  1  0
  9 10  1  6
  9 11  1  0
 10 32  1  0
 10 33  1  0
 10 34  1  0
 11 12  1  0
 11 35  1  0
 11 36  1  0
 12 13  1  0
 12 37  1  6
 13 14  2  3
 13 38  1  0
 14 15  1  0
 14 39  1  0
 15 21  1  0
 15 16  1  0
 15 40  1  1
 16 17  1  0
 17 18  1  1
 17 19  1  0
 18 41  1  0
 18 42  1  0
 18 43  1  0
 19 20  1  0
 19 21  1  0
 19 44  1  6
 20 45  1  0
 21 22  1  0
 22 46  1  6
M  END
>  <i_m_ct_stereo_status>  (299) 
1

>  <s_m_source_file>  (299) 
/var/tmp/pbs.5076255.sched01/tmpn8rdt6mw/90ee43ygr2.sdf

>  <i_m_source_file_index>  (299) 
37

>  <i_lp_mmshare_version>  (299) 
48012

>  <i_f3d_flags>  (299) 
0

>  <s_epik_input>  (299) 
W0NAQF0xMjNbQ0BIXTRPW0NAQEhdKFtDSDNdKVtDQF0oW0NIM10pKFtDQEhdMltPSF0pT1tDQEBIXTEvW0NIXT1bQ0hdXFtDQEBIXTVbQ0BASF02W0NASF0oTzQpW0NASF0zW0NAXShbQ0gyXTYpKFtDSDNdKVtDSDJdNQ==

>  <s_epik_cmdline>  (299) 
J2VwaWtfcHl0aG9uJywgJy1waHQnLCAnMi4wJywgJy1waCcsICc3LjAnLCAnLXRuJywgJzgnLCAnLW1hJywgJzIwMCcsICctaW1hZScsICc8aW5maWxlLm1hZT4nLCAnLW9tYWUnLCAnPG91dGZpbGUubWFlPic=

>  <r_lp_tautomer_probability>  (299) 
1

>  <r_epik_Ionization_Penalty>  (299) 
1.25342e-06

>  <r_epik_Ionization_Penalty_Charging>  (299) 
0

>  <r_epik_Ionization_Penalty_Neutral>  (299) 
1.25342e-06

>  <r_epik_State_Penalty>  (299) 
-0

>  <r_epik_Charging_Adjusted_Penalty>  (299) 
0

>  <i_epik_Tot_Q>  (299) 
0

>  <i_epik_Tot_abs_Q>  (299) 
0

>  <s_epik_Chemistry_Notes>  (299) 
This compound contains an acetal/aminal-like group ( X-CH(R)-Y where X, Y are N, S, or O) that may be acid/base labile, releasing an aldehyde.

>  <s_lp_Force_Field>  (299) 
OPLS3e

>  <r_lp_Energy>  (299) 
462.989

>  <b_lp_Chiralities_Consistent>  (299) 
1

>  <s_lp_Variant>  (299) 
78:0-2

>  <s_i_glide_gridfile>  (299) 
pfpi4k_grid

>  <i_i_glide_lignum>  (299) 
37

>  <i_i_glide_rotatable_bonds>  (299) 
1

>  <r_i_docking_score>  (299) 
-3.32217

>  <r_i_glide_ligand_efficiency>  (299) 
-0.151008

>  <r_i_glide_ligand_efficiency_sa>  (299) 
-0.423129

>  <r_i_glide_ligand_efficiency_ln>  (299) 
-0.812059

>  <r_i_glide_gscore>  (299) 
-3.32217

>  <r_i_glide_lipo>  (299) 
-0.499561

>  <r_i_glide_hbond>  (299) 
-0.00657594

>  <r_i_glide_metal>  (299) 
-0

>  <r_i_glide_rewards>  (299) 
-1.33377

>  <r_i_glide_evdw>  (299) 
-23.7179

>  <r_i_glide_ecoul>  (299) 
-1.89208

>  <r_i_glide_erotb>  (299) 
0

>  <r_i_glide_esite>  (299) 
-0.0125571

>  <r_i_glide_emodel>  (299) 
-30.5741

>  <r_i_glide_energy>  (299) 
-25.61

>  <r_i_glide_einternal>  (299) 
0.456347

>  <r_i_glide_intrahb_reward>  (299) 
-0

>  <i_i_glide_confnum>  (299) 
2

>  <i_i_glide_posenum>  (299) 
6

>  <r_i_glide_eff_state_penalty>  (299) 
0

>  <ligand_id>  (299) 
78

>  <original_smiles>  (299) 
CC1OC2OC3C4CC5(C)CC4C=CC4OC1(C)C(O)C42C35

>  <smiles>  (299) 
[H]OC1([H])C2(C([H])([H])[H])OC3([H])C([H])=C([H])C4([H])C([H])([H])C5(C([H])([H])[H])C([H])([H])C4([H])C4([H])OC([H])(OC2([H])C([H])([H])[H])C31C45[H]

$$$$
78:1:2
     RDKit          3D

 46 51  0  0  1  0  0  0  0  0999 V2000
    4.0983   -6.9289    2.4262 C   0  0  0  0  0  0  0  0  0  0  0  0
    3.1424   -5.7385    2.1848 C   0  0  2  0  0  0  0  0  0  0  0  0
    2.7436   -5.5725    0.7803 O   0  0  0  0  0  0  0  0  0  0  0  0
    3.8259   -4.9632    0.1646 C   0  0  1  0  0  0  0  0  0  0  0  0
    3.9395   -3.9430   -0.7384 O   0  0  0  0  0  0  0  0  0  0  0  0
    4.0698   -2.3520   -0.4161 C   0  0  2  0  0  0  0  0  0  0  0  0
    4.9834   -1.4970   -1.3153 C   0  0  2  0  0  0  0  0  0  0  0  0
    4.0935   -1.2454   -2.5002 C   0  0  0  0  0  0  0  0  0  0  0  0
    3.7964   -2.7147   -2.5627 C   0  0  1  0  0  0  0  0  0  0  0  0
    2.8645   -3.0812   -3.7251 C   0  0  0  0  0  0  0  0  0  0  0  0
    5.2823   -3.2567   -2.7680 C   0  0  0  0  0  0  0  0  0  0  0  0
    6.1243   -2.4265   -1.7439 C   0  0  2  0  0  0  0  0  0  0  0  0
    6.7254   -3.1964   -0.5494 C   0  0  0  0  0  0  0  0  0  0  0  0
    6.4138   -2.9202    0.7504 C   0  0  0  0  0  0  0  0  0  0  0  0
    5.3035   -3.8289    1.2779 C   0  0  1  0  0  0  0  0  0  0  0  0
    5.0092   -3.9640    2.6618 O   0  0  0  0  0  0  0  0  0  0  0  0
    3.6053   -4.3584    2.8032 C   0  0  2  0  0  0  0  0  0  0  0  0
    3.2144   -4.2449    4.2910 C   0  0  0  0  0  0  0  0  0  0  0  0
    2.9232   -3.3915    1.8636 C   0  0  1  0  0  0  0  0  0  0  0  0
    3.0026   -2.0847    2.3929 O   0  0  0  0  0  0  0  0  0  0  0  0
    3.8218   -3.6550    0.6001 C   0  0  2  0  0  0  0  0  0  0  0  0
    3.1675   -3.0832   -0.9990 C   0  0  1  0  0  0  0  0  0  0  0  0
    4.3460   -7.0397    3.4889 H   0  0  0  0  0  0  0  0  0  0  0  0
    5.0423   -6.8516    1.8890 H   0  0  0  0  0  0  0  0  0  0  0  0
    3.6309   -7.8621    2.1230 H   0  0  0  0  0  0  0  0  0  0  0  0
    2.2074   -6.0125    2.6849 H   0  0  0  0  0  0  0  0  0  0  0  0
    4.6347   -5.6021   -0.1881 H   0  0  0  0  0  0  0  0  0  0  0  0
    3.3769   -1.6203    0.0515 H   0  0  0  0  0  0  0  0  0  0  0  0
    5.3233   -0.5891   -0.8188 H   0  0  0  0  0  0  0  0  0  0  0  0
    3.2071   -0.6496   -2.2801 H   0  0  0  0  0  0  0  0  0  0  0  0
    4.6174   -0.8492   -3.3693 H   0  0  0  0  0  0  0  0  0  0  0  0
    2.7081   -4.1561   -3.7829 H   0  0  0  0  0  0  0  0  0  0  0  0
    3.2911   -2.7676   -4.6762 H   0  0  0  0  0  0  0  0  0  0  0  0
    1.8874   -2.6096   -3.6205 H   0  0  0  0  0  0  0  0  0  0  0  0
    5.3528   -4.3358   -2.6061 H   0  0  0  0  0  0  0  0  0  0  0  0
    5.6315   -3.0815   -3.7798 H   0  0  0  0  0  0  0  0  0  0  0  0
    6.9310   -1.9212   -2.2692 H   0  0  0  0  0  0  0  0  0  0  0  0
    6.7491   -4.2434   -0.7784 H   0  0  0  0  0  0  0  0  0  0  0  0
    6.2192   -1.8940    1.0291 H   0  0  0  0  0  0  0  0  0  0  0  0
    5.8100   -4.7872    1.1527 H   0  0  0  0  0  0  0  0  0  0  0  0
    2.1441   -4.4055    4.4216 H   0  0  0  0  0  0  0  0  0  0  0  0
    3.4578   -3.2678    4.7024 H   0  0  0  0  0  0  0  0  0  0  0  0
    3.7351   -4.9935    4.8912 H   0  0  0  0  0  0  0  0  0  0  0  0
    1.8615   -3.6097    1.7038 H   0  0  0  0  0  0  0  0  0  0  0  0
    3.9183   -1.8686    2.4505 H   0  0  0  0  0  0  0  0  0  0  0  0
    2.1431   -2.7001   -0.9268 H   0  0  0  0  0  0  0  0  0  0  0  0
  1  2  1  0
  1 23  1  0
  1 24  1  0
  1 25  1  0
  2 17  1  0
  2  3  1  0
  2 26  1  1
  3  4  1  0
 21  4  1  6
  4  5  1  0
  4 27  1  1
  5  6  1  0
  6 22  1  0
  6  7  1  0
  6 28  1  1
  7 12  1  0
  7  8  1  0
  7 29  1  1
  8  9  1  0
  8 30  1  0
  8 31  1  0
  9 22  1  0
  9 10  1  6
  9 11  1  0
 10 32  1  0
 10 33  1  0
 10 34  1  0
 11 12  1  0
 11 35  1  0
 11 36  1  0
 12 13  1  0
 12 37  1  6
 13 14  2  3
 13 38  1  0
 14 15  1  0
 14 39  1  0
 15 21  1  0
 15 16  1  0
 15 40  1  6
 16 17  1  0
 17 18  1  1
 17 19  1  0
 18 41  1  0
 18 42  1  0
 18 43  1  0
 19 20  1  0
 19 21  1  0
 19 44  1  6
 20 45  1  0
 21 22  1  0
 22 46  1  6
M  END
>  <i_m_ct_stereo_status>  (300) 
1

>  <s_m_source_file>  (300) 
/var/tmp/pbs.5076255.sched01/tmpn8rdt6mw/90ee43ygr2.sdf

>  <i_m_source_file_index>  (300) 
37

>  <i_lp_mmshare_version>  (300) 
48012

>  <i_f3d_flags>  (300) 
0

>  <s_epik_input>  (300) 
W0NAQF0xMjNbQ0BIXTRPW0NAQEhdKFtDSDNdKVtDQF0oW0NIM10pKFtDQEhdMltPSF0pT1tDQEBIXTEvW0NIXT1bQ0hdXFtDQEBIXTVbQ0BASF02W0NASF0oTzQpW0NASF0zW0NAXShbQ0gyXTYpKFtDSDNdKVtDSDJdNQ==

>  <s_epik_cmdline>  (300) 
J2VwaWtfcHl0aG9uJywgJy1waHQnLCAnMi4wJywgJy1waCcsICc3LjAnLCAnLXRuJywgJzgnLCAnLW1hJywgJzIwMCcsICctaW1hZScsICc8aW5maWxlLm1hZT4nLCAnLW9tYWUnLCAnPG91dGZpbGUubWFlPic=

>  <r_lp_tautomer_probability>  (300) 
1

>  <r_epik_Ionization_Penalty>  (300) 
1.25342e-06

>  <r_epik_Ionization_Penalty_Charging>  (300) 
0

>  <r_epik_Ionization_Penalty_Neutral>  (300) 
1.25342e-06

>  <r_epik_State_Penalty>  (300) 
-0

>  <r_epik_Charging_Adjusted_Penalty>  (300) 
0

>  <i_epik_Tot_Q>  (300) 
0

>  <i_epik_Tot_abs_Q>  (300) 
0

>  <s_epik_Chemistry_Notes>  (300) 
This compound contains an acetal/aminal-like group ( X-CH(R)-Y where X, Y are N, S, or O) that may be acid/base labile, releasing an aldehyde.

>  <s_lp_Force_Field>  (300) 
OPLS3e

>  <r_lp_Energy>  (300) 
462.989

>  <b_lp_Chiralities_Consistent>  (300) 
1

>  <s_lp_Variant>  (300) 
78:0-2

>  <s_i_glide_gridfile>  (300) 
pfpi4k_grid

>  <i_i_glide_lignum>  (300) 
37

>  <i_i_glide_rotatable_bonds>  (300) 
1

>  <r_i_docking_score>  (300) 
-3.24974

>  <r_i_glide_ligand_efficiency>  (300) 
-0.147715

>  <r_i_glide_ligand_efficiency_sa>  (300) 
-0.413905

>  <r_i_glide_ligand_efficiency_ln>  (300) 
-0.794355

>  <r_i_glide_gscore>  (300) 
-3.24974

>  <r_i_glide_lipo>  (300) 
-0.659982

>  <r_i_glide_hbond>  (300) 
0

>  <r_i_glide_metal>  (300) 
-0

>  <r_i_glide_rewards>  (300) 
-1.33377

>  <r_i_glide_evdw>  (300) 
-26.6717

>  <r_i_glide_ecoul>  (300) 
0.585733

>  <r_i_glide_erotb>  (300) 
0

>  <r_i_glide_esite>  (300) 
-0.0102651

>  <r_i_glide_emodel>  (300) 
-31.1606

>  <r_i_glide_energy>  (300) 
-26.086

>  <r_i_glide_einternal>  (300) 
0.105959

>  <r_i_glide_intrahb_reward>  (300) 
-0

>  <i_i_glide_confnum>  (300) 
1

>  <i_i_glide_posenum>  (300) 
29

>  <r_i_glide_eff_state_penalty>  (300) 
0

>  <ligand_id>  (300) 
78

>  <original_smiles>  (300) 
CC1OC2OC3C4CC5(C)CC4C=CC4OC1(C)C(O)C42C35

>  <smiles>  (300) 
[H]OC1([H])C2(C([H])([H])[H])OC3([H])C([H])=C([H])C4([H])C([H])([H])C5(C([H])([H])[H])C([H])([H])C4([H])C4([H])OC([H])(OC2([H])C([H])([H])[H])C31C45[H]

$$$$
79:0:0
     RDKit          3D

 32 34  0  0  1  0  0  0  0  0999 V2000
    1.5280    0.8400    6.7201 O   0  0  0  0  0  0  0  0  0  0  0  0
    0.0982    1.1719    6.7496 S   0  0  0  0  0  0  0  0  0  0  0  0
   -0.8727    0.1685    7.2134 O   0  0  0  0  0  0  0  0  0  0  0  0
   -0.0965    2.6906    7.6978 C   0  0  0  0  0  0  0  0  0  0  0  0
    1.0503    3.4812    7.9461 C   0  0  0  0  0  0  0  0  0  0  0  0
    0.9522    4.6742    8.7013 C   0  0  0  0  0  0  0  0  0  0  0  0
   -0.2952    5.0764    9.2205 C   0  0  0  0  0  0  0  0  0  0  0  0
   -1.4298    4.2837    8.9708 C   0  0  0  0  0  0  0  0  0  0  0  0
   -2.6367    4.6095    9.4386 N   0  0  0  0  0  0  0  0  0  0  0  0
   -3.6154    3.3443    8.9257 S   0  0  0  0  0  0  0  0  0  0  0  0
   -2.4898    2.4379    8.0656 N   0  0  0  0  0  0  0  0  0  0  0  0
   -1.3404    3.1043    8.2283 C   0  0  0  0  0  0  0  0  0  0  0  0
   -0.3640    1.6318    5.1372 N   0  0  0  0  0  0  0  0  0  0  0  0
   -1.7786    1.6194    4.7146 C   0  0  0  0  0  0  0  0  0  0  0  0
   -2.2762    3.0111    4.2856 C   0  0  0  0  0  0  0  0  0  0  0  0
   -1.3478    3.6337    3.2468 C   0  0  0  0  0  0  0  0  0  0  0  0
   -1.7793    4.9335    2.8843 O   0  0  0  0  0  0  0  0  0  0  0  0
    0.0811    3.6973    3.8022 C   0  0  0  0  0  0  0  0  0  0  0  0
    0.5869    2.3109    4.2371 C   0  0  0  0  0  0  0  0  0  0  0  0
    2.0158    3.1792    7.5616 H   0  0  0  0  0  0  0  0  0  0  0  0
    1.8344    5.2803    8.8924 H   0  0  0  0  0  0  0  0  0  0  0  0
   -0.3826    5.9861    9.8016 H   0  0  0  0  0  0  0  0  0  0  0  0
   -1.8726    0.9194    3.8841 H   0  0  0  0  0  0  0  0  0  0  0  0
   -2.4043    1.2417    5.5212 H   0  0  0  0  0  0  0  0  0  0  0  0
   -3.2763    2.9146    3.8613 H   0  0  0  0  0  0  0  0  0  0  0  0
   -2.3536    3.6630    5.1555 H   0  0  0  0  0  0  0  0  0  0  0  0
   -1.3582    3.0230    2.3422 H   0  0  0  0  0  0  0  0  0  0  0  0
   -1.2321    5.1783    2.1399 H   0  0  0  0  0  0  0  0  0  0  0  0
    0.7562    4.0905    3.0398 H   0  0  0  0  0  0  0  0  0  0  0  0
    0.1261    4.3855    4.6471 H   0  0  0  0  0  0  0  0  0  0  0  0
    1.5632    2.4093    4.7161 H   0  0  0  0  0  0  0  0  0  0  0  0
    0.7335    1.6806    3.3597 H   0  0  0  0  0  0  0  0  0  0  0  0
  1  2  2  0
  2  3  2  0
  2  4  1  0
  2 13  1  0
  4 12  1  0
  4  5  2  0
  5  6  1  0
  5 20  1  0
  6  7  2  0
  6 21  1  0
  7  8  1  0
  7 22  1  0
  8 12  1  0
  8  9  2  0
  9 10  1  0
 10 11  1  0
 11 12  2  0
 13 19  1  0
 13 14  1  0
 14 15  1  0
 14 23  1  0
 14 24  1  0
 15 16  1  0
 15 25  1  0
 15 26  1  0
 16 17  1  0
 16 18  1  0
 16 27  1  0
 17 28  1  0
 18 19  1  0
 18 29  1  0
 18 30  1  0
 19 31  1  0
 19 32  1  0
M  END
>  <i_m_ct_stereo_status>  (301) 
1

>  <s_m_source_file>  (301) 
/var/tmp/pbs.5076255.sched01/tmpn8rdt6mw/90ee43ygr2.sdf

>  <i_m_source_file_index>  (301) 
38

>  <i_lp_mmshare_version>  (301) 
48012

>  <i_f3d_flags>  (301) 
0

>  <s_epik_input>  (301) 
bjFzbmMoYzEyKWMoW2NIXVtjSF1bY0hdMilTKD1PKSg9TylOM1tDSDJdW0NIMl1bQ0hdKFtPSF0pW0NIMl1bQ0gyXTM=

>  <s_epik_cmdline>  (301) 
J2VwaWtfcHl0aG9uJywgJy1waHQnLCAnMi4wJywgJy1waCcsICc3LjAnLCAnLXRuJywgJzgnLCAnLW1hJywgJzIwMCcsICctaW1hZScsICc8aW5maWxlLm1hZT4nLCAnLW9tYWUnLCAnPG91dGZpbGUubWFlPic=

>  <r_lp_tautomer_probability>  (301) 
1

>  <r_epik_Ionization_Penalty>  (301) 
8.11728e-08

>  <r_epik_Ionization_Penalty_Charging>  (301) 
0

>  <r_epik_Ionization_Penalty_Neutral>  (301) 
8.11728e-08

>  <r_epik_State_Penalty>  (301) 
-0

>  <r_epik_Charging_Adjusted_Penalty>  (301) 
0

>  <i_epik_Tot_Q>  (301) 
0

>  <i_epik_Tot_abs_Q>  (301) 
0

>  <s_lp_Force_Field>  (301) 
OPLS3e

>  <r_lp_Energy>  (301) 
17.9623

>  <b_lp_Chiralities_Consistent>  (301) 
1

>  <s_lp_Variant>  (301) 
79:0-1

>  <s_i_glide_gridfile>  (301) 
pfpi4k_grid

>  <i_i_glide_lignum>  (301) 
38

>  <i_i_glide_rotatable_bonds>  (301) 
3

>  <r_i_docking_score>  (301) 
-3.76153

>  <r_i_glide_ligand_efficiency>  (301) 
-0.197975

>  <r_i_glide_ligand_efficiency_sa>  (301) 
-0.528278

>  <r_i_glide_ligand_efficiency_ln>  (301) 
-0.953629

>  <r_i_glide_gscore>  (301) 
-3.76153

>  <r_i_glide_lipo>  (301) 
-0.0401868

>  <r_i_glide_hbond>  (301) 
-0.289079

>  <r_i_glide_metal>  (301) 
-0

>  <r_i_glide_rewards>  (301) 
-1.36792

>  <r_i_glide_evdw>  (301) 
-18.5237

>  <r_i_glide_ecoul>  (301) 
-9.62447

>  <r_i_glide_erotb>  (301) 
0.409835

>  <r_i_glide_esite>  (301) 
-0.10432

>  <r_i_glide_emodel>  (301) 
-35.6966

>  <r_i_glide_energy>  (301) 
-28.1482

>  <r_i_glide_einternal>  (301) 
0.725628

>  <r_i_glide_intrahb_reward>  (301) 
-0

>  <i_i_glide_confnum>  (301) 
1

>  <i_i_glide_posenum>  (301) 
20

>  <r_i_glide_eff_state_penalty>  (301) 
0

>  <ligand_id>  (301) 
79

>  <original_smiles>  (301) 
O=S(=O)(c1cccc2nsnc12)N1CCC(O)CC1

>  <smiles>  (301) 
[H]OC1([H])C([H])([H])C([H])([H])N(S(=O)(=O)c2c([H])c([H])c([H])c3nsnc23)C([H])([H])C1([H])[H]

$$$$
79:0:1
     RDKit          3D

 32 34  0  0  1  0  0  0  0  0999 V2000
    5.8702   -0.7454    1.2665 O   0  0  0  0  0  0  0  0  0  0  0  0
    6.0570   -2.0725    0.6640 S   0  0  0  0  0  0  0  0  0  0  0  0
    7.3785   -2.7187    0.7221 O   0  0  0  0  0  0  0  0  0  0  0  0
    4.8413   -3.2345    1.3270 C   0  0  0  0  0  0  0  0  0  0  0  0
    5.1131   -4.6194    1.2149 C   0  0  0  0  0  0  0  0  0  0  0  0
    4.2168   -5.5770    1.7456 C   0  0  0  0  0  0  0  0  0  0  0  0
    3.0451   -5.1545    2.4101 C   0  0  0  0  0  0  0  0  0  0  0  0
    2.7873   -3.7780    2.5333 C   0  0  0  0  0  0  0  0  0  0  0  0
    1.7077   -3.3167    3.1739 N   0  0  0  0  0  0  0  0  0  0  0  0
    1.8381   -1.6484    3.0256 S   0  0  0  0  0  0  0  0  0  0  0  0
    3.2886   -1.5526    2.1764 N   0  0  0  0  0  0  0  0  0  0  0  0
    3.6601   -2.8254    1.9975 C   0  0  0  0  0  0  0  0  0  0  0  0
    5.6437   -1.9329   -1.0168 N   0  0  0  0  0  0  0  0  0  0  0  0
    6.1648   -2.8984   -2.0017 C   0  0  0  0  0  0  0  0  0  0  0  0
    5.0441   -3.6476   -2.7332 C   0  0  0  0  0  0  0  0  0  0  0  0
    3.9944   -2.6983   -3.3109 C   0  0  0  0  0  0  0  0  0  0  0  0
    2.9712   -3.4566   -3.9212 O   0  0  0  0  0  0  0  0  0  0  0  0
    3.4269   -1.8330   -2.1840 C   0  0  0  0  0  0  0  0  0  0  0  0
    4.5371   -1.0555   -1.4541 C   0  0  0  0  0  0  0  0  0  0  0  0
    6.0198   -4.9552    0.7298 H   0  0  0  0  0  0  0  0  0  0  0  0
    4.4289   -6.6397    1.6655 H   0  0  0  0  0  0  0  0  0  0  0  0
    2.3565   -5.8741    2.8240 H   0  0  0  0  0  0  0  0  0  0  0  0
    6.7708   -2.3465   -2.7179 H   0  0  0  0  0  0  0  0  0  0  0  0
    6.8446   -3.6066   -1.5280 H   0  0  0  0  0  0  0  0  0  0  0  0
    5.4720   -4.2364   -3.5424 H   0  0  0  0  0  0  0  0  0  0  0  0
    4.5887   -4.3548   -2.0416 H   0  0  0  0  0  0  0  0  0  0  0  0
    4.4409   -2.0611   -4.0757 H   0  0  0  0  0  0  0  0  0  0  0  0
    2.6285   -4.0848   -3.2988 H   0  0  0  0  0  0  0  0  0  0  0  0
    2.7087   -1.1221   -2.5923 H   0  0  0  0  0  0  0  0  0  0  0  0
    2.8809   -2.4479   -1.4677 H   0  0  0  0  0  0  0  0  0  0  0  0
    4.1138   -0.5289   -0.5950 H   0  0  0  0  0  0  0  0  0  0  0  0
    4.9522   -0.2960   -2.1183 H   0  0  0  0  0  0  0  0  0  0  0  0
  1  2  2  0
  2  3  2  0
  2  4  1  0
  2 13  1  0
  4 12  1  0
  4  5  2  0
  5  6  1  0
  5 20  1  0
  6  7  2  0
  6 21  1  0
  7  8  1  0
  7 22  1  0
  8 12  1  0
  8  9  2  0
  9 10  1  0
 10 11  1  0
 11 12  2  0
 13 19  1  0
 13 14  1  0
 14 15  1  0
 14 23  1  0
 14 24  1  0
 15 16  1  0
 15 25  1  0
 15 26  1  0
 16 17  1  0
 16 18  1  0
 16 27  1  0
 17 28  1  0
 18 19  1  0
 18 29  1  0
 18 30  1  0
 19 31  1  0
 19 32  1  0
M  END
>  <i_m_ct_stereo_status>  (302) 
1

>  <s_m_source_file>  (302) 
/var/tmp/pbs.5076255.sched01/tmpn8rdt6mw/90ee43ygr2.sdf

>  <i_m_source_file_index>  (302) 
38

>  <i_lp_mmshare_version>  (302) 
48012

>  <i_f3d_flags>  (302) 
0

>  <s_epik_input>  (302) 
bjFzbmMoYzEyKWMoW2NIXVtjSF1bY0hdMilTKD1PKSg9TylOM1tDSDJdW0NIMl1bQ0hdKFtPSF0pW0NIMl1bQ0gyXTM=

>  <s_epik_cmdline>  (302) 
J2VwaWtfcHl0aG9uJywgJy1waHQnLCAnMi4wJywgJy1waCcsICc3LjAnLCAnLXRuJywgJzgnLCAnLW1hJywgJzIwMCcsICctaW1hZScsICc8aW5maWxlLm1hZT4nLCAnLW9tYWUnLCAnPG91dGZpbGUubWFlPic=

>  <r_lp_tautomer_probability>  (302) 
1

>  <r_epik_Ionization_Penalty>  (302) 
8.11728e-08

>  <r_epik_Ionization_Penalty_Charging>  (302) 
0

>  <r_epik_Ionization_Penalty_Neutral>  (302) 
8.11728e-08

>  <r_epik_State_Penalty>  (302) 
-0

>  <r_epik_Charging_Adjusted_Penalty>  (302) 
0

>  <i_epik_Tot_Q>  (302) 
0

>  <i_epik_Tot_abs_Q>  (302) 
0

>  <s_lp_Force_Field>  (302) 
OPLS3e

>  <r_lp_Energy>  (302) 
17.9623

>  <b_lp_Chiralities_Consistent>  (302) 
1

>  <s_lp_Variant>  (302) 
79:0-1

>  <s_i_glide_gridfile>  (302) 
pfpi4k_grid

>  <i_i_glide_lignum>  (302) 
38

>  <i_i_glide_rotatable_bonds>  (302) 
3

>  <r_i_docking_score>  (302) 
-3.58811

>  <r_i_glide_ligand_efficiency>  (302) 
-0.188848

>  <r_i_glide_ligand_efficiency_sa>  (302) 
-0.503922

>  <r_i_glide_ligand_efficiency_ln>  (302) 
-0.909663

>  <r_i_glide_gscore>  (302) 
-3.58811

>  <r_i_glide_lipo>  (302) 
-0.402937

>  <r_i_glide_hbond>  (302) 
-0.190972

>  <r_i_glide_metal>  (302) 
-0

>  <r_i_glide_rewards>  (302) 
-1.49355

>  <r_i_glide_evdw>  (302) 
-27.2974

>  <r_i_glide_ecoul>  (302) 
-3.36022

>  <r_i_glide_erotb>  (302) 
0.409835

>  <r_i_glide_esite>  (302) 
-0.0415852

>  <r_i_glide_emodel>  (302) 
-37.8124

>  <r_i_glide_energy>  (302) 
-30.6576

>  <r_i_glide_einternal>  (302) 
0.727832

>  <r_i_glide_intrahb_reward>  (302) 
-0

>  <i_i_glide_confnum>  (302) 
2

>  <i_i_glide_posenum>  (302) 
28

>  <r_i_glide_eff_state_penalty>  (302) 
0

>  <ligand_id>  (302) 
79

>  <original_smiles>  (302) 
O=S(=O)(c1cccc2nsnc12)N1CCC(O)CC1

>  <smiles>  (302) 
[H]OC1([H])C([H])([H])C([H])([H])N(S(=O)(=O)c2c([H])c([H])c([H])c3nsnc23)C([H])([H])C1([H])[H]

$$$$
79:0:2
     RDKit          3D

 32 34  0  0  1  0  0  0  0  0999 V2000
    6.2127   -0.4258    0.5984 O   0  0  0  0  0  0  0  0  0  0  0  0
    6.0679   -1.8470    0.2698 S   0  0  0  0  0  0  0  0  0  0  0  0
    7.2131   -2.7524    0.4507 O   0  0  0  0  0  0  0  0  0  0  0  0
    4.6497   -2.5251    1.1515 C   0  0  0  0  0  0  0  0  0  0  0  0
    4.6574   -3.9039    1.4719 C   0  0  0  0  0  0  0  0  0  0  0  0
    3.5851   -4.4766    2.1959 C   0  0  0  0  0  0  0  0  0  0  0  0
    2.5048   -3.6660    2.6119 C   0  0  0  0  0  0  0  0  0  0  0  0
    2.5097   -2.2927    2.3026 C   0  0  0  0  0  0  0  0  0  0  0  0
    1.5211   -1.4777    2.6849 N   0  0  0  0  0  0  0  0  0  0  0  0
    1.9876    0.0230    2.0780 S   0  0  0  0  0  0  0  0  0  0  0  0
    3.4533   -0.4054    1.3688 N   0  0  0  0  0  0  0  0  0  0  0  0
    3.5622   -1.7205    1.5860 C   0  0  0  0  0  0  0  0  0  0  0  0
    5.6163   -1.9065   -1.4040 N   0  0  0  0  0  0  0  0  0  0  0  0
    5.9709   -3.0577   -2.2545 C   0  0  0  0  0  0  0  0  0  0  0  0
    4.7272   -3.7444   -2.8209 C   0  0  0  0  0  0  0  0  0  0  0  0
    3.7802   -2.7617   -3.5041 C   0  0  0  0  0  0  0  0  0  0  0  0
    2.6342   -3.4539   -3.9409 O   0  0  0  0  0  0  0  0  0  0  0  0
    3.3862   -1.6699   -2.5125 C   0  0  0  0  0  0  0  0  0  0  0  0
    4.6178   -0.9583   -1.9416 C   0  0  0  0  0  0  0  0  0  0  0  0
    5.4932   -4.5235    1.1763 H   0  0  0  0  0  0  0  0  0  0  0  0
    3.5925   -5.5333    2.4451 H   0  0  0  0  0  0  0  0  0  0  0  0
    1.6810   -4.0901    3.1644 H   0  0  0  0  0  0  0  0  0  0  0  0
    6.5993   -2.6965   -3.0678 H   0  0  0  0  0  0  0  0  0  0  0  0
    6.5668   -3.7798   -1.6936 H   0  0  0  0  0  0  0  0  0  0  0  0
    5.0293   -4.5135   -3.5311 H   0  0  0  0  0  0  0  0  0  0  0  0
    4.2120   -4.2460   -2.0010 H   0  0  0  0  0  0  0  0  0  0  0  0
    4.2668   -2.3108   -4.3685 H   0  0  0  0  0  0  0  0  0  0  0  0
    2.3094   -4.0139   -3.2452 H   0  0  0  0  0  0  0  0  0  0  0  0
    2.7512   -0.9357   -3.0089 H   0  0  0  0  0  0  0  0  0  0  0  0
    2.7972   -2.0879   -1.6954 H   0  0  0  0  0  0  0  0  0  0  0  0
    4.3087   -0.2556   -1.1677 H   0  0  0  0  0  0  0  0  0  0  0  0
    5.0864   -0.3618   -2.7201 H   0  0  0  0  0  0  0  0  0  0  0  0
  1  2  2  0
  2  3  2  0
  2  4  1  0
  2 13  1  0
  4 12  1  0
  4  5  2  0
  5  6  1  0
  5 20  1  0
  6  7  2  0
  6 21  1  0
  7  8  1  0
  7 22  1  0
  8 12  1  0
  8  9  2  0
  9 10  1  0
 10 11  1  0
 11 12  2  0
 13 19  1  0
 13 14  1  0
 14 15  1  0
 14 23  1  0
 14 24  1  0
 15 16  1  0
 15 25  1  0
 15 26  1  0
 16 17  1  0
 16 18  1  0
 16 27  1  0
 17 28  1  0
 18 19  1  0
 18 29  1  0
 18 30  1  0
 19 31  1  0
 19 32  1  0
M  END
>  <i_m_ct_stereo_status>  (303) 
1

>  <s_m_source_file>  (303) 
/var/tmp/pbs.5076255.sched01/tmpn8rdt6mw/90ee43ygr2.sdf

>  <i_m_source_file_index>  (303) 
38

>  <i_lp_mmshare_version>  (303) 
48012

>  <i_f3d_flags>  (303) 
0

>  <s_epik_input>  (303) 
bjFzbmMoYzEyKWMoW2NIXVtjSF1bY0hdMilTKD1PKSg9TylOM1tDSDJdW0NIMl1bQ0hdKFtPSF0pW0NIMl1bQ0gyXTM=

>  <s_epik_cmdline>  (303) 
J2VwaWtfcHl0aG9uJywgJy1waHQnLCAnMi4wJywgJy1waCcsICc3LjAnLCAnLXRuJywgJzgnLCAnLW1hJywgJzIwMCcsICctaW1hZScsICc8aW5maWxlLm1hZT4nLCAnLW9tYWUnLCAnPG91dGZpbGUubWFlPic=

>  <r_lp_tautomer_probability>  (303) 
1

>  <r_epik_Ionization_Penalty>  (303) 
8.11728e-08

>  <r_epik_Ionization_Penalty_Charging>  (303) 
0

>  <r_epik_Ionization_Penalty_Neutral>  (303) 
8.11728e-08

>  <r_epik_State_Penalty>  (303) 
-0

>  <r_epik_Charging_Adjusted_Penalty>  (303) 
0

>  <i_epik_Tot_Q>  (303) 
0

>  <i_epik_Tot_abs_Q>  (303) 
0

>  <s_lp_Force_Field>  (303) 
OPLS3e

>  <r_lp_Energy>  (303) 
17.9623

>  <b_lp_Chiralities_Consistent>  (303) 
1

>  <s_lp_Variant>  (303) 
79:0-1

>  <s_i_glide_gridfile>  (303) 
pfpi4k_grid

>  <i_i_glide_lignum>  (303) 
38

>  <i_i_glide_rotatable_bonds>  (303) 
3

>  <r_i_docking_score>  (303) 
-3.39491

>  <r_i_glide_ligand_efficiency>  (303) 
-0.17868

>  <r_i_glide_ligand_efficiency_sa>  (303) 
-0.476789

>  <r_i_glide_ligand_efficiency_ln>  (303) 
-0.860684

>  <r_i_glide_gscore>  (303) 
-3.39491

>  <r_i_glide_lipo>  (303) 
-0.404507

>  <r_i_glide_hbond>  (303) 
-0.0854355

>  <r_i_glide_metal>  (303) 
-0

>  <r_i_glide_rewards>  (303) 
-1.44267

>  <r_i_glide_evdw>  (303) 
-29.5706

>  <r_i_glide_ecoul>  (303) 
-2.29201

>  <r_i_glide_erotb>  (303) 
0.409835

>  <r_i_glide_esite>  (303) 
-0.0498064

>  <r_i_glide_emodel>  (303) 
-38.4541

>  <r_i_glide_energy>  (303) 
-31.8626

>  <r_i_glide_einternal>  (303) 
0.913612

>  <r_i_glide_intrahb_reward>  (303) 
-0

>  <i_i_glide_confnum>  (303) 
3

>  <i_i_glide_posenum>  (303) 
35

>  <r_i_glide_eff_state_penalty>  (303) 
0

>  <ligand_id>  (303) 
79

>  <original_smiles>  (303) 
O=S(=O)(c1cccc2nsnc12)N1CCC(O)CC1

>  <smiles>  (303) 
[H]OC1([H])C([H])([H])C([H])([H])N(S(=O)(=O)c2c([H])c([H])c([H])c3nsnc23)C([H])([H])C1([H])[H]

$$$$
80:0:0
     RDKit          3D

 49 52  0  0  1  0  0  0  0  0999 V2000
    3.9907   -4.7908    3.6341 C   0  0  0  0  0  0  0  0  0  0  0  0
    2.8251   -4.0878    2.9129 C   0  0  2  0  0  0  0  0  0  0  0  0
    2.8788   -4.2195    1.3942 C   0  0  0  0  0  0  0  0  0  0  0  0
    3.8472   -3.2335    0.7203 C   0  0  2  0  0  0  0  0  0  0  0  0
    3.5848   -1.7640    1.1616 C   0  0  2  0  0  0  0  0  0  0  0  0
    4.4844   -0.7679    0.3686 C   0  0  1  0  0  0  0  0  0  0  0  0
    5.8555   -0.8528    0.6922 O   0  0  0  0  0  0  0  0  0  0  0  0
    4.3710   -0.9803   -1.1516 C   0  0  0  0  0  0  0  0  0  0  0  0
    4.6639   -2.4184   -1.6260 C   0  0  2  0  0  0  0  0  0  0  0  0
    6.1690   -2.7445   -1.6730 C   0  0  0  0  0  0  0  0  0  0  0  0
    4.0513   -2.5489   -3.0161 C   0  0  0  0  0  0  0  0  0  0  0  0
    4.5641   -2.0978   -4.0139 O   0  0  0  0  0  0  0  0  0  0  0  0
    2.7215   -3.2553   -3.0193 C   0  0  2  0  0  0  0  0  0  0  0  0
    1.8145   -2.5664   -3.6732 F   0  0  0  0  0  0  0  0  0  0  0  0
    2.4479   -3.4566   -1.5217 C   0  0  0  0  0  0  0  0  0  0  0  0
    3.8369   -3.4397   -0.8260 C   0  0  2  0  0  0  0  0  0  0  0  0
    3.5375   -1.5713    2.7217 C   0  0  1  0  0  0  0  0  0  0  0  0
    4.9311   -1.6703    3.3863 C   0  0  0  0  0  0  0  0  0  0  0  0
    3.0178   -0.1674    3.0585 C   0  0  0  0  0  0  0  0  0  0  0  0
    1.9944    0.1166    3.8796 C   0  0  0  0  0  0  0  0  0  0  0  0
    1.2363   -0.9721    4.5276 C   0  0  0  0  0  0  0  0  0  0  0  0
    0.3505   -0.7348    5.3474 O   0  0  0  0  0  0  0  0  0  0  0  0
    1.5756   -2.3565    4.1596 C   0  0  0  0  0  0  0  0  0  0  0  0
    2.6101   -2.6413    3.3448 C   0  0  0  0  0  0  0  0  0  0  0  0
    3.9557   -4.5911    4.7069 H   0  0  0  0  0  0  0  0  0  0  0  0
    4.9673   -4.4916    3.2597 H   0  0  0  0  0  0  0  0  0  0  0  0
    3.9192   -5.8747    3.4966 H   0  0  0  0  0  0  0  0  0  0  0  0
    1.9367   -4.6384    3.2261 H   0  0  0  0  0  0  0  0  0  0  0  0
    3.1203   -5.2446    1.1065 H   0  0  0  0  0  0  0  0  0  0  0  0
    1.8785   -4.0206    1.0256 H   0  0  0  0  0  0  0  0  0  0  0  0
    4.8586   -3.4940    1.0357 H   0  0  0  0  0  0  0  0  0  0  0  0
    2.5692   -1.5364    0.8301 H   0  0  0  0  0  0  0  0  0  0  0  0
    4.1705    0.2569    0.5735 H   0  0  0  0  0  0  0  0  0  0  0  0
    5.9502   -0.6764    1.6123 H   0  0  0  0  0  0  0  0  0  0  0  0
    3.3464   -0.7147   -1.4350 H   0  0  0  0  0  0  0  0  0  0  0  0
    4.9964   -0.2661   -1.6902 H   0  0  0  0  0  0  0  0  0  0  0  0
    6.5594   -2.9382   -0.6759 H   0  0  0  0  0  0  0  0  0  0  0  0
    6.7350   -1.9240   -2.1008 H   0  0  0  0  0  0  0  0  0  0  0  0
    6.3688   -3.6227   -2.2811 H   0  0  0  0  0  0  0  0  0  0  0  0
    2.8170   -4.1962   -3.5455 H   0  0  0  0  0  0  0  0  0  0  0  0
    1.8194   -2.6543   -1.1534 H   0  0  0  0  0  0  0  0  0  0  0  0
    1.9125   -4.3912   -1.3293 H   0  0  0  0  0  0  0  0  0  0  0  0
    4.2796   -4.4196   -1.0210 H   0  0  0  0  0  0  0  0  0  0  0  0
    4.8454   -1.8485    4.4587 H   0  0  0  0  0  0  0  0  0  0  0  0
    5.5011   -0.7441    3.2776 H   0  0  0  0  0  0  0  0  0  0  0  0
    5.5445   -2.4638    2.9652 H   0  0  0  0  0  0  0  0  0  0  0  0
    3.5577    0.6603    2.6212 H   0  0  0  0  0  0  0  0  0  0  0  0
    1.7008    1.1301    4.1060 H   0  0  0  0  0  0  0  0  0  0  0  0
    0.9331   -3.1256    4.5586 H   0  0  0  0  0  0  0  0  0  0  0  0
  1  2  1  0
  1 25  1  0
  1 26  1  0
  1 27  1  0
  2 24  1  0
  2  3  1  0
  2 28  1  1
  3  4  1  0
  3 29  1  0
  3 30  1  0
  4 16  1  0
  4  5  1  0
  4 31  1  1
  5  6  1  0
  5 17  1  0
  5 32  1  6
  6  7  1  0
  6  8  1  0
  6 33  1  6
  7 34  1  0
  8  9  1  0
  8 35  1  0
  8 36  1  0
  9 16  1  0
  9 10  1  6
  9 11  1  0
 10 37  1  0
 10 38  1  0
 10 39  1  0
 11 12  2  0
 11 13  1  0
 13 14  1  0
 13 15  1  0
 13 40  1  6
 15 16  1  0
 15 41  1  0
 15 42  1  0
 16 43  1  1
 17 24  1  0
 17 18  1  1
 17 19  1  0
 18 44  1  0
 18 45  1  0
 18 46  1  0
 19 20  2  0
 19 47  1  0
 20 21  1  0
 20 48  1  0
 21 22  2  0
 21 23  1  0
 23 24  2  0
 23 49  1  0
M  END
>  <i_m_ct_stereo_status>  (304) 
1

>  <s_m_source_file>  (304) 
/var/tmp/pbs.5076255.sched01/tmpn8rdt6mw/90ee43ygr2.sdf

>  <i_m_source_file_index>  (304) 
39

>  <i_lp_mmshare_version>  (304) 
48012

>  <i_f3d_flags>  (304) 
0

>  <s_epik_input>  (304) 
W0NIXTE9W0NIXUMoPU8pW0NIXT1DKFtDQEhdKFtDSDNdKVtDSDJdMilbQ0BAXTEoW0NIM10pW0NAQEhdKFtDQEBIXShbT0hdKVtDSDJdMylbQ0BASF0yW0NASF0oW0NAXTM0W0NIM10pW0NIMl1bQ0BASF0oRilDND1P

>  <s_epik_cmdline>  (304) 
J2VwaWtfcHl0aG9uJywgJy1waHQnLCAnMi4wJywgJy1waCcsICc3LjAnLCAnLXRuJywgJzgnLCAnLW1hJywgJzIwMCcsICctaW1hZScsICc8aW5maWxlLm1hZT4nLCAnLW9tYWUnLCAnPG91dGZpbGUubWFlPic=

>  <r_lp_tautomer_probability>  (304) 
1

>  <r_epik_Ionization_Penalty>  (304) 
6.07877e-08

>  <r_epik_Ionization_Penalty_Charging>  (304) 
0

>  <r_epik_Ionization_Penalty_Neutral>  (304) 
6.07877e-08

>  <r_epik_State_Penalty>  (304) 
-0

>  <r_epik_Charging_Adjusted_Penalty>  (304) 
0

>  <i_epik_Tot_Q>  (304) 
0

>  <i_epik_Tot_abs_Q>  (304) 
0

>  <s_lp_Force_Field>  (304) 
OPLS3e

>  <r_lp_Energy>  (304) 
33.605

>  <b_lp_Chiralities_Consistent>  (304) 
1

>  <s_lp_Variant>  (304) 
80:0-1

>  <s_i_glide_gridfile>  (304) 
pfpi4k_grid

>  <i_i_glide_lignum>  (304) 
39

>  <i_i_glide_rotatable_bonds>  (304) 
1

>  <r_i_docking_score>  (304) 
-4.21078

>  <r_i_glide_ligand_efficiency>  (304) 
-0.175449

>  <r_i_glide_ligand_efficiency_sa>  (304) 
-0.506083

>  <r_i_glide_ligand_efficiency_ln>  (304) 
-1.00783

>  <r_i_glide_gscore>  (304) 
-4.21078

>  <r_i_glide_lipo>  (304) 
-0.391427

>  <r_i_glide_hbond>  (304) 
-0.204713

>  <r_i_glide_metal>  (304) 
-0

>  <r_i_glide_rewards>  (304) 
-1.57725

>  <r_i_glide_evdw>  (304) 
-24.6205

>  <r_i_glide_ecoul>  (304) 
-5.37391

>  <r_i_glide_erotb>  (304) 
0

>  <r_i_glide_esite>  (304) 
-0.000278909

>  <r_i_glide_emodel>  (304) 
-38.4859

>  <r_i_glide_energy>  (304) 
-29.9944

>  <r_i_glide_einternal>  (304) 
0.322797

>  <r_i_glide_intrahb_reward>  (304) 
-0

>  <i_i_glide_confnum>  (304) 
2

>  <i_i_glide_posenum>  (304) 
18

>  <r_i_glide_eff_state_penalty>  (304) 
0

>  <ligand_id>  (304) 
80

>  <original_smiles>  (304) 
CC1CC2C(C(O)CC3(C)C(=O)C(F)CC23)C2(C)C=CC(=O)C=C12

>  <smiles>  (304) 
[H]OC1([H])C([H])([H])C2(C([H])([H])[H])C(=O)C([H])(F)C([H])([H])C2([H])C2([H])C([H])([H])C([H])(C([H])([H])[H])C3=C([H])C(=O)C([H])=C([H])C3(C([H])([H])[H])C12[H]

$$$$
80:0:1
     RDKit          3D

 49 52  0  0  1  0  0  0  0  0999 V2000
    2.9192   -4.2120    5.6189 C   0  0  0  0  0  0  0  0  0  0  0  0
    1.9340   -3.8925    4.4796 C   0  0  2  0  0  0  0  0  0  0  0  0
    2.5554   -3.9840    3.0809 C   0  0  0  0  0  0  0  0  0  0  0  0
    3.3812   -2.7446    2.6730 C   0  0  2  0  0  0  0  0  0  0  0  0
    2.5618   -1.4326    2.8527 C   0  0  2  0  0  0  0  0  0  0  0  0
    3.3587   -0.2012    2.3266 C   0  0  1  0  0  0  0  0  0  0  0  0
    4.4691    0.1443    3.1354 O   0  0  0  0  0  0  0  0  0  0  0  0
    3.8418   -0.4094    0.8794 C   0  0  0  0  0  0  0  0  0  0  0  0
    4.6920   -1.6885    0.6589 C   0  0  2  0  0  0  0  0  0  0  0  0
    6.1397   -1.5457    1.1752 C   0  0  0  0  0  0  0  0  0  0  0  0
    4.7030   -2.0100   -0.8399 C   0  0  0  0  0  0  0  0  0  0  0  0
    5.4559   -1.4719   -1.6528 O   0  0  0  0  0  0  0  0  0  0  0  0
    3.7038   -3.1004   -1.1962 C   0  0  2  0  0  0  0  0  0  0  0  0
    2.8589   -2.7053   -2.1481 F   0  0  0  0  0  0  0  0  0  0  0  0
    3.0002   -3.3885    0.1349 C   0  0  0  0  0  0  0  0  0  0  0  0
    3.9794   -2.9332    1.2414 C   0  0  2  0  0  0  0  0  0  0  0  0
    1.9171   -1.2750    4.2845 C   0  0  1  0  0  0  0  0  0  0  0  0
    2.9472   -0.9518    5.3919 C   0  0  0  0  0  0  0  0  0  0  0  0
    0.9250   -0.1030    4.2863 C   0  0  0  0  0  0  0  0  0  0  0  0
   -0.3592   -0.1542    4.6870 C   0  0  0  0  0  0  0  0  0  0  0  0
   -0.9458   -1.4094    5.1605 C   0  0  0  0  0  0  0  0  0  0  0  0
   -2.0847   -1.4551    5.6254 O   0  0  0  0  0  0  0  0  0  0  0  0
   -0.1149   -2.6161    5.0588 C   0  0  0  0  0  0  0  0  0  0  0  0
    1.1756   -2.5803    4.6610 C   0  0  0  0  0  0  0  0  0  0  0  0
    2.4563   -4.0412    6.5927 H   0  0  0  0  0  0  0  0  0  0  0  0
    3.8328   -3.6233    5.5688 H   0  0  0  0  0  0  0  0  0  0  0  0
    3.2198   -5.2594    5.5796 H   0  0  0  0  0  0  0  0  0  0  0  0
    1.1926   -4.6931    4.5260 H   0  0  0  0  0  0  0  0  0  0  0  0
    3.1617   -4.8850    3.0001 H   0  0  0  0  0  0  0  0  0  0  0  0
    1.7349   -4.1064    2.3742 H   0  0  0  0  0  0  0  0  0  0  0  0
    4.2335   -2.6861    3.3490 H   0  0  0  0  0  0  0  0  0  0  0  0
    1.7119   -1.5273    2.1733 H   0  0  0  0  0  0  0  0  0  0  0  0
    2.7068    0.6725    2.3205 H   0  0  0  0  0  0  0  0  0  0  0  0
    4.6111    1.0805    3.0561 H   0  0  0  0  0  0  0  0  0  0  0  0
    2.9492   -0.4656    0.2536 H   0  0  0  0  0  0  0  0  0  0  0  0
    4.3769    0.4733    0.5252 H   0  0  0  0  0  0  0  0  0  0  0  0
    6.1867   -1.6203    2.2599 H   0  0  0  0  0  0  0  0  0  0  0  0
    6.5712   -0.5872    0.8915 H   0  0  0  0  0  0  0  0  0  0  0  0
    6.7925   -2.3241    0.7791 H   0  0  0  0  0  0  0  0  0  0  0  0
    4.2282   -3.9808   -1.5700 H   0  0  0  0  0  0  0  0  0  0  0  0
    2.0773   -2.8092    0.1872 H   0  0  0  0  0  0  0  0  0  0  0  0
    2.7455   -4.4459    0.2257 H   0  0  0  0  0  0  0  0  0  0  0  0
    4.7279   -3.7251    1.3250 H   0  0  0  0  0  0  0  0  0  0  0  0
    2.5443   -1.1496    6.3869 H   0  0  0  0  0  0  0  0  0  0  0  0
    3.2344    0.1005    5.3812 H   0  0  0  0  0  0  0  0  0  0  0  0
    3.8712   -1.5146    5.2882 H   0  0  0  0  0  0  0  0  0  0  0  0
    1.3139    0.8553    3.9758 H   0  0  0  0  0  0  0  0  0  0  0  0
   -0.9809    0.7307    4.6831 H   0  0  0  0  0  0  0  0  0  0  0  0
   -0.5834   -3.5604    5.2885 H   0  0  0  0  0  0  0  0  0  0  0  0
  1  2  1  0
  1 25  1  0
  1 26  1  0
  1 27  1  0
  2 24  1  0
  2  3  1  0
  2 28  1  6
  3  4  1  0
  3 29  1  0
  3 30  1  0
  4 16  1  0
  4  5  1  0
  4 31  1  1
  5  6  1  0
  5 17  1  0
  5 32  1  6
  6  7  1  0
  6  8  1  0
  6 33  1  6
  7 34  1  0
  8  9  1  0
  8 35  1  0
  8 36  1  0
  9 16  1  0
  9 10  1  1
  9 11  1  0
 10 37  1  0
 10 38  1  0
 10 39  1  0
 11 12  2  0
 11 13  1  0
 13 14  1  0
 13 15  1  0
 13 40  1  6
 15 16  1  0
 15 41  1  0
 15 42  1  0
 16 43  1  1
 17 24  1  0
 17 18  1  1
 17 19  1  0
 18 44  1  0
 18 45  1  0
 18 46  1  0
 19 20  2  0
 19 47  1  0
 20 21  1  0
 20 48  1  0
 21 22  2  0
 21 23  1  0
 23 24  2  0
 23 49  1  0
M  END
>  <i_m_ct_stereo_status>  (305) 
1

>  <s_m_source_file>  (305) 
/var/tmp/pbs.5076255.sched01/tmpn8rdt6mw/90ee43ygr2.sdf

>  <i_m_source_file_index>  (305) 
39

>  <i_lp_mmshare_version>  (305) 
48012

>  <i_f3d_flags>  (305) 
0

>  <s_epik_input>  (305) 
W0NIXTE9W0NIXUMoPU8pW0NIXT1DKFtDQEhdKFtDSDNdKVtDSDJdMilbQ0BAXTEoW0NIM10pW0NAQEhdKFtDQEBIXShbT0hdKVtDSDJdMylbQ0BASF0yW0NASF0oW0NAXTM0W0NIM10pW0NIMl1bQ0BASF0oRilDND1P

>  <s_epik_cmdline>  (305) 
J2VwaWtfcHl0aG9uJywgJy1waHQnLCAnMi4wJywgJy1waCcsICc3LjAnLCAnLXRuJywgJzgnLCAnLW1hJywgJzIwMCcsICctaW1hZScsICc8aW5maWxlLm1hZT4nLCAnLW9tYWUnLCAnPG91dGZpbGUubWFlPic=

>  <r_lp_tautomer_probability>  (305) 
1

>  <r_epik_Ionization_Penalty>  (305) 
6.07877e-08

>  <r_epik_Ionization_Penalty_Charging>  (305) 
0

>  <r_epik_Ionization_Penalty_Neutral>  (305) 
6.07877e-08

>  <r_epik_State_Penalty>  (305) 
-0

>  <r_epik_Charging_Adjusted_Penalty>  (305) 
0

>  <i_epik_Tot_Q>  (305) 
0

>  <i_epik_Tot_abs_Q>  (305) 
0

>  <s_lp_Force_Field>  (305) 
OPLS3e

>  <r_lp_Energy>  (305) 
33.605

>  <b_lp_Chiralities_Consistent>  (305) 
1

>  <s_lp_Variant>  (305) 
80:0-1

>  <s_i_glide_gridfile>  (305) 
pfpi4k_grid

>  <i_i_glide_lignum>  (305) 
39

>  <i_i_glide_rotatable_bonds>  (305) 
1

>  <r_i_docking_score>  (305) 
-3.83916

>  <r_i_glide_ligand_efficiency>  (305) 
-0.159965

>  <r_i_glide_ligand_efficiency_sa>  (305) 
-0.461419

>  <r_i_glide_ligand_efficiency_ln>  (305) 
-0.918888

>  <r_i_glide_gscore>  (305) 
-3.83916

>  <r_i_glide_lipo>  (305) 
-0.226888

>  <r_i_glide_hbond>  (305) 
-0.291808

>  <r_i_glide_metal>  (305) 
-0

>  <r_i_glide_rewards>  (305) 
-1.14267

>  <r_i_glide_evdw>  (305) 
-25.1974

>  <r_i_glide_ecoul>  (305) 
-5.48619

>  <r_i_glide_erotb>  (305) 
0

>  <r_i_glide_esite>  (305) 
-0.0950028

>  <r_i_glide_emodel>  (305) 
-37.9723

>  <r_i_glide_energy>  (305) 
-30.6836

>  <r_i_glide_einternal>  (305) 
0.861234

>  <r_i_glide_intrahb_reward>  (305) 
-0

>  <i_i_glide_confnum>  (305) 
2

>  <i_i_glide_posenum>  (305) 
17

>  <r_i_glide_eff_state_penalty>  (305) 
0

>  <ligand_id>  (305) 
80

>  <original_smiles>  (305) 
CC1CC2C(C(O)CC3(C)C(=O)C(F)CC23)C2(C)C=CC(=O)C=C12

>  <smiles>  (305) 
[H]OC1([H])C([H])([H])C2(C([H])([H])[H])C(=O)C([H])(F)C([H])([H])C2([H])C2([H])C([H])([H])C([H])(C([H])([H])[H])C3=C([H])C(=O)C([H])=C([H])C3(C([H])([H])[H])C12[H]

$$$$
80:0:2
     RDKit          3D

 49 52  0  0  1  0  0  0  0  0999 V2000
    3.1687   -4.5595    5.1849 C   0  0  0  0  0  0  0  0  0  0  0  0
    2.1348   -4.1402    4.1247 C   0  0  2  0  0  0  0  0  0  0  0  0
    2.6549   -4.2342    2.6844 C   0  0  0  0  0  0  0  0  0  0  0  0
    3.5390   -3.0460    2.2500 C   0  0  2  0  0  0  0  0  0  0  0  0
    2.8317   -1.6834    2.5157 C   0  0  2  0  0  0  0  0  0  0  0  0
    3.6804   -0.4970    1.9617 C   0  0  1  0  0  0  0  0  0  0  0  0
    4.8757   -0.2573    2.6826 O   0  0  0  0  0  0  0  0  0  0  0  0
    4.0406   -0.7036    0.4802 C   0  0  0  0  0  0  0  0  0  0  0  0
    4.7824   -2.0311    0.1755 C   0  0  2  0  0  0  0  0  0  0  0  0
    6.2692   -2.0029    0.5952 C   0  0  0  0  0  0  0  0  0  0  0  0
    4.6713   -2.3123   -1.3262 C   0  0  0  0  0  0  0  0  0  0  0  0
    5.4061   -1.8109   -2.1769 O   0  0  0  0  0  0  0  0  0  0  0  0
    3.5711   -3.3131   -1.6358 C   0  0  2  0  0  0  0  0  0  0  0  0
    2.6949   -2.8264   -2.5159 F   0  0  0  0  0  0  0  0  0  0  0  0
    2.9391   -3.5885   -0.2684 C   0  0  0  0  0  0  0  0  0  0  0  0
    4.0225   -3.2372    0.7771 C   0  0  2  0  0  0  0  0  0  0  0  0
    2.2947   -1.5238    3.9919 C   0  0  1  0  0  0  0  0  0  0  0  0
    3.4202   -1.3039    5.0311 C   0  0  0  0  0  0  0  0  0  0  0  0
    1.3909   -0.2852    4.0908 C   0  0  0  0  0  0  0  0  0  0  0  0
    0.1367   -0.2566    4.5755 C   0  0  0  0  0  0  0  0  0  0  0  0
   -0.5120   -1.4792    5.0509 C   0  0  0  0  0  0  0  0  0  0  0  0
   -1.6262   -1.4561    5.5788 O   0  0  0  0  0  0  0  0  0  0  0  0
    0.2205   -2.7392    4.8699 C   0  0  0  0  0  0  0  0  0  0  0  0
    1.4836   -2.7821    4.3881 C   0  0  0  0  0  0  0  0  0  0  0  0
    2.7869   -4.3852    6.1919 H   0  0  0  0  0  0  0  0  0  0  0  0
    4.1166   -4.0366    5.0859 H   0  0  0  0  0  0  0  0  0  0  0  0
    3.3901   -5.6238    5.1010 H   0  0  0  0  0  0  0  0  0  0  0  0
    1.3428   -4.8874    4.2023 H   0  0  0  0  0  0  0  0  0  0  0  0
    3.1871   -5.1748    2.5400 H   0  0  0  0  0  0  0  0  0  0  0  0
    1.7850   -4.2799    2.0315 H   0  0  0  0  0  0  0  0  0  0  0  0
    4.4353   -3.0704    2.8686 H   0  0  0  0  0  0  0  0  0  0  0  0
    1.9342   -1.6991    1.8939 H   0  0  0  0  0  0  0  0  0  0  0  0
    3.1003    0.4229    2.0221 H   0  0  0  0  0  0  0  0  0  0  0  0
    5.4127   -1.0323    2.6302 H   0  0  0  0  0  0  0  0  0  0  0  0
    3.1045   -0.6707   -0.0819 H   0  0  0  0  0  0  0  0  0  0  0  0
    4.6198    0.1428    0.1122 H   0  0  0  0  0  0  0  0  0  0  0  0
    6.3895   -2.1238    1.6691 H   0  0  0  0  0  0  0  0  0  0  0  0
    6.7465   -1.0652    0.3116 H   0  0  0  0  0  0  0  0  0  0  0  0
    6.8357   -2.8106    0.1300 H   0  0  0  0  0  0  0  0  0  0  0  0
    4.0076   -4.2158   -2.0652 H   0  0  0  0  0  0  0  0  0  0  0  0
    2.0643   -2.9521   -0.1389 H   0  0  0  0  0  0  0  0  0  0  0  0
    2.6171   -4.6280   -0.1895 H   0  0  0  0  0  0  0  0  0  0  0  0
    4.7141   -4.0836    0.7874 H   0  0  0  0  0  0  0  0  0  0  0  0
    3.0701   -1.4997    6.0459 H   0  0  0  0  0  0  0  0  0  0  0  0
    3.7815   -0.2748    5.0246 H   0  0  0  0  0  0  0  0  0  0  0  0
    4.2910   -1.9287    4.8546 H   0  0  0  0  0  0  0  0  0  0  0  0
    1.8263    0.6528    3.7783 H   0  0  0  0  0  0  0  0  0  0  0  0
   -0.4154    0.6710    4.6359 H   0  0  0  0  0  0  0  0  0  0  0  0
   -0.3055   -3.6515    5.1090 H   0  0  0  0  0  0  0  0  0  0  0  0
  1  2  1  0
  1 25  1  0
  1 26  1  0
  1 27  1  0
  2 24  1  0
  2  3  1  0
  2 28  1  6
  3  4  1  0
  3 29  1  0
  3 30  1  0
  4 16  1  0
  4  5  1  0
  4 31  1  1
  5  6  1  0
  5 17  1  0
  5 32  1  6
  6  7  1  0
  6  8  1  0
  6 33  1  6
  7 34  1  0
  8  9  1  0
  8 35  1  0
  8 36  1  0
  9 16  1  0
  9 10  1  1
  9 11  1  0
 10 37  1  0
 10 38  1  0
 10 39  1  0
 11 12  2  0
 11 13  1  0
 13 14  1  0
 13 15  1  0
 13 40  1  6
 15 16  1  0
 15 41  1  0
 15 42  1  0
 16 43  1  1
 17 24  1  0
 17 18  1  1
 17 19  1  0
 18 44  1  0
 18 45  1  0
 18 46  1  0
 19 20  2  0
 19 47  1  0
 20 21  1  0
 20 48  1  0
 21 22  2  0
 21 23  1  0
 23 24  2  0
 23 49  1  0
M  END
>  <i_m_ct_stereo_status>  (306) 
1

>  <s_m_source_file>  (306) 
/var/tmp/pbs.5076255.sched01/tmpn8rdt6mw/90ee43ygr2.sdf

>  <i_m_source_file_index>  (306) 
39

>  <i_lp_mmshare_version>  (306) 
48012

>  <i_f3d_flags>  (306) 
0

>  <s_epik_input>  (306) 
W0NIXTE9W0NIXUMoPU8pW0NIXT1DKFtDQEhdKFtDSDNdKVtDSDJdMilbQ0BAXTEoW0NIM10pW0NAQEhdKFtDQEBIXShbT0hdKVtDSDJdMylbQ0BASF0yW0NASF0oW0NAXTM0W0NIM10pW0NIMl1bQ0BASF0oRilDND1P

>  <s_epik_cmdline>  (306) 
J2VwaWtfcHl0aG9uJywgJy1waHQnLCAnMi4wJywgJy1waCcsICc3LjAnLCAnLXRuJywgJzgnLCAnLW1hJywgJzIwMCcsICctaW1hZScsICc8aW5maWxlLm1hZT4nLCAnLW9tYWUnLCAnPG91dGZpbGUubWFlPic=

>  <r_lp_tautomer_probability>  (306) 
1

>  <r_epik_Ionization_Penalty>  (306) 
6.07877e-08

>  <r_epik_Ionization_Penalty_Charging>  (306) 
0

>  <r_epik_Ionization_Penalty_Neutral>  (306) 
6.07877e-08

>  <r_epik_State_Penalty>  (306) 
-0

>  <r_epik_Charging_Adjusted_Penalty>  (306) 
0

>  <i_epik_Tot_Q>  (306) 
0

>  <i_epik_Tot_abs_Q>  (306) 
0

>  <s_lp_Force_Field>  (306) 
OPLS3e

>  <r_lp_Energy>  (306) 
33.605

>  <b_lp_Chiralities_Consistent>  (306) 
1

>  <s_lp_Variant>  (306) 
80:0-1

>  <s_i_glide_gridfile>  (306) 
pfpi4k_grid

>  <i_i_glide_lignum>  (306) 
39

>  <i_i_glide_rotatable_bonds>  (306) 
1

>  <r_i_docking_score>  (306) 
-3.41094

>  <r_i_glide_ligand_efficiency>  (306) 
-0.142122

>  <r_i_glide_ligand_efficiency_sa>  (306) 
-0.409952

>  <r_i_glide_ligand_efficiency_ln>  (306) 
-0.816394

>  <r_i_glide_gscore>  (306) 
-3.41094

>  <r_i_glide_lipo>  (306) 
-0.190534

>  <r_i_glide_hbond>  (306) 
-0.00735134

>  <r_i_glide_metal>  (306) 
-0

>  <r_i_glide_rewards>  (306) 
-1.14267

>  <r_i_glide_evdw>  (306) 
-25.5358

>  <r_i_glide_ecoul>  (306) 
-4.83303

>  <r_i_glide_erotb>  (306) 
0

>  <r_i_glide_esite>  (306) 
-0.0686447

>  <r_i_glide_emodel>  (306) 
-37.3944

>  <r_i_glide_energy>  (306) 
-30.3688

>  <r_i_glide_einternal>  (306) 
5.79555e-05

>  <r_i_glide_intrahb_reward>  (306) 
-0

>  <i_i_glide_confnum>  (306) 
2

>  <i_i_glide_posenum>  (306) 
1

>  <r_i_glide_eff_state_penalty>  (306) 
0

>  <ligand_id>  (306) 
80

>  <original_smiles>  (306) 
CC1CC2C(C(O)CC3(C)C(=O)C(F)CC23)C2(C)C=CC(=O)C=C12

>  <smiles>  (306) 
[H]OC1([H])C([H])([H])C2(C([H])([H])[H])C(=O)C([H])(F)C([H])([H])C2([H])C2([H])C([H])([H])C([H])(C([H])([H])[H])C3=C([H])C(=O)C([H])=C([H])C3(C([H])([H])[H])C12[H]

$$$$
81:0:0
     RDKit          3D

 68 73  0  0  1  0  0  0  0  0999 V2000
    6.1552   -2.5805   -1.4173 C   0  0  0  0  0  0  0  0  0  0  0  0
    5.4924   -2.1465   -0.0789 C   0  0  0  0  0  0  0  0  0  0  0  0
    6.6192   -1.3613    0.6378 C   0  0  0  0  0  0  0  0  0  0  0  0
    4.3013   -1.1808   -0.3418 C   0  0  1  0  0  0  0  0  0  0  0  0
    3.4074   -1.7203   -1.2916 O   0  0  0  0  0  0  0  0  0  0  0  0
    3.4903   -0.8315    0.9129 C   0  0  0  0  0  0  0  0  0  0  0  0
    3.0762   -2.0725    1.7094 C   0  0  0  0  0  0  0  0  0  0  0  0
    4.2568   -2.9939    2.0792 C   0  0  2  0  0  0  0  0  0  0  0  0
    5.1221   -2.3365    3.1776 C   0  0  0  0  0  0  0  0  0  0  0  0
    5.0610   -3.3864    0.7956 C   0  0  1  0  0  0  0  0  0  0  0  0
    4.3036   -4.4918   -0.0026 C   0  0  0  0  0  0  0  0  0  0  0  0
    4.1366   -5.8187    0.7862 C   0  0  0  0  0  0  0  0  0  0  0  0
    3.6583   -5.6305    2.2262 C   0  0  2  0  0  0  0  0  0  0  0  0
    4.5147   -5.2588    3.4149 C   0  0  2  0  0  0  0  0  0  0  0  0
    3.8830   -6.3460    4.2097 C   0  0  0  0  0  0  0  0  0  0  0  0
    3.0610   -6.8349    2.9858 C   0  0  2  0  0  0  0  0  0  0  0  0
    3.4519   -8.2331    2.4683 C   0  0  0  0  0  0  0  0  0  0  0  0
    2.3112   -9.2673    2.4746 C   0  0  0  0  0  0  0  0  0  0  0  0
    1.3975   -9.1507    3.7166 C   0  0  2  0  0  0  0  0  0  0  0  0
    2.1936   -9.4790    4.9966 C   0  0  0  0  0  0  0  0  0  0  0  0
    0.2408  -10.1727    3.5843 C   0  0  0  0  0  0  0  0  0  0  0  0
   -0.8516   -9.5037    2.7420 C   0  0  0  0  0  0  0  0  0  0  0  0
   -0.5664   -8.0331    2.9302 C   0  0  0  0  0  0  0  0  0  0  0  0
   -1.2975   -7.1366    2.4970 O   0  0  0  0  0  0  0  0  0  0  0  0
    0.7067   -7.7491    3.7292 C   0  0  1  0  0  0  0  0  0  0  0  0
    0.2445   -7.2997    5.1318 C   0  0  0  0  0  0  0  0  0  0  0  0
    1.5291   -6.6695    2.9572 C   0  0  0  0  0  0  0  0  0  0  0  0
    3.6812   -4.1929    2.7573 C   0  0  1  0  0  0  0  0  0  0  0  0
    6.5784   -1.7358   -1.9435 H   0  0  0  0  0  0  0  0  0  0  0  0
    5.4357   -3.0221   -2.1114 H   0  0  0  0  0  0  0  0  0  0  0  0
    6.9487   -3.3093   -1.2572 H   0  0  0  0  0  0  0  0  0  0  0  0
    6.2378   -0.6886    1.4021 H   0  0  0  0  0  0  0  0  0  0  0  0
    7.1514   -0.6940   -0.0139 H   0  0  0  0  0  0  0  0  0  0  0  0
    7.3550   -2.0153    1.0996 H   0  0  0  0  0  0  0  0  0  0  0  0
    4.6837   -0.2563   -0.7661 H   0  0  0  0  0  0  0  0  0  0  0  0
    2.5228   -1.3917   -1.1217 H   0  0  0  0  0  0  0  0  0  0  0  0
    4.0686   -0.1727    1.5512 H   0  0  0  0  0  0  0  0  0  0  0  0
    2.6079   -0.2612    0.6449 H   0  0  0  0  0  0  0  0  0  0  0  0
    2.5648   -1.7645    2.6160 H   0  0  0  0  0  0  0  0  0  0  0  0
    2.3472   -2.6402    1.1305 H   0  0  0  0  0  0  0  0  0  0  0  0
    6.1352   -2.7243    3.1325 H   0  0  0  0  0  0  0  0  0  0  0  0
    4.7453   -2.5367    4.1707 H   0  0  0  0  0  0  0  0  0  0  0  0
    5.1821   -1.2519    3.1046 H   0  0  0  0  0  0  0  0  0  0  0  0
    5.9898   -3.8801    1.1006 H   0  0  0  0  0  0  0  0  0  0  0  0
    3.3018   -4.1319   -0.2489 H   0  0  0  0  0  0  0  0  0  0  0  0
    4.7709   -4.7269   -0.9465 H   0  0  0  0  0  0  0  0  0  0  0  0
    3.4014   -6.4199    0.2506 H   0  0  0  0  0  0  0  0  0  0  0  0
    5.0792   -6.3645    0.7642 H   0  0  0  0  0  0  0  0  0  0  0  0
    5.5941   -5.3235    3.2667 H   0  0  0  0  0  0  0  0  0  0  0  0
    4.5856   -7.0540    4.6238 H   0  0  0  0  0  0  0  0  0  0  0  0
    3.2323   -5.9602    5.0008 H   0  0  0  0  0  0  0  0  0  0  0  0
    3.9322   -8.2340    1.4937 H   0  0  0  0  0  0  0  0  0  0  0  0
    4.2214   -8.6462    3.1384 H   0  0  0  0  0  0  0  0  0  0  0  0
    1.7224   -9.0944    1.5721 H   0  0  0  0  0  0  0  0  0  0  0  0
    2.7095  -10.2774    2.3781 H   0  0  0  0  0  0  0  0  0  0  0  0
    1.5502   -9.5868    5.8752 H   0  0  0  0  0  0  0  0  0  0  0  0
    2.9293   -8.7120    5.2315 H   0  0  0  0  0  0  0  0  0  0  0  0
    2.7267  -10.4252    4.8850 H   0  0  0  0  0  0  0  0  0  0  0  0
    0.5657  -11.1213    3.1516 H   0  0  0  0  0  0  0  0  0  0  0  0
   -0.1831  -10.3797    4.5634 H   0  0  0  0  0  0  0  0  0  0  0  0
   -0.7226   -9.7724    1.7063 H   0  0  0  0  0  0  0  0  0  0  0  0
   -1.8531   -9.7985    3.0547 H   0  0  0  0  0  0  0  0  0  0  0  0
    1.0725   -7.1063    5.8055 H   0  0  0  0  0  0  0  0  0  0  0  0
   -0.3892   -8.0563    5.6002 H   0  0  0  0  0  0  0  0  0  0  0  0
   -0.3609   -6.3936    5.0866 H   0  0  0  0  0  0  0  0  0  0  0  0
    1.3017   -5.7155    3.4488 H   0  0  0  0  0  0  0  0  0  0  0  0
    1.1711   -6.5430    1.9473 H   0  0  0  0  0  0  0  0  0  0  0  0
    2.8008   -3.9329    3.3516 H   0  0  0  0  0  0  0  0  0  0  0  0
  1  2  1  0
  1 29  1  0
  1 30  1  0
  1 31  1  0
  2 10  1  0
  2  3  1  0
  2  4  1  0
  3 32  1  0
  3 33  1  0
  3 34  1  0
  4  5  1  0
  4  6  1  0
  4 35  1  6
  5 36  1  0
  6  7  1  0
  6 37  1  0
  6 38  1  0
  7  8  1  0
  7 39  1  0
  7 40  1  0
  8 28  1  0
  8  9  1  1
  8 10  1  0
  9 41  1  0
  9 42  1  0
  9 43  1  0
 10 11  1  0
 10 44  1  1
 11 12  1  0
 11 45  1  0
 11 46  1  0
 13 12  1  6
 12 47  1  0
 12 48  1  0
 13 16  1  0
 13 28  1  0
 13 14  1  0
 14 15  1  0
 14 28  1  0
 14 49  1  6
 16 15  1  1
 15 50  1  0
 15 51  1  0
 16 27  1  0
 16 17  1  0
 17 18  1  0
 17 52  1  0
 17 53  1  0
 18 19  1  0
 18 54  1  0
 18 55  1  0
 19 25  1  0
 19 20  1  1
 19 21  1  0
 20 56  1  0
 20 57  1  0
 20 58  1  0
 21 22  1  0
 21 59  1  0
 21 60  1  0
 22 23  1  0
 22 61  1  0
 22 62  1  0
 23 24  2  0
 23 25  1  0
 25 26  1  1
 25 27  1  0
 26 63  1  0
 26 64  1  0
 26 65  1  0
 27 66  1  0
 27 67  1  0
 28 68  1  1
M  END
>  <i_m_ct_stereo_status>  (307) 
1

>  <s_m_source_file>  (307) 
/var/tmp/pbs.5076255.sched01/tmpn8rdt6mw/90ee43ygr2.sdf

>  <i_m_source_file_index>  (307) 
40

>  <i_lp_mmshare_version>  (307) 
48012

>  <i_f3d_flags>  (307) 
0

>  <s_epik_input>  (307) 
W0NIMl0xW0NIMl1bQ0BIXShbT0hdKUMoW0NIM10pKFtDSDNdKVtDQEhdKFtDSDJdW0NIMl0yKVtDQF0xKFtDSDNdKVtDQEBIXTNbQ0BIXTRbQ0gyXVtDQEBdNShbQ0BAXTIzNClbQ0gyXVtDSDJdW0NAQF02KFtDSDNdKVtDQEBdKFtDSDNdKShbQ0gyXTUpQyg9TylbQ0gyXVtDSDJdNg==

>  <s_epik_cmdline>  (307) 
J2VwaWtfcHl0aG9uJywgJy1waHQnLCAnMi4wJywgJy1waCcsICc3LjAnLCAnLXRuJywgJzgnLCAnLW1hJywgJzIwMCcsICctaW1hZScsICc8aW5maWxlLm1hZT4nLCAnLW9tYWUnLCAnPG91dGZpbGUubWFlPic=

>  <r_lp_tautomer_probability>  (307) 
1

>  <r_epik_Ionization_Penalty>  (307) 
3.16692e-06

>  <r_epik_Ionization_Penalty_Charging>  (307) 
0

>  <r_epik_Ionization_Penalty_Neutral>  (307) 
3.16692e-06

>  <r_epik_State_Penalty>  (307) 
-0

>  <r_epik_Charging_Adjusted_Penalty>  (307) 
0

>  <i_epik_Tot_Q>  (307) 
0

>  <i_epik_Tot_abs_Q>  (307) 
0

>  <s_lp_Force_Field>  (307) 
OPLS3e

>  <r_lp_Energy>  (307) 
67.7519

>  <b_lp_Chiralities_Consistent>  (307) 
1

>  <s_lp_Variant>  (307) 
81:0-1

>  <s_i_glide_gridfile>  (307) 
pfpi4k_grid

>  <i_i_glide_lignum>  (307) 
40

>  <i_i_glide_rotatable_bonds>  (307) 
1

>  <r_i_docking_score>  (307) 
-3.8967

>  <r_i_glide_ligand_efficiency>  (307) 
-0.139168

>  <r_i_glide_ligand_efficiency_sa>  (307) 
-0.422595

>  <r_i_glide_ligand_efficiency_ln>  (307) 
-0.899472

>  <r_i_glide_gscore>  (307) 
-3.8967

>  <r_i_glide_lipo>  (307) 
-0.252668

>  <r_i_glide_hbond>  (307) 
-0.32

>  <r_i_glide_metal>  (307) 
-0

>  <r_i_glide_rewards>  (307) 
-0.786855

>  <r_i_glide_evdw>  (307) 
-31.2093

>  <r_i_glide_ecoul>  (307) 
-6.1395

>  <r_i_glide_erotb>  (307) 
0

>  <r_i_glide_esite>  (307) 
-0.0557855

>  <r_i_glide_emodel>  (307) 
-45.9929

>  <r_i_glide_energy>  (307) 
-37.3488

>  <r_i_glide_einternal>  (307) 
1.03214

>  <r_i_glide_intrahb_reward>  (307) 
-0

>  <i_i_glide_confnum>  (307) 
1

>  <i_i_glide_posenum>  (307) 
1

>  <r_i_glide_eff_state_penalty>  (307) 
0

>  <ligand_id>  (307) 
81

>  <original_smiles>  (307) 
CC1(C)C(O)CCC2(C)C1CCC13C(CC14CCC1(C)CCC(=O)C1(C)C4)C23

>  <smiles>  (307) 
[H]OC1([H])C([H])([H])C([H])([H])C2(C([H])([H])[H])C([H])(C([H])([H])C([H])([H])C34C([H])(C([H])([H])C35C([H])([H])C([H])([H])C3(C([H])([H])[H])C([H])([H])C([H])([H])C(=O)C3(C([H])([H])[H])C5([H])[H])C24[H])C1(C([H])([H])[H])C([H])([H])[H]

$$$$
81:0:1
     RDKit          3D

 68 73  0  0  1  0  0  0  0  0999 V2000
    4.3430   -5.6122    1.2580 C   0  0  0  0  0  0  0  0  0  0  0  0
    4.7319   -4.1913    0.7618 C   0  0  0  0  0  0  0  0  0  0  0  0
    6.2753   -4.2616    0.6297 C   0  0  0  0  0  0  0  0  0  0  0  0
    4.1221   -3.9375   -0.6502 C   0  0  1  0  0  0  0  0  0  0  0  0
    2.7465   -4.2599   -0.6967 O   0  0  0  0  0  0  0  0  0  0  0  0
    4.3072   -2.4969   -1.1599 C   0  0  0  0  0  0  0  0  0  0  0  0
    3.8714   -1.4527   -0.1281 C   0  0  0  0  0  0  0  0  0  0  0  0
    4.5306   -1.6073    1.2536 C   0  0  2  0  0  0  0  0  0  0  0  0
    6.0201   -1.2110    1.1925 C   0  0  0  0  0  0  0  0  0  0  0  0
    4.3016   -3.0717    1.7901 C   0  0  1  0  0  0  0  0  0  0  0  0
    2.8444   -3.2097    2.3195 C   0  0  0  0  0  0  0  0  0  0  0  0
    2.5277   -2.3100    3.5304 C   0  0  0  0  0  0  0  0  0  0  0  0
    2.9975   -0.8627    3.3533 C   0  0  2  0  0  0  0  0  0  0  0  0
    4.3813   -0.3258    3.5512 C   0  0  2  0  0  0  0  0  0  0  0  0
    3.8310    0.8365    4.3244 C   0  0  0  0  0  0  0  0  0  0  0  0
    2.3929    0.2544    4.2401 C   0  0  2  0  0  0  0  0  0  0  0  0
    1.8239   -0.1914    5.6106 C   0  0  0  0  0  0  0  0  0  0  0  0
    0.5147    0.5132    6.0073 C   0  0  0  0  0  0  0  0  0  0  0  0
    0.5075    2.0271    5.6705 C   0  0  2  0  0  0  0  0  0  0  0  0
    1.6121    2.7533    6.4722 C   0  0  0  0  0  0  0  0  0  0  0  0
   -0.8646    2.6299    6.0593 C   0  0  0  0  0  0  0  0  0  0  0  0
   -1.8116    2.3579    4.9006 C   0  0  0  0  0  0  0  0  0  0  0  0
   -0.8796    2.2038    3.7177 C   0  0  0  0  0  0  0  0  0  0  0  0
   -1.2851    2.0776    2.5731 O   0  0  0  0  0  0  0  0  0  0  0  0
    0.6023    2.1973    4.1224 C   0  0  1  0  0  0  0  0  0  0  0  0
    1.1836    3.5743    3.6977 C   0  0  0  0  0  0  0  0  0  0  0  0
    1.3312    1.0098    3.4134 C   0  0  0  0  0  0  0  0  0  0  0  0
    3.8908   -0.5660    2.1627 C   0  0  1  0  0  0  0  0  0  0  0  0
    4.7735   -6.3902    0.6246 H   0  0  0  0  0  0  0  0  0  0  0  0
    3.2695   -5.7835    1.2485 H   0  0  0  0  0  0  0  0  0  0  0  0
    4.6974   -5.7825    2.2772 H   0  0  0  0  0  0  0  0  0  0  0  0
    6.6788   -3.5122   -0.0421 H   0  0  0  0  0  0  0  0  0  0  0  0
    6.6077   -5.2122    0.2104 H   0  0  0  0  0  0  0  0  0  0  0  0
    6.7729   -4.1431    1.5947 H   0  0  0  0  0  0  0  0  0  0  0  0
    4.6124   -4.6066   -1.3564 H   0  0  0  0  0  0  0  0  0  0  0  0
    2.6275   -4.8460   -1.4458 H   0  0  0  0  0  0  0  0  0  0  0  0
    5.3484   -2.3285   -1.4172 H   0  0  0  0  0  0  0  0  0  0  0  0
    3.7474   -2.3471   -2.0850 H   0  0  0  0  0  0  0  0  0  0  0  0
    4.0821   -0.4523   -0.5156 H   0  0  0  0  0  0  0  0  0  0  0  0
    2.7897   -1.5045   -0.0140 H   0  0  0  0  0  0  0  0  0  0  0  0
    6.5871   -1.6815    1.9931 H   0  0  0  0  0  0  0  0  0  0  0  0
    6.1406   -0.1356    1.3185 H   0  0  0  0  0  0  0  0  0  0  0  0
    6.4984   -1.4370    0.2446 H   0  0  0  0  0  0  0  0  0  0  0  0
    4.9232   -3.2059    2.6754 H   0  0  0  0  0  0  0  0  0  0  0  0
    2.1385   -2.9673    1.5259 H   0  0  0  0  0  0  0  0  0  0  0  0
    2.6119   -4.2351    2.6173 H   0  0  0  0  0  0  0  0  0  0  0  0
    1.4490   -2.3067    3.6814 H   0  0  0  0  0  0  0  0  0  0  0  0
    2.9774   -2.7301    4.4298 H   0  0  0  0  0  0  0  0  0  0  0  0
    5.1165   -0.9756    4.0446 H   0  0  0  0  0  0  0  0  0  0  0  0
    4.2593    0.9311    5.3176 H   0  0  0  0  0  0  0  0  0  0  0  0
    3.9220    1.7847    3.7917 H   0  0  0  0  0  0  0  0  0  0  0  0
    1.6846   -1.2652    5.6859 H   0  0  0  0  0  0  0  0  0  0  0  0
    2.5454    0.0441    6.3903 H   0  0  0  0  0  0  0  0  0  0  0  0
   -0.2983    0.0184    5.4806 H   0  0  0  0  0  0  0  0  0  0  0  0
    0.3209    0.3624    7.0713 H   0  0  0  0  0  0  0  0  0  0  0  0
    1.5313    3.8408    6.3944 H   0  0  0  0  0  0  0  0  0  0  0  0
    2.6115    2.4798    6.1368 H   0  0  0  0  0  0  0  0  0  0  0  0
    1.5374    2.5045    7.5311 H   0  0  0  0  0  0  0  0  0  0  0  0
   -1.2493    2.2210    6.9970 H   0  0  0  0  0  0  0  0  0  0  0  0
   -0.7824    3.7142    6.1827 H   0  0  0  0  0  0  0  0  0  0  0  0
   -2.3479    1.4188    5.0343 H   0  0  0  0  0  0  0  0  0  0  0  0
   -2.5354    3.1602    4.7416 H   0  0  0  0  0  0  0  0  0  0  0  0
    2.2269    3.7029    3.9768 H   0  0  0  0  0  0  0  0  0  0  0  0
    0.6201    4.3981    4.1351 H   0  0  0  0  0  0  0  0  0  0  0  0
    1.1289    3.7124    2.6216 H   0  0  0  0  0  0  0  0  0  0  0  0
    1.8125    1.4069    2.5260 H   0  0  0  0  0  0  0  0  0  0  0  0
    0.5983    0.2885    3.0220 H   0  0  0  0  0  0  0  0  0  0  0  0
    3.6607    0.3434    1.5983 H   0  0  0  0  0  0  0  0  0  0  0  0
  1  2  1  0
  1 29  1  0
  1 30  1  0
  1 31  1  0
  2 10  1  0
  2  3  1  0
  2  4  1  0
  3 32  1  0
  3 33  1  0
  3 34  1  0
  4  5  1  0
  4  6  1  0
  4 35  1  6
  5 36  1  0
  6  7  1  0
  6 37  1  0
  6 38  1  0
  7  8  1  0
  7 39  1  0
  7 40  1  0
  8 28  1  0
  8  9  1  6
  8 10  1  0
  9 41  1  0
  9 42  1  0
  9 43  1  0
 10 11  1  0
 10 44  1  1
 11 12  1  0
 11 45  1  0
 11 46  1  0
 13 12  1  1
 12 47  1  0
 12 48  1  0
 13 16  1  0
 13 28  1  0
 13 14  1  0
 14 15  1  0
 14 28  1  0
 14 49  1  1
 16 15  1  1
 15 50  1  0
 15 51  1  0
 16 27  1  0
 16 17  1  0
 17 18  1  0
 17 52  1  0
 17 53  1  0
 18 19  1  0
 18 54  1  0
 18 55  1  0
 19 25  1  0
 19 20  1  1
 19 21  1  0
 20 56  1  0
 20 57  1  0
 20 58  1  0
 21 22  1  0
 21 59  1  0
 21 60  1  0
 22 23  1  0
 22 61  1  0
 22 62  1  0
 23 24  2  0
 23 25  1  0
 25 26  1  1
 25 27  1  0
 26 63  1  0
 26 64  1  0
 26 65  1  0
 27 66  1  0
 27 67  1  0
 28 68  1  6
M  END
>  <i_m_ct_stereo_status>  (308) 
1

>  <s_m_source_file>  (308) 
/var/tmp/pbs.5076255.sched01/tmpn8rdt6mw/90ee43ygr2.sdf

>  <i_m_source_file_index>  (308) 
40

>  <i_lp_mmshare_version>  (308) 
48012

>  <i_f3d_flags>  (308) 
0

>  <s_epik_input>  (308) 
W0NIMl0xW0NIMl1bQ0BIXShbT0hdKUMoW0NIM10pKFtDSDNdKVtDQEhdKFtDSDJdW0NIMl0yKVtDQF0xKFtDSDNdKVtDQEBIXTNbQ0BIXTRbQ0gyXVtDQEBdNShbQ0BAXTIzNClbQ0gyXVtDSDJdW0NAQF02KFtDSDNdKVtDQEBdKFtDSDNdKShbQ0gyXTUpQyg9TylbQ0gyXVtDSDJdNg==

>  <s_epik_cmdline>  (308) 
J2VwaWtfcHl0aG9uJywgJy1waHQnLCAnMi4wJywgJy1waCcsICc3LjAnLCAnLXRuJywgJzgnLCAnLW1hJywgJzIwMCcsICctaW1hZScsICc8aW5maWxlLm1hZT4nLCAnLW9tYWUnLCAnPG91dGZpbGUubWFlPic=

>  <r_lp_tautomer_probability>  (308) 
1

>  <r_epik_Ionization_Penalty>  (308) 
3.16692e-06

>  <r_epik_Ionization_Penalty_Charging>  (308) 
0

>  <r_epik_Ionization_Penalty_Neutral>  (308) 
3.16692e-06

>  <r_epik_State_Penalty>  (308) 
-0

>  <r_epik_Charging_Adjusted_Penalty>  (308) 
0

>  <i_epik_Tot_Q>  (308) 
0

>  <i_epik_Tot_abs_Q>  (308) 
0

>  <s_lp_Force_Field>  (308) 
OPLS3e

>  <r_lp_Energy>  (308) 
67.7519

>  <b_lp_Chiralities_Consistent>  (308) 
1

>  <s_lp_Variant>  (308) 
81:0-1

>  <s_i_glide_gridfile>  (308) 
pfpi4k_grid

>  <i_i_glide_lignum>  (308) 
40

>  <i_i_glide_rotatable_bonds>  (308) 
1

>  <r_i_docking_score>  (308) 
-3.38114

>  <r_i_glide_ligand_efficiency>  (308) 
-0.120755

>  <r_i_glide_ligand_efficiency_sa>  (308) 
-0.366684

>  <r_i_glide_ligand_efficiency_ln>  (308) 
-0.780467

>  <r_i_glide_gscore>  (308) 
-3.38114

>  <r_i_glide_lipo>  (308) 
-0.459719

>  <r_i_glide_hbond>  (308) 
-0.32

>  <r_i_glide_metal>  (308) 
-0

>  <r_i_glide_rewards>  (308) 
-0.786855

>  <r_i_glide_evdw>  (308) 
-26.5193

>  <r_i_glide_ecoul>  (308) 
-3.01077

>  <r_i_glide_erotb>  (308) 
0

>  <r_i_glide_esite>  (308) 
-0.0369906

>  <r_i_glide_emodel>  (308) 
-36.7793

>  <r_i_glide_energy>  (308) 
-29.5301

>  <r_i_glide_einternal>  (308) 
1.37246

>  <r_i_glide_intrahb_reward>  (308) 
-0

>  <i_i_glide_confnum>  (308) 
2

>  <i_i_glide_posenum>  (308) 
4

>  <r_i_glide_eff_state_penalty>  (308) 
0

>  <ligand_id>  (308) 
81

>  <original_smiles>  (308) 
CC1(C)C(O)CCC2(C)C1CCC13C(CC14CCC1(C)CCC(=O)C1(C)C4)C23

>  <smiles>  (308) 
[H]OC1([H])C([H])([H])C([H])([H])C2(C([H])([H])[H])C([H])(C([H])([H])C([H])([H])C34C([H])(C([H])([H])C35C([H])([H])C([H])([H])C3(C([H])([H])[H])C([H])([H])C([H])([H])C(=O)C3(C([H])([H])[H])C5([H])[H])C24[H])C1(C([H])([H])[H])C([H])([H])[H]

$$$$
81:0:2
     RDKit          3D

 68 73  0  0  1  0  0  0  0  0999 V2000
   -1.4613    2.1414    4.5599 C   0  0  0  0  0  0  0  0  0  0  0  0
   -0.6231    1.0754    5.3202 C   0  0  0  0  0  0  0  0  0  0  0  0
   -0.2974    1.7849    6.6671 C   0  0  0  0  0  0  0  0  0  0  0  0
   -1.4943   -0.1736    5.6221 C   0  0  1  0  0  0  0  0  0  0  0  0
   -2.1846   -0.6634    4.4944 O   0  0  0  0  0  0  0  0  0  0  0  0
   -0.7009   -1.3522    6.2141 C   0  0  0  0  0  0  0  0  0  0  0  0
    0.5607   -1.6926    5.4213 C   0  0  0  0  0  0  0  0  0  0  0  0
    1.4982   -0.4878    5.2053 C   0  0  2  0  0  0  0  0  0  0  0  0
    2.2065   -0.0967    6.5278 C   0  0  0  0  0  0  0  0  0  0  0  0
    0.7045    0.6944    4.5516 C   0  0  1  0  0  0  0  0  0  0  0  0
    0.4921    0.4218    3.0320 C   0  0  0  0  0  0  0  0  0  0  0  0
    1.8206    0.3380    2.2310 C   0  0  0  0  0  0  0  0  0  0  0  0
    2.8917   -0.5382    2.8874 C   0  0  2  0  0  0  0  0  0  0  0  0
    3.8207   -0.1343    4.0026 C   0  0  2  0  0  0  0  0  0  0  0  0
    4.9717   -0.7249    3.2639 C   0  0  0  0  0  0  0  0  0  0  0  0
    4.0738   -1.0648    2.0424 C   0  0  2  0  0  0  0  0  0  0  0  0
    4.4076   -0.2710    0.7701 C   0  0  0  0  0  0  0  0  0  0  0  0
    4.7862   -1.1264   -0.4522 C   0  0  0  0  0  0  0  0  0  0  0  0
    5.6678   -2.3400   -0.0871 C   0  0  2  0  0  0  0  0  0  0  0  0
    7.0207   -1.8681    0.4835 C   0  0  0  0  0  0  0  0  0  0  0  0
    5.9373   -3.1669   -1.3657 C   0  0  0  0  0  0  0  0  0  0  0  0
    4.7279   -4.0848   -1.5456 C   0  0  0  0  0  0  0  0  0  0  0  0
    4.1726   -4.1976   -0.1472 C   0  0  0  0  0  0  0  0  0  0  0  0
    3.2586   -4.9776    0.1552 O   0  0  0  0  0  0  0  0  0  0  0  0
    4.8639   -3.2895    0.8631 C   0  0  1  0  0  0  0  0  0  0  0  0
    5.7624   -4.1976    1.7305 C   0  0  0  0  0  0  0  0  0  0  0  0
    3.7695   -2.5347    1.6860 C   0  0  0  0  0  0  0  0  0  0  0  0
    2.6135   -0.9667    4.3295 C   0  0  1  0  0  0  0  0  0  0  0  0
   -2.2882    2.5104    5.1627 H   0  0  0  0  0  0  0  0  0  0  0  0
   -1.9098    1.7495    3.6450 H   0  0  0  0  0  0  0  0  0  0  0  0
   -0.8438    2.9948    4.2795 H   0  0  0  0  0  0  0  0  0  0  0  0
   -0.0422    1.0817    7.4577 H   0  0  0  0  0  0  0  0  0  0  0  0
   -1.1424    2.3407    7.0598 H   0  0  0  0  0  0  0  0  0  0  0  0
    0.5359    2.4791    6.5721 H   0  0  0  0  0  0  0  0  0  0  0  0
   -2.2702    0.1221    6.3289 H   0  0  0  0  0  0  0  0  0  0  0  0
   -2.6942    0.0302    4.0937 H   0  0  0  0  0  0  0  0  0  0  0  0
   -0.4119   -1.1255    7.2362 H   0  0  0  0  0  0  0  0  0  0  0  0
   -1.3298   -2.2377    6.2765 H   0  0  0  0  0  0  0  0  0  0  0  0
    1.1017   -2.4867    5.9311 H   0  0  0  0  0  0  0  0  0  0  0  0
    0.2672   -2.1079    4.4559 H   0  0  0  0  0  0  0  0  0  0  0  0
    2.5234    0.9463    6.5167 H   0  0  0  0  0  0  0  0  0  0  0  0
    3.0949   -0.6920    6.6952 H   0  0  0  0  0  0  0  0  0  0  0  0
    1.5917   -0.2513    7.4153 H   0  0  0  0  0  0  0  0  0  0  0  0
    1.3371    1.5881    4.5680 H   0  0  0  0  0  0  0  0  0  0  0  0
   -0.0282   -0.5306    2.9040 H   0  0  0  0  0  0  0  0  0  0  0  0
   -0.1275    1.1646    2.5506 H   0  0  0  0  0  0  0  0  0  0  0  0
    1.5777   -0.0878    1.2609 H   0  0  0  0  0  0  0  0  0  0  0  0
    2.1990    1.3455    2.0585 H   0  0  0  0  0  0  0  0  0  0  0  0
    3.8687    0.9303    4.2438 H   0  0  0  0  0  0  0  0  0  0  0  0
    5.7793   -0.0325    3.0831 H   0  0  0  0  0  0  0  0  0  0  0  0
    5.3591   -1.6309    3.7445 H   0  0  0  0  0  0  0  0  0  0  0  0
    3.6445    0.4441    0.4842 H   0  0  0  0  0  0  0  0  0  0  0  0
    5.2895    0.3555    0.9645 H   0  0  0  0  0  0  0  0  0  0  0  0
    3.8499   -1.4689   -0.8981 H   0  0  0  0  0  0  0  0  0  0  0  0
    5.2665   -0.5110   -1.2110 H   0  0  0  0  0  0  0  0  0  0  0  0
    7.7357   -2.6887    0.5952 H   0  0  0  0  0  0  0  0  0  0  0  0
    6.9139   -1.4023    1.4609 H   0  0  0  0  0  0  0  0  0  0  0  0
    7.4818   -1.1334   -0.1688 H   0  0  0  0  0  0  0  0  0  0  0  0
    6.1054   -2.5494   -2.2472 H   0  0  0  0  0  0  0  0  0  0  0  0
    6.8169   -3.8004   -1.2294 H   0  0  0  0  0  0  0  0  0  0  0  0
    3.9764   -3.6303   -2.1925 H   0  0  0  0  0  0  0  0  0  0  0  0
    5.0124   -5.0532   -1.9570 H   0  0  0  0  0  0  0  0  0  0  0  0
    6.3239   -3.6356    2.4652 H   0  0  0  0  0  0  0  0  0  0  0  0
    6.4724   -4.7615    1.1238 H   0  0  0  0  0  0  0  0  0  0  0  0
    5.1792   -4.9415    2.2759 H   0  0  0  0  0  0  0  0  0  0  0  0
    3.6580   -3.0868    2.6302 H   0  0  0  0  0  0  0  0  0  0  0  0
    2.8005   -2.6179    1.2191 H   0  0  0  0  0  0  0  0  0  0  0  0
    2.8706   -2.0138    4.5352 H   0  0  0  0  0  0  0  0  0  0  0  0
  1  2  1  0
  1 29  1  0
  1 30  1  0
  1 31  1  0
  2 10  1  0
  2  3  1  0
  2  4  1  0
  3 32  1  0
  3 33  1  0
  3 34  1  0
  4  5  1  0
  4  6  1  0
  4 35  1  1
  5 36  1  0
  6  7  1  0
  6 37  1  0
  6 38  1  0
  7  8  1  0
  7 39  1  0
  7 40  1  0
  8 28  1  0
  8  9  1  1
  8 10  1  0
  9 41  1  0
  9 42  1  0
  9 43  1  0
 10 11  1  0
 10 44  1  6
 11 12  1  0
 11 45  1  0
 11 46  1  0
 13 12  1  6
 12 47  1  0
 12 48  1  0
 13 16  1  0
 13 28  1  0
 13 14  1  0
 14 15  1  0
 14 28  1  0
 14 49  1  1
 16 15  1  1
 15 50  1  0
 15 51  1  0
 16 27  1  0
 16 17  1  0
 17 18  1  0
 17 52  1  0
 17 53  1  0
 18 19  1  0
 18 54  1  0
 18 55  1  0
 19 25  1  0
 19 20  1  1
 19 21  1  0
 20 56  1  0
 20 57  1  0
 20 58  1  0
 21 22  1  0
 21 59  1  0
 21 60  1  0
 22 23  1  0
 22 61  1  0
 22 62  1  0
 23 24  2  0
 23 25  1  0
 25 26  1  1
 25 27  1  0
 26 63  1  0
 26 64  1  0
 26 65  1  0
 27 66  1  0
 27 67  1  0
 28 68  1  6
M  END
>  <i_m_ct_stereo_status>  (309) 
1

>  <s_m_source_file>  (309) 
/var/tmp/pbs.5076255.sched01/tmpn8rdt6mw/90ee43ygr2.sdf

>  <i_m_source_file_index>  (309) 
40

>  <i_lp_mmshare_version>  (309) 
48012

>  <i_f3d_flags>  (309) 
0

>  <s_epik_input>  (309) 
W0NIMl0xW0NIMl1bQ0BIXShbT0hdKUMoW0NIM10pKFtDSDNdKVtDQEhdKFtDSDJdW0NIMl0yKVtDQF0xKFtDSDNdKVtDQEBIXTNbQ0BIXTRbQ0gyXVtDQEBdNShbQ0BAXTIzNClbQ0gyXVtDSDJdW0NAQF02KFtDSDNdKVtDQEBdKFtDSDNdKShbQ0gyXTUpQyg9TylbQ0gyXVtDSDJdNg==

>  <s_epik_cmdline>  (309) 
J2VwaWtfcHl0aG9uJywgJy1waHQnLCAnMi4wJywgJy1waCcsICc3LjAnLCAnLXRuJywgJzgnLCAnLW1hJywgJzIwMCcsICctaW1hZScsICc8aW5maWxlLm1hZT4nLCAnLW9tYWUnLCAnPG91dGZpbGUubWFlPic=

>  <r_lp_tautomer_probability>  (309) 
1

>  <r_epik_Ionization_Penalty>  (309) 
3.16692e-06

>  <r_epik_Ionization_Penalty_Charging>  (309) 
0

>  <r_epik_Ionization_Penalty_Neutral>  (309) 
3.16692e-06

>  <r_epik_State_Penalty>  (309) 
-0

>  <r_epik_Charging_Adjusted_Penalty>  (309) 
0

>  <i_epik_Tot_Q>  (309) 
0

>  <i_epik_Tot_abs_Q>  (309) 
0

>  <s_lp_Force_Field>  (309) 
OPLS3e

>  <r_lp_Energy>  (309) 
67.7519

>  <b_lp_Chiralities_Consistent>  (309) 
1

>  <s_lp_Variant>  (309) 
81:0-1

>  <s_i_glide_gridfile>  (309) 
pfpi4k_grid

>  <i_i_glide_lignum>  (309) 
40

>  <i_i_glide_rotatable_bonds>  (309) 
1

>  <r_i_docking_score>  (309) 
-3.17879

>  <r_i_glide_ligand_efficiency>  (309) 
-0.113528

>  <r_i_glide_ligand_efficiency_sa>  (309) 
-0.344739

>  <r_i_glide_ligand_efficiency_ln>  (309) 
-0.733759

>  <r_i_glide_gscore>  (309) 
-3.17879

>  <r_i_glide_lipo>  (309) 
-0.437176

>  <r_i_glide_hbond>  (309) 
-0.254051

>  <r_i_glide_metal>  (309) 
-0

>  <r_i_glide_rewards>  (309) 
-0.786855

>  <r_i_glide_evdw>  (309) 
-28.8651

>  <r_i_glide_ecoul>  (309) 
-1.66659

>  <r_i_glide_erotb>  (309) 
0

>  <r_i_glide_esite>  (309) 
-0.0074695

>  <r_i_glide_emodel>  (309) 
-37.7959

>  <r_i_glide_energy>  (309) 
-30.5317

>  <r_i_glide_einternal>  (309) 
0.340199

>  <r_i_glide_intrahb_reward>  (309) 
-0

>  <i_i_glide_confnum>  (309) 
1

>  <i_i_glide_posenum>  (309) 
29

>  <r_i_glide_eff_state_penalty>  (309) 
0

>  <ligand_id>  (309) 
81

>  <original_smiles>  (309) 
CC1(C)C(O)CCC2(C)C1CCC13C(CC14CCC1(C)CCC(=O)C1(C)C4)C23

>  <smiles>  (309) 
[H]OC1([H])C([H])([H])C([H])([H])C2(C([H])([H])[H])C([H])(C([H])([H])C([H])([H])C34C([H])(C([H])([H])C35C([H])([H])C([H])([H])C3(C([H])([H])[H])C([H])([H])C([H])([H])C(=O)C3(C([H])([H])[H])C5([H])[H])C24[H])C1(C([H])([H])[H])C([H])([H])[H]

$$$$
82:0:0
     RDKit          3D

 49 52  0  0  1  0  0  0  0  0999 V2000
   -6.3994  -13.3645   -7.8910 C   0  0  0  0  0  0  0  0  0  0  0  0
   -6.3109  -11.8356   -7.7943 C   0  0  0  0  0  0  0  0  0  0  0  0
   -4.8257  -11.4353   -7.8643 C   0  0  0  0  0  0  0  0  0  0  0  0
   -7.1047  -11.2094   -8.9670 C   0  0  0  0  0  0  0  0  0  0  0  0
   -7.3390   -9.7139   -8.7513 C   0  0  0  0  0  0  0  0  0  0  0  0
   -7.0236   -8.8546   -9.5517 O   0  0  0  0  0  0  0  0  0  0  0  0
   -7.9724   -9.3219   -7.4590 C   0  0  1  0  0  0  0  0  0  0  0  0
   -7.0271   -9.8518   -6.3833 C   0  0  0  0  0  0  0  0  0  0  0  0
   -6.3247   -9.0599   -5.5485 C   0  0  0  0  0  0  0  0  0  0  0  0
   -6.4143   -7.6183   -5.6746 C   0  0  0  0  0  0  0  0  0  0  0  0
   -6.0077   -6.7207   -4.7641 C   0  0  0  0  0  0  0  0  0  0  0  0
   -6.4018   -5.2961   -5.0842 C   0  0  1  0  0  0  0  0  0  0  0  0
   -7.1014   -4.5436   -3.9500 C   0  0  0  0  0  0  0  0  0  0  0  0
   -5.2934   -4.5084   -5.4657 O   0  0  0  0  0  0  0  0  0  0  0  0
   -7.3099   -5.5935   -6.2833 C   0  0  0  0  0  0  0  0  0  0  0  0
   -8.1183   -4.7853   -6.7360 O   0  0  0  0  0  0  0  0  0  0  0  0
   -7.0236   -6.9843   -6.8889 C   0  0  2  0  0  0  0  0  0  0  0  0
   -8.2152   -7.8088   -7.3764 C   0  0  1  0  0  0  0  0  0  0  0  0
   -9.1383   -7.1927   -8.4198 C   0  0  0  0  0  0  0  0  0  0  0  0
  -10.5297   -7.4210   -8.3720 C   0  0  0  0  0  0  0  0  0  0  0  0
  -11.3714   -6.8799   -9.3701 C   0  0  0  0  0  0  0  0  0  0  0  0
  -10.8124   -6.1162  -10.4199 C   0  0  0  0  0  0  0  0  0  0  0  0
   -9.4224   -5.8759  -10.4579 C   0  0  0  0  0  0  0  0  0  0  0  0
   -8.5945   -6.3967   -9.4458 C   0  0  0  0  0  0  0  0  0  0  0  0
   -6.8942  -11.3694   -6.4393 C   0  0  0  0  0  0  0  0  0  0  0  0
   -5.9957  -13.7296   -8.8358 H   0  0  0  0  0  0  0  0  0  0  0  0
   -7.4357  -13.6912   -7.8343 H   0  0  0  0  0  0  0  0  0  0  0  0
   -5.8539  -13.8488   -7.0796 H   0  0  0  0  0  0  0  0  0  0  0  0
   -4.7043  -10.3492   -7.8519 H   0  0  0  0  0  0  0  0  0  0  0  0
   -4.3738  -11.8253   -8.7740 H   0  0  0  0  0  0  0  0  0  0  0  0
   -4.2421  -11.8321   -7.0308 H   0  0  0  0  0  0  0  0  0  0  0  0
   -6.5968  -11.4061   -9.9110 H   0  0  0  0  0  0  0  0  0  0  0  0
   -8.0835  -11.6799   -9.0405 H   0  0  0  0  0  0  0  0  0  0  0  0
   -8.9273   -9.8472   -7.3980 H   0  0  0  0  0  0  0  0  0  0  0  0
   -5.6487   -9.4810   -4.8054 H   0  0  0  0  0  0  0  0  0  0  0  0
   -5.5424   -6.9775   -3.8270 H   0  0  0  0  0  0  0  0  0  0  0  0
   -8.0150   -5.0332   -3.6464 H   0  0  0  0  0  0  0  0  0  0  0  0
   -7.3707   -3.5574   -4.3199 H   0  0  0  0  0  0  0  0  0  0  0  0
   -6.4577   -4.4069   -3.0810 H   0  0  0  0  0  0  0  0  0  0  0  0
   -4.8902   -4.1170   -4.7103 H   0  0  0  0  0  0  0  0  0  0  0  0
   -6.2500   -6.9207   -7.6458 H   0  0  0  0  0  0  0  0  0  0  0  0
   -8.8256   -7.8865   -6.5409 H   0  0  0  0  0  0  0  0  0  0  0  0
  -10.9757   -8.0068   -7.5779 H   0  0  0  0  0  0  0  0  0  0  0  0
  -12.4449   -7.0482   -9.3282 H   0  0  0  0  0  0  0  0  0  0  0  0
  -11.4556   -5.7026  -11.1899 H   0  0  0  0  0  0  0  0  0  0  0  0
   -8.9694   -5.2943  -11.2555 H   0  0  0  0  0  0  0  0  0  0  0  0
   -7.5308   -6.2169   -9.4714 H   0  0  0  0  0  0  0  0  0  0  0  0
   -7.8913  -11.7993   -6.3016 H   0  0  0  0  0  0  0  0  0  0  0  0
   -6.2581  -11.7300   -5.6340 H   0  0  0  0  0  0  0  0  0  0  0  0
  1  2  1  0
  1 26  1  0
  1 27  1  0
  1 28  1  0
  2 25  1  0
  2  3  1  0
  2  4  1  0
  3 29  1  0
  3 30  1  0
  3 31  1  0
  4  5  1  0
  4 32  1  0
  4 33  1  0
  5  6  2  0
  5  7  1  0
  7 18  1  0
  7  8  1  0
  7 34  1  1
  8  9  2  0
  8 25  1  0
  9 10  1  0
  9 35  1  0
 10 17  1  0
 10 11  2  0
 11 12  1  0
 11 36  1  0
 12 13  1  0
 12 14  1  6
 12 15  1  0
 13 37  1  0
 13 38  1  0
 13 39  1  0
 14 40  1  0
 15 16  2  0
 15 17  1  0
 17 18  1  0
 17 41  1  6
 18 19  1  0
 18 42  1  1
 19 24  1  0
 19 20  2  0
 20 21  1  0
 20 43  1  0
 21 22  2  0
 21 44  1  0
 22 23  1  0
 22 45  1  0
 23 24  2  0
 23 46  1  0
 24 47  1  0
 25 48  1  0
 25 49  1  0
M  END
>  <i_m_ct_stereo_status>  (310) 
1

>  <s_m_source_file>  (310) 
/var/tmp/pbs.5076255.sched01/tmpn8rdt6mw/90ee43ygr2.sdf

>  <i_m_source_file_index>  (310) 
41

>  <i_lp_mmshare_version>  (310) 
48012

>  <i_f3d_flags>  (310) 
0

>  <s_epik_input>  (310) 
Tz1DMVtDSDJdQyhbQ0gzXSkoW0NIM10pW0NIMl1DKFtDQEhdMTIpPVtDSF1DPTNbQ0BIXShDKD1PKVtDQF0oW0NIXTMpKFtDSDNdKVtPSF0pW0NASF0yYzRbY0hdW2NIXVtjSF1bY0hdW2NIXTQ=

>  <s_epik_cmdline>  (310) 
J2VwaWtfcHl0aG9uJywgJy1waHQnLCAnMi4wJywgJy1waCcsICc3LjAnLCAnLXRuJywgJzgnLCAnLW1hJywgJzIwMCcsICctaW1hZScsICc8aW5maWxlLm1hZT4nLCAnLW9tYWUnLCAnPG91dGZpbGUubWFlPic=

>  <r_lp_tautomer_probability>  (310) 
1

>  <r_epik_Ionization_Penalty>  (310) 
6.37155e-08

>  <r_epik_Ionization_Penalty_Charging>  (310) 
0

>  <r_epik_Ionization_Penalty_Neutral>  (310) 
6.37155e-08

>  <r_epik_State_Penalty>  (310) 
-0

>  <r_epik_Charging_Adjusted_Penalty>  (310) 
0

>  <i_epik_Tot_Q>  (310) 
0

>  <i_epik_Tot_abs_Q>  (310) 
0

>  <s_lp_Force_Field>  (310) 
OPLS3e

>  <r_lp_Energy>  (310) 
28.5122

>  <b_lp_Chiralities_Consistent>  (310) 
1

>  <s_lp_Variant>  (310) 
82:0-1

>  <s_i_glide_gridfile>  (310) 
pfpi4k_grid

>  <i_i_glide_lignum>  (310) 
41

>  <i_i_glide_rotatable_bonds>  (310) 
2

>  <r_i_docking_score>  (310) 
-5.77271

>  <r_i_glide_ligand_efficiency>  (310) 
-0.230908

>  <r_i_glide_ligand_efficiency_sa>  (310) 
-0.67518

>  <r_i_glide_ligand_efficiency_ln>  (310) 
-1.3683

>  <r_i_glide_gscore>  (310) 
-5.77271

>  <r_i_glide_lipo>  (310) 
-2.66251

>  <r_i_glide_hbond>  (310) 
0

>  <r_i_glide_metal>  (310) 
-0

>  <r_i_glide_rewards>  (310) 
-1.9108

>  <r_i_glide_evdw>  (310) 
-20.8494

>  <r_i_glide_ecoul>  (310) 
-2.15862

>  <r_i_glide_erotb>  (310) 
0.166867

>  <r_i_glide_esite>  (310) 
0

>  <r_i_glide_emodel>  (310) 
-24.7718

>  <r_i_glide_energy>  (310) 
-23.008

>  <r_i_glide_einternal>  (310) 
0.480602

>  <r_i_glide_intrahb_reward>  (310) 
-0

>  <i_i_glide_confnum>  (310) 
1

>  <i_i_glide_posenum>  (310) 
1

>  <r_i_glide_eff_state_penalty>  (310) 
0

>  <ligand_id>  (310) 
82

>  <original_smiles>  (310) 
CC1(C)CC(=O)C2C(=CC3=CC(C)(O)C(=O)C3C2c2ccccc2)C1

>  <smiles>  (310) 
[H]OC1(C([H])([H])[H])C(=O)C2([H])C(=C1[H])C([H])=C1C([H])([H])C(C([H])([H])[H])(C([H])([H])[H])C([H])([H])C(=O)C1([H])C2([H])c1c([H])c([H])c([H])c([H])c1[H]

$$$$
83:0:0
     RDKit          3D

 18 19  0  0  1  0  0  0  0  0999 V2000
    3.5903   -0.1809   -4.6419 C   0  0  0  0  0  0  0  0  0  0  0  0
    3.5085   -1.1123   -3.4495 C   0  0  0  0  0  0  0  0  0  0  0  0
    2.6247   -2.2729   -3.4573 C   0  0  0  0  0  0  0  0  0  0  0  0
    2.5609   -3.0697   -2.3783 C   0  0  0  0  0  0  0  0  0  0  0  0
    3.3576   -2.7891   -1.2690 N   0  0  0  0  0  0  0  0  0  0  0  0
    3.4195   -3.4501   -0.1200 C   0  0  0  0  0  0  0  0  0  0  0  0
    2.7959   -4.4521    0.2283 O   0  0  0  0  0  0  0  0  0  0  0  0
    4.3228   -2.7632    0.5835 N   0  0  0  0  0  0  0  0  0  0  0  0
    4.8271   -1.6735   -0.0523 N   0  0  0  0  0  0  0  0  0  0  0  0
    4.2156   -1.7076   -1.1885 C   0  0  0  0  0  0  0  0  0  0  0  0
    4.2653   -0.8509   -2.3546 C   0  0  0  0  0  0  0  0  0  0  0  0
    4.6218   -2.9838    1.5219 H   0  0  0  0  0  0  0  0  0  0  0  0
    2.9373   -0.4995   -5.4514 H   0  0  0  0  0  0  0  0  0  0  0  0
    4.6109   -0.1558   -5.0223 H   0  0  0  0  0  0  0  0  0  0  0  0
    3.3023    0.8332   -4.3544 H   0  0  0  0  0  0  0  0  0  0  0  0
    2.0008   -2.4842   -4.3124 H   0  0  0  0  0  0  0  0  0  0  0  0
    1.9227   -3.9380   -2.2988 H   0  0  0  0  0  0  0  0  0  0  0  0
    4.9006    0.0242   -2.3685 H   0  0  0  0  0  0  0  0  0  0  0  0
  1  2  1  0
  1 13  1  0
  1 14  1  0
  1 15  1  0
  2 11  2  0
  2  3  1  0
  3  4  2  0
  3 16  1  0
  4  5  1  0
  4 17  1  0
  5 10  1  0
  5  6  1  0
  6  7  2  0
  6  8  1  0
  8 12  1  0
  8  9  1  0
  9 10  2  0
 10 11  1  0
 11 18  1  0
M  END
>  <i_m_ct_stereo_status>  (311) 
1

>  <s_m_source_file>  (311) 
/var/tmp/pbs.5076255.sched01/tmpn8rdt6mw/90ee43ygr2.sdf

>  <i_m_source_file_index>  (311) 
42

>  <i_lp_mmshare_version>  (311) 
48012

>  <i_f3d_flags>  (311) 
0

>  <s_epik_input>  (311) 
W2NIXTFbY0hdYyhbQ0gzXSlbY0hdYyhuMTIpbltuSF1jMj1P

>  <s_epik_cmdline>  (311) 
J2VwaWtfcHl0aG9uJywgJy1waHQnLCAnMi4wJywgJy1waCcsICc3LjAnLCAnLXRuJywgJzgnLCAnLW1hJywgJzIwMCcsICctaW1hZScsICc8aW5maWxlLm1hZT4nLCAnLW9tYWUnLCAnPG91dGZpbGUubWFlPic=

>  <r_lp_tautomer_probability>  (311) 
1

>  <r_epik_Ionization_Penalty>  (311) 
8.77619e-06

>  <r_epik_Ionization_Penalty_Charging>  (311) 
8.72366e-06

>  <r_epik_Ionization_Penalty_Neutral>  (311) 
5.25282e-08

>  <r_epik_State_Penalty>  (311) 
-0

>  <r_epik_Charging_Adjusted_Penalty>  (311) 
8.72366e-06

>  <i_epik_Tot_Q>  (311) 
0

>  <i_epik_Tot_abs_Q>  (311) 
0

>  <s_lp_Force_Field>  (311) 
OPLS3e

>  <r_lp_Energy>  (311) 
21.1511

>  <b_lp_Chiralities_Consistent>  (311) 
1

>  <s_lp_Variant>  (311) 
83:0-1

>  <s_i_glide_gridfile>  (311) 
pfpi4k_grid

>  <i_i_glide_lignum>  (311) 
42

>  <i_i_glide_rotatable_bonds>  (311) 
0

>  <r_i_docking_score>  (311) 
-4.28121

>  <r_i_glide_ligand_efficiency>  (311) 
-0.389201

>  <r_i_glide_ligand_efficiency_sa>  (311) 
-0.865574

>  <r_i_glide_ligand_efficiency_ln>  (311) 
-1.25996

>  <r_i_glide_gscore>  (311) 
-4.28121

>  <r_i_glide_lipo>  (311) 
-0.687482

>  <r_i_glide_hbond>  (311) 
0

>  <r_i_glide_metal>  (311) 
-0

>  <r_i_glide_rewards>  (311) 
-2.27253

>  <r_i_glide_evdw>  (311) 
-20.9198

>  <r_i_glide_ecoul>  (311) 
-1.41936

>  <r_i_glide_erotb>  (311) 
0

>  <r_i_glide_esite>  (311) 
-0.0623023

>  <r_i_glide_emodel>  (311) 
-28.4066

>  <r_i_glide_energy>  (311) 
-22.3391

>  <r_i_glide_einternal>  (311) 
0

>  <r_i_glide_intrahb_reward>  (311) 
-0

>  <i_i_glide_confnum>  (311) 
1

>  <i_i_glide_posenum>  (311) 
1

>  <r_i_glide_eff_state_penalty>  (311) 
0

>  <ligand_id>  (311) 
83

>  <original_smiles>  (311) 
Cc1ccn2c(=O)[nH]nc2c1

>  <smiles>  (311) 
[H]c1c(C([H])([H])[H])c([H])c2nn([H])c(=O)n2c1[H]

$$$$
83:0:1
     RDKit          3D

 18 19  0  0  1  0  0  0  0  0999 V2000
    3.5465   -1.4396   -3.6832 C   0  0  0  0  0  0  0  0  0  0  0  0
    3.9434   -2.3819   -2.5616 C   0  0  0  0  0  0  0  0  0  0  0  0
    5.3454   -2.6914   -2.2947 C   0  0  0  0  0  0  0  0  0  0  0  0
    5.6689   -3.5223   -1.2872 C   0  0  0  0  0  0  0  0  0  0  0  0
    4.6531   -4.0842   -0.5120 N   0  0  0  0  0  0  0  0  0  0  0  0
    4.7714   -4.9344    0.5014 C   0  0  0  0  0  0  0  0  0  0  0  0
    5.7958   -5.4091    0.9899 O   0  0  0  0  0  0  0  0  0  0  0  0
    3.5099   -5.1518    0.8765 N   0  0  0  0  0  0  0  0  0  0  0  0
    2.5810   -4.4850    0.1456 N   0  0  0  0  0  0  0  0  0  0  0  0
    3.3046   -3.8377   -0.7057 C   0  0  0  0  0  0  0  0  0  0  0  0
    2.9739   -2.9397   -1.7937 C   0  0  0  0  0  0  0  0  0  0  0  0
    3.2180   -5.7501    1.6346 H   0  0  0  0  0  0  0  0  0  0  0  0
    4.4134   -1.0620   -4.2228 H   0  0  0  0  0  0  0  0  0  0  0  0
    2.9978   -0.5832   -3.2842 H   0  0  0  0  0  0  0  0  0  0  0  0
    2.8981   -1.9534   -4.3953 H   0  0  0  0  0  0  0  0  0  0  0  0
    6.1218   -2.2634   -2.9049 H   0  0  0  0  0  0  0  0  0  0  0  0
    6.6761   -3.8119   -1.0260 H   0  0  0  0  0  0  0  0  0  0  0  0
    1.9415   -2.6904   -2.0067 H   0  0  0  0  0  0  0  0  0  0  0  0
  1  2  1  0
  1 13  1  0
  1 14  1  0
  1 15  1  0
  2 11  2  0
  2  3  1  0
  3  4  2  0
  3 16  1  0
  4  5  1  0
  4 17  1  0
  5 10  1  0
  5  6  1  0
  6  7  2  0
  6  8  1  0
  8 12  1  0
  8  9  1  0
  9 10  2  0
 10 11  1  0
 11 18  1  0
M  END
>  <i_m_ct_stereo_status>  (312) 
1

>  <s_m_source_file>  (312) 
/var/tmp/pbs.5076255.sched01/tmpn8rdt6mw/90ee43ygr2.sdf

>  <i_m_source_file_index>  (312) 
42

>  <i_lp_mmshare_version>  (312) 
48012

>  <i_f3d_flags>  (312) 
0

>  <s_epik_input>  (312) 
W2NIXTFbY0hdYyhbQ0gzXSlbY0hdYyhuMTIpbltuSF1jMj1P

>  <s_epik_cmdline>  (312) 
J2VwaWtfcHl0aG9uJywgJy1waHQnLCAnMi4wJywgJy1waCcsICc3LjAnLCAnLXRuJywgJzgnLCAnLW1hJywgJzIwMCcsICctaW1hZScsICc8aW5maWxlLm1hZT4nLCAnLW9tYWUnLCAnPG91dGZpbGUubWFlPic=

>  <r_lp_tautomer_probability>  (312) 
1

>  <r_epik_Ionization_Penalty>  (312) 
8.77619e-06

>  <r_epik_Ionization_Penalty_Charging>  (312) 
8.72366e-06

>  <r_epik_Ionization_Penalty_Neutral>  (312) 
5.25282e-08

>  <r_epik_State_Penalty>  (312) 
-0

>  <r_epik_Charging_Adjusted_Penalty>  (312) 
8.72366e-06

>  <i_epik_Tot_Q>  (312) 
0

>  <i_epik_Tot_abs_Q>  (312) 
0

>  <s_lp_Force_Field>  (312) 
OPLS3e

>  <r_lp_Energy>  (312) 
21.1511

>  <b_lp_Chiralities_Consistent>  (312) 
1

>  <s_lp_Variant>  (312) 
83:0-1

>  <s_i_glide_gridfile>  (312) 
pfpi4k_grid

>  <i_i_glide_lignum>  (312) 
42

>  <i_i_glide_rotatable_bonds>  (312) 
0

>  <r_i_docking_score>  (312) 
-3.82399

>  <r_i_glide_ligand_efficiency>  (312) 
-0.347636

>  <r_i_glide_ligand_efficiency_sa>  (312) 
-0.773135

>  <r_i_glide_ligand_efficiency_ln>  (312) 
-1.1254

>  <r_i_glide_gscore>  (312) 
-3.82399

>  <r_i_glide_lipo>  (312) 
-0.460842

>  <r_i_glide_hbond>  (312) 
0

>  <r_i_glide_metal>  (312) 
-0

>  <r_i_glide_rewards>  (312) 
-2.34862

>  <r_i_glide_evdw>  (312) 
-17.1262

>  <r_i_glide_ecoul>  (312) 
-0.967372

>  <r_i_glide_erotb>  (312) 
0

>  <r_i_glide_esite>  (312) 
-0.0131123

>  <r_i_glide_emodel>  (312) 
-23.5137

>  <r_i_glide_energy>  (312) 
-18.0935

>  <r_i_glide_einternal>  (312) 
0

>  <r_i_glide_intrahb_reward>  (312) 
-0

>  <i_i_glide_confnum>  (312) 
1

>  <i_i_glide_posenum>  (312) 
9

>  <r_i_glide_eff_state_penalty>  (312) 
0

>  <ligand_id>  (312) 
83

>  <original_smiles>  (312) 
Cc1ccn2c(=O)[nH]nc2c1

>  <smiles>  (312) 
[H]c1c(C([H])([H])[H])c([H])c2nn([H])c(=O)n2c1[H]

$$$$
83:0:2
     RDKit          3D

 18 19  0  0  1  0  0  0  0  0999 V2000
    3.4170   -1.6115   -4.1006 C   0  0  0  0  0  0  0  0  0  0  0  0
    3.6372   -1.9068   -2.6311 C   0  0  0  0  0  0  0  0  0  0  0  0
    4.5081   -1.0613   -1.8186 C   0  0  0  0  0  0  0  0  0  0  0  0
    4.6798   -1.3409   -0.5121 C   0  0  0  0  0  0  0  0  0  0  0  0
    4.0208   -2.4407    0.0439 N   0  0  0  0  0  0  0  0  0  0  0  0
    4.0605   -2.8703    1.3002 C   0  0  0  0  0  0  0  0  0  0  0  0
    4.6930   -2.4112    2.2508 O   0  0  0  0  0  0  0  0  0  0  0  0
    3.2545   -3.9336    1.2933 N   0  0  0  0  0  0  0  0  0  0  0  0
    2.6945   -4.2127    0.0877 N   0  0  0  0  0  0  0  0  0  0  0  0
    3.1789   -3.2824   -0.6661 C   0  0  0  0  0  0  0  0  0  0  0  0
    3.0074   -2.9703   -2.0698 C   0  0  0  0  0  0  0  0  0  0  0  0
    3.0588   -4.5248    2.0871 H   0  0  0  0  0  0  0  0  0  0  0  0
    3.9768   -0.7364   -4.4290 H   0  0  0  0  0  0  0  0  0  0  0  0
    2.3587   -1.4314   -4.3015 H   0  0  0  0  0  0  0  0  0  0  0  0
    3.7296   -2.4662   -4.7030 H   0  0  0  0  0  0  0  0  0  0  0  0
    4.9996   -0.2090   -2.2649 H   0  0  0  0  0  0  0  0  0  0  0  0
    5.2948   -0.7674    0.1648 H   0  0  0  0  0  0  0  0  0  0  0  0
    2.3620   -3.5785   -2.6914 H   0  0  0  0  0  0  0  0  0  0  0  0
  1  2  1  0
  1 13  1  0
  1 14  1  0
  1 15  1  0
  2 11  2  0
  2  3  1  0
  3  4  2  0
  3 16  1  0
  4  5  1  0
  4 17  1  0
  5 10  1  0
  5  6  1  0
  6  7  2  0
  6  8  1  0
  8 12  1  0
  8  9  1  0
  9 10  2  0
 10 11  1  0
 11 18  1  0
M  END
>  <i_m_ct_stereo_status>  (313) 
1

>  <s_m_source_file>  (313) 
/var/tmp/pbs.5076255.sched01/tmpn8rdt6mw/90ee43ygr2.sdf

>  <i_m_source_file_index>  (313) 
42

>  <i_lp_mmshare_version>  (313) 
48012

>  <i_f3d_flags>  (313) 
0

>  <s_epik_input>  (313) 
W2NIXTFbY0hdYyhbQ0gzXSlbY0hdYyhuMTIpbltuSF1jMj1P

>  <s_epik_cmdline>  (313) 
J2VwaWtfcHl0aG9uJywgJy1waHQnLCAnMi4wJywgJy1waCcsICc3LjAnLCAnLXRuJywgJzgnLCAnLW1hJywgJzIwMCcsICctaW1hZScsICc8aW5maWxlLm1hZT4nLCAnLW9tYWUnLCAnPG91dGZpbGUubWFlPic=

>  <r_lp_tautomer_probability>  (313) 
1

>  <r_epik_Ionization_Penalty>  (313) 
8.77619e-06

>  <r_epik_Ionization_Penalty_Charging>  (313) 
8.72366e-06

>  <r_epik_Ionization_Penalty_Neutral>  (313) 
5.25282e-08

>  <r_epik_State_Penalty>  (313) 
-0

>  <r_epik_Charging_Adjusted_Penalty>  (313) 
8.72366e-06

>  <i_epik_Tot_Q>  (313) 
0

>  <i_epik_Tot_abs_Q>  (313) 
0

>  <s_lp_Force_Field>  (313) 
OPLS3e

>  <r_lp_Energy>  (313) 
21.1511

>  <b_lp_Chiralities_Consistent>  (313) 
1

>  <s_lp_Variant>  (313) 
83:0-1

>  <s_i_glide_gridfile>  (313) 
pfpi4k_grid

>  <i_i_glide_lignum>  (313) 
42

>  <i_i_glide_rotatable_bonds>  (313) 
0

>  <r_i_docking_score>  (313) 
-3.37334

>  <r_i_glide_ligand_efficiency>  (313) 
-0.306668

>  <r_i_glide_ligand_efficiency_sa>  (313) 
-0.682023

>  <r_i_glide_ligand_efficiency_ln>  (313) 
-0.992775

>  <r_i_glide_gscore>  (313) 
-3.37334

>  <r_i_glide_lipo>  (313) 
-0.010663

>  <r_i_glide_hbond>  (313) 
0

>  <r_i_glide_metal>  (313) 
-0

>  <r_i_glide_rewards>  (313) 
-2.33029

>  <r_i_glide_evdw>  (313) 
-17.6573

>  <r_i_glide_ecoul>  (313) 
-0.893064

>  <r_i_glide_erotb>  (313) 
0

>  <r_i_glide_esite>  (313) 
-0.0155645

>  <r_i_glide_emodel>  (313) 
-23.3301

>  <r_i_glide_energy>  (313) 
-18.5503

>  <r_i_glide_einternal>  (313) 
0

>  <r_i_glide_intrahb_reward>  (313) 
-0

>  <i_i_glide_confnum>  (313) 
1

>  <i_i_glide_posenum>  (313) 
5

>  <r_i_glide_eff_state_penalty>  (313) 
0

>  <ligand_id>  (313) 
83

>  <original_smiles>  (313) 
Cc1ccn2c(=O)[nH]nc2c1

>  <smiles>  (313) 
[H]c1c(C([H])([H])[H])c([H])c2nn([H])c(=O)n2c1[H]

$$$$
84:0:0
     RDKit          3D

 21 23  0  0  1  0  0  0  0  0999 V2000
   -0.9836   -8.1541    2.3545 C   0  0  0  0  0  0  0  0  0  0  0  0
    0.3646   -7.6573    1.9652 C   0  0  0  0  0  0  0  0  0  0  0  0
    0.5330   -6.4553    1.3504 N   0  0  0  0  0  0  0  0  0  0  0  0
    1.8648   -6.4080    1.1822 C   0  0  0  0  0  0  0  0  0  0  0  0
    2.4431   -7.5633    1.6885 C   0  0  0  0  0  0  0  0  0  0  0  0
    3.8543   -7.6776    1.5839 C   0  0  0  0  0  0  0  0  0  0  0  0
    4.6563   -6.6637    0.9912 C   0  0  0  0  0  0  0  0  0  0  0  0
    4.0039   -5.5139    0.4957 C   0  0  0  0  0  0  0  0  0  0  0  0
    4.5428   -4.3552   -0.1355 C   0  0  0  0  0  0  0  0  0  0  0  0
    3.3868   -3.6203   -0.3705 C   0  0  0  0  0  0  0  0  0  0  0  0
    2.2239   -4.2394    0.0553 O   0  0  0  0  0  0  0  0  0  0  0  0
    2.6360   -5.4018    0.5906 C   0  0  0  0  0  0  0  0  0  0  0  0
    1.4819   -8.3956    2.2065 N   0  0  0  0  0  0  0  0  0  0  0  0
    1.5400   -9.3115    2.6405 H   0  0  0  0  0  0  0  0  0  0  0  0
   -1.7466   -7.4255    2.0822 H   0  0  0  0  0  0  0  0  0  0  0  0
   -1.0269   -8.3074    3.4339 H   0  0  0  0  0  0  0  0  0  0  0  0
   -1.2025   -9.0893    1.8376 H   0  0  0  0  0  0  0  0  0  0  0  0
    4.3358   -8.5643    1.9653 H   0  0  0  0  0  0  0  0  0  0  0  0
    5.7350   -6.7710    0.9249 H   0  0  0  0  0  0  0  0  0  0  0  0
    5.5865   -4.1523   -0.3536 H   0  0  0  0  0  0  0  0  0  0  0  0
    3.1749   -2.6620   -0.8242 H   0  0  0  0  0  0  0  0  0  0  0  0
  1  2  1  0
  1 15  1  0
  1 16  1  0
  1 17  1  0
  2 13  1  0
  2  3  2  0
  3  4  1  0
  4 12  1  0
  4  5  2  0
  5  6  1  0
  5 13  1  0
  6  7  2  0
  6 18  1  0
  7  8  1  0
  7 19  1  0
  8 12  2  0
  8  9  1  0
  9 10  2  0
  9 20  1  0
 10 11  1  0
 10 21  1  0
 11 12  1  0
 13 14  1  0
M  END
>  <i_m_ct_stereo_status>  (314) 
1

>  <s_m_source_file>  (314) 
/var/tmp/pbs.5076255.sched01/tmpn8rdt6mw/90ee43ygr2.sdf

>  <i_m_source_file_index>  (314) 
43

>  <i_lp_mmshare_version>  (314) 
48012

>  <i_f3d_flags>  (314) 
0

>  <s_epik_input>  (314) 
W0NIM11jKG4xKVtuSF1jKGMxMilbY0hdW2NIXWMzYzJvW2NIXVtjSF0z

>  <s_epik_cmdline>  (314) 
J2VwaWtfcHl0aG9uJywgJy1waHQnLCAnMi4wJywgJy1waCcsICc3LjAnLCAnLXRuJywgJzgnLCAnLW1hJywgJzIwMCcsICctaW1hZScsICc8aW5maWxlLm1hZT4nLCAnLW9tYWUnLCAnPG91dGZpbGUubWFlPic=

>  <r_epik_Ionization_Penalty>  (314) 
0.0216423

>  <r_epik_Ionization_Penalty_Charging>  (314) 
0

>  <r_epik_Ionization_Penalty_Neutral>  (314) 
0.0216423

>  <r_epik_State_Penalty>  (314) 
0.198884

>  <r_epik_Charging_Adjusted_Penalty>  (314) 
0.198884

>  <i_epik_Tot_Q>  (314) 
0

>  <i_epik_Tot_abs_Q>  (314) 
0

>  <s_lp_Force_Field>  (314) 
OPLS3e

>  <r_lp_Energy>  (314) 
13.3619

>  <b_lp_Chiralities_Consistent>  (314) 
1

>  <s_lp_Variant>  (314) 
84:0-1

>  <s_i_glide_gridfile>  (314) 
pfpi4k_grid

>  <i_i_glide_lignum>  (314) 
43

>  <i_i_glide_rotatable_bonds>  (314) 
0

>  <r_i_docking_score>  (314) 
-3.99589

>  <r_i_glide_ligand_efficiency>  (314) 
-0.307376

>  <r_i_glide_ligand_efficiency_sa>  (314) 
-0.722745

>  <r_i_glide_ligand_efficiency_ln>  (314) 
-1.12088

>  <r_i_glide_gscore>  (314) 
-3.99589

>  <r_i_glide_lipo>  (314) 
-0.183609

>  <r_i_glide_hbond>  (314) 
-0.160326

>  <r_i_glide_metal>  (314) 
-0

>  <r_i_glide_rewards>  (314) 
-2.23511

>  <r_i_glide_evdw>  (314) 
-15.7116

>  <r_i_glide_ecoul>  (314) 
-3.62784

>  <r_i_glide_erotb>  (314) 
0

>  <r_i_glide_esite>  (314) 
-0.0870887

>  <r_i_glide_emodel>  (314) 
-25.4827

>  <r_i_glide_energy>  (314) 
-19.3394

>  <r_i_glide_einternal>  (314) 
0

>  <r_i_glide_intrahb_reward>  (314) 
-0

>  <i_i_glide_confnum>  (314) 
2

>  <i_i_glide_posenum>  (314) 
12

>  <r_i_glide_eff_state_penalty>  (314) 
0

>  <ligand_id>  (314) 
84

>  <original_smiles>  (314) 
Cc1nc2c(ccc3ccoc32)[nH]1

>  <smiles>  (314) 
[H]c1oc2c(c1[H])c([H])c([H])c1c2nc(C([H])([H])[H])n1[H]

$$$$
84:0:1
     RDKit          3D

 21 23  0  0  1  0  0  0  0  0999 V2000
   -1.8529   -8.1374    2.7030 C   0  0  0  0  0  0  0  0  0  0  0  0
   -0.4229   -7.9472    2.3428 C   0  0  0  0  0  0  0  0  0  0  0  0
    0.0346   -6.7749    1.8260 N   0  0  0  0  0  0  0  0  0  0  0  0
    1.3442   -7.0387    1.6550 C   0  0  0  0  0  0  0  0  0  0  0  0
    1.6251   -8.3353    2.0633 C   0  0  0  0  0  0  0  0  0  0  0  0
    2.9650   -8.7825    1.9323 C   0  0  0  0  0  0  0  0  0  0  0  0
    3.9943   -7.9437    1.4172 C   0  0  0  0  0  0  0  0  0  0  0  0
    3.6424   -6.6347    1.0292 C   0  0  0  0  0  0  0  0  0  0  0  0
    4.4456   -5.5899    0.4833 C   0  0  0  0  0  0  0  0  0  0  0  0
    3.5094   -4.5857    0.3197 C   0  0  0  0  0  0  0  0  0  0  0  0
    2.2224   -4.9340    0.7125 O   0  0  0  0  0  0  0  0  0  0  0  0
    2.3411   -6.2035    1.1478 C   0  0  0  0  0  0  0  0  0  0  0  0
    0.4837   -8.9469    2.5186 N   0  0  0  0  0  0  0  0  0  0  0  0
    0.3139   -9.8837    2.8693 H   0  0  0  0  0  0  0  0  0  0  0  0
   -2.4132   -7.2264    2.4903 H   0  0  0  0  0  0  0  0  0  0  0  0
   -1.9447   -8.3646    3.7662 H   0  0  0  0  0  0  0  0  0  0  0  0
   -2.2830   -8.9506    2.1170 H   0  0  0  0  0  0  0  0  0  0  0  0
    3.2175   -9.7914    2.2267 H   0  0  0  0  0  0  0  0  0  0  0  0
    5.0132   -8.3094    1.3285 H   0  0  0  0  0  0  0  0  0  0  0  0
    5.5100   -5.6292    0.2689 H   0  0  0  0  0  0  0  0  0  0  0  0
    3.5440   -3.5733   -0.0561 H   0  0  0  0  0  0  0  0  0  0  0  0
  1  2  1  0
  1 15  1  0
  1 16  1  0
  1 17  1  0
  2 13  1  0
  2  3  2  0
  3  4  1  0
  4 12  1  0
  4  5  2  0
  5  6  1  0
  5 13  1  0
  6  7  2  0
  6 18  1  0
  7  8  1  0
  7 19  1  0
  8 12  2  0
  8  9  1  0
  9 10  2  0
  9 20  1  0
 10 11  1  0
 10 21  1  0
 11 12  1  0
 13 14  1  0
M  END
>  <i_m_ct_stereo_status>  (315) 
1

>  <s_m_source_file>  (315) 
/var/tmp/pbs.5076255.sched01/tmpn8rdt6mw/90ee43ygr2.sdf

>  <i_m_source_file_index>  (315) 
43

>  <i_lp_mmshare_version>  (315) 
48012

>  <i_f3d_flags>  (315) 
0

>  <s_epik_input>  (315) 
W0NIM11jKG4xKVtuSF1jKGMxMilbY0hdW2NIXWMzYzJvW2NIXVtjSF0z

>  <s_epik_cmdline>  (315) 
J2VwaWtfcHl0aG9uJywgJy1waHQnLCAnMi4wJywgJy1waCcsICc3LjAnLCAnLXRuJywgJzgnLCAnLW1hJywgJzIwMCcsICctaW1hZScsICc8aW5maWxlLm1hZT4nLCAnLW9tYWUnLCAnPG91dGZpbGUubWFlPic=

>  <r_epik_Ionization_Penalty>  (315) 
0.0216423

>  <r_epik_Ionization_Penalty_Charging>  (315) 
0

>  <r_epik_Ionization_Penalty_Neutral>  (315) 
0.0216423

>  <r_epik_State_Penalty>  (315) 
0.198884

>  <r_epik_Charging_Adjusted_Penalty>  (315) 
0.198884

>  <i_epik_Tot_Q>  (315) 
0

>  <i_epik_Tot_abs_Q>  (315) 
0

>  <s_lp_Force_Field>  (315) 
OPLS3e

>  <r_lp_Energy>  (315) 
13.3619

>  <b_lp_Chiralities_Consistent>  (315) 
1

>  <s_lp_Variant>  (315) 
84:0-1

>  <s_i_glide_gridfile>  (315) 
pfpi4k_grid

>  <i_i_glide_lignum>  (315) 
43

>  <i_i_glide_rotatable_bonds>  (315) 
0

>  <r_i_docking_score>  (315) 
-3.88515

>  <r_i_glide_ligand_efficiency>  (315) 
-0.298858

>  <r_i_glide_ligand_efficiency_sa>  (315) 
-0.702714

>  <r_i_glide_ligand_efficiency_ln>  (315) 
-1.08982

>  <r_i_glide_gscore>  (315) 
-3.88515

>  <r_i_glide_lipo>  (315) 
-0.146224

>  <r_i_glide_hbond>  (315) 
-0.108592

>  <r_i_glide_metal>  (315) 
-0

>  <r_i_glide_rewards>  (315) 
-2.23511

>  <r_i_glide_evdw>  (315) 
-17.7655

>  <r_i_glide_ecoul>  (315) 
-2.8137

>  <r_i_glide_erotb>  (315) 
0

>  <r_i_glide_esite>  (315) 
-0.0848909

>  <r_i_glide_emodel>  (315) 
-26.5567

>  <r_i_glide_energy>  (315) 
-20.5792

>  <r_i_glide_einternal>  (315) 
0

>  <r_i_glide_intrahb_reward>  (315) 
-0

>  <i_i_glide_confnum>  (315) 
1

>  <i_i_glide_posenum>  (315) 
1

>  <r_i_glide_eff_state_penalty>  (315) 
0

>  <ligand_id>  (315) 
84

>  <original_smiles>  (315) 
Cc1nc2c(ccc3ccoc32)[nH]1

>  <smiles>  (315) 
[H]c1oc2c(c1[H])c([H])c([H])c1c2nc(C([H])([H])[H])n1[H]

$$$$
84:0:2
     RDKit          3D

 21 23  0  0  1  0  0  0  0  0999 V2000
    1.6329   -0.7623    2.0612 C   0  0  0  0  0  0  0  0  0  0  0  0
    0.6405    0.1174    2.7365 C   0  0  0  0  0  0  0  0  0  0  0  0
    0.4933    0.1067    4.0865 N   0  0  0  0  0  0  0  0  0  0  0  0
   -0.4672    1.0185    4.2693 C   0  0  0  0  0  0  0  0  0  0  0  0
   -0.8677    1.5242    3.0554 C   0  0  0  0  0  0  0  0  0  0  0  0
   -1.8981    2.5089    3.0708 C   0  0  0  0  0  0  0  0  0  0  0  0
   -2.4854    2.9476    4.2851 C   0  0  0  0  0  0  0  0  0  0  0  0
   -2.0160    2.3918    5.4971 C   0  0  0  0  0  0  0  0  0  0  0  0
   -2.4273    2.6503    6.8399 C   0  0  0  0  0  0  0  0  0  0  0  0
   -1.5909    1.7945    7.5394 C   0  0  0  0  0  0  0  0  0  0  0  0
   -0.7446    1.0369    6.7360 O   0  0  0  0  0  0  0  0  0  0  0  0
   -1.0332    1.4408    5.4854 C   0  0  0  0  0  0  0  0  0  0  0  0
   -0.1667    0.9490    2.0273 N   0  0  0  0  0  0  0  0  0  0  0  0
   -0.2144    1.0668    1.0115 H   0  0  0  0  0  0  0  0  0  0  0  0
    2.1831   -1.3495    2.8008 H   0  0  0  0  0  0  0  0  0  0  0  0
    2.3449   -0.1582    1.4929 H   0  0  0  0  0  0  0  0  0  0  0  0
    1.1235   -1.4560    1.3889 H   0  0  0  0  0  0  0  0  0  0  0  0
   -2.2526    2.9196    2.1360 H   0  0  0  0  0  0  0  0  0  0  0  0
   -3.2841    3.6893    4.2648 H   0  0  0  0  0  0  0  0  0  0  0  0
   -3.1866    3.3483    7.1731 H   0  0  0  0  0  0  0  0  0  0  0  0
   -1.4484    1.5819    8.5901 H   0  0  0  0  0  0  0  0  0  0  0  0
  1  2  1  0
  1 15  1  0
  1 16  1  0
  1 17  1  0
  2 13  1  0
  2  3  2  0
  3  4  1  0
  4 12  1  0
  4  5  2  0
  5  6  1  0
  5 13  1  0
  6  7  2  0
  6 18  1  0
  7  8  1  0
  7 19  1  0
  8 12  2  0
  8  9  1  0
  9 10  2  0
  9 20  1  0
 10 11  1  0
 10 21  1  0
 11 12  1  0
 13 14  1  0
M  END
>  <i_m_ct_stereo_status>  (316) 
1

>  <s_m_source_file>  (316) 
/var/tmp/pbs.5076255.sched01/tmpn8rdt6mw/90ee43ygr2.sdf

>  <i_m_source_file_index>  (316) 
43

>  <i_lp_mmshare_version>  (316) 
48012

>  <i_f3d_flags>  (316) 
0

>  <s_epik_input>  (316) 
W0NIM11jKG4xKVtuSF1jKGMxMilbY0hdW2NIXWMzYzJvW2NIXVtjSF0z

>  <s_epik_cmdline>  (316) 
J2VwaWtfcHl0aG9uJywgJy1waHQnLCAnMi4wJywgJy1waCcsICc3LjAnLCAnLXRuJywgJzgnLCAnLW1hJywgJzIwMCcsICctaW1hZScsICc8aW5maWxlLm1hZT4nLCAnLW9tYWUnLCAnPG91dGZpbGUubWFlPic=

>  <r_epik_Ionization_Penalty>  (316) 
0.0216423

>  <r_epik_Ionization_Penalty_Charging>  (316) 
0

>  <r_epik_Ionization_Penalty_Neutral>  (316) 
0.0216423

>  <r_epik_State_Penalty>  (316) 
0.198884

>  <r_epik_Charging_Adjusted_Penalty>  (316) 
0.198884

>  <i_epik_Tot_Q>  (316) 
0

>  <i_epik_Tot_abs_Q>  (316) 
0

>  <s_lp_Force_Field>  (316) 
OPLS3e

>  <r_lp_Energy>  (316) 
13.3619

>  <b_lp_Chiralities_Consistent>  (316) 
1

>  <s_lp_Variant>  (316) 
84:0-1

>  <s_i_glide_gridfile>  (316) 
pfpi4k_grid

>  <i_i_glide_lignum>  (316) 
43

>  <i_i_glide_rotatable_bonds>  (316) 
0

>  <r_i_docking_score>  (316) 
-3.59503

>  <r_i_glide_ligand_efficiency>  (316) 
-0.276541

>  <r_i_glide_ligand_efficiency_sa>  (316) 
-0.65024

>  <r_i_glide_ligand_efficiency_ln>  (316) 
-1.00844

>  <r_i_glide_gscore>  (316) 
-3.59503

>  <r_i_glide_lipo>  (316) 
-0.163256

>  <r_i_glide_hbond>  (316) 
-0.104639

>  <r_i_glide_metal>  (316) 
-0

>  <r_i_glide_rewards>  (316) 
-2.23511

>  <r_i_glide_evdw>  (316) 
-14.9196

>  <r_i_glide_ecoul>  (316) 
-1.54043

>  <r_i_glide_erotb>  (316) 
0

>  <r_i_glide_esite>  (316) 
-0.114973

>  <r_i_glide_emodel>  (316) 
-21.9475

>  <r_i_glide_energy>  (316) 
-16.46

>  <r_i_glide_einternal>  (316) 
0

>  <r_i_glide_intrahb_reward>  (316) 
-0

>  <i_i_glide_confnum>  (316) 
2

>  <i_i_glide_posenum>  (316) 
34

>  <r_i_glide_eff_state_penalty>  (316) 
0

>  <ligand_id>  (316) 
84

>  <original_smiles>  (316) 
Cc1nc2c(ccc3ccoc32)[nH]1

>  <smiles>  (316) 
[H]c1oc2c(c1[H])c([H])c([H])c1c2nc(C([H])([H])[H])n1[H]

$$$$
84:1:0
     RDKit          3D

 21 23  0  0  1  0  0  0  0  0999 V2000
    2.7818    7.9770    4.3075 C   0  0  0  0  0  0  0  0  0  0  0  0
    2.0090    6.7092    4.4216 C   0  0  0  0  0  0  0  0  0  0  0  0
    0.8333    6.5273    3.7742 N   0  0  0  0  0  0  0  0  0  0  0  0
    0.3986    5.3090    4.0818 C   0  0  0  0  0  0  0  0  0  0  0  0
    1.3555    4.7610    4.9311 C   0  0  0  0  0  0  0  0  0  0  0  0
    1.1611    3.4483    5.4303 C   0  0  0  0  0  0  0  0  0  0  0  0
    0.0102    2.7032    5.0667 C   0  0  0  0  0  0  0  0  0  0  0  0
   -0.9305    3.3011    4.2003 C   0  0  0  0  0  0  0  0  0  0  0  0
   -2.1491    2.7798    3.6876 C   0  0  0  0  0  0  0  0  0  0  0  0
   -2.6073    3.8255    2.9037 C   0  0  0  0  0  0  0  0  0  0  0  0
   -1.7773    4.9433    2.9177 O   0  0  0  0  0  0  0  0  0  0  0  0
   -0.7446    4.5789    3.7150 C   0  0  0  0  0  0  0  0  0  0  0  0
    2.3968    5.6497    5.1646 N   0  0  0  0  0  0  0  0  0  0  0  0
    3.6967    7.9158    4.9026 H   0  0  0  0  0  0  0  0  0  0  0  0
    2.1863    8.8223    4.6589 H   0  0  0  0  0  0  0  0  0  0  0  0
    3.0657    8.1613    3.2727 H   0  0  0  0  0  0  0  0  0  0  0  0
    1.8987    3.0184    6.0917 H   0  0  0  0  0  0  0  0  0  0  0  0
   -0.1356    1.7049    5.4479 H   0  0  0  0  0  0  0  0  0  0  0  0
   -2.5604    1.8012    3.8828 H   0  0  0  0  0  0  0  0  0  0  0  0
   -3.4838    3.9495    2.2848 H   0  0  0  0  0  0  0  0  0  0  0  0
    0.3590    7.1624    3.1263 H   0  0  0  0  0  0  0  0  0  0  0  0
  1  2  1  0
  1 14  1  0
  1 15  1  0
  1 16  1  0
  2 13  2  0
  2  3  1  0
  3  4  1  0
  3 21  1  0
  4 12  1  0
  4  5  2  0
  5  6  1  0
  5 13  1  0
  6  7  2  0
  6 17  1  0
  7  8  1  0
  7 18  1  0
  8 12  2  0
  8  9  1  0
  9 10  2  0
  9 19  1  0
 10 11  1  0
 10 20  1  0
 11 12  1  0
M  END
>  <i_m_ct_stereo_status>  (317) 
1

>  <s_m_source_file>  (317) 
/var/tmp/pbs.5076255.sched01/tmpn8rdt6mw/90ee43ygr2.sdf

>  <i_m_source_file_index>  (317) 
44

>  <i_lp_mmshare_version>  (317) 
48012

>  <i_f3d_flags>  (317) 
0

>  <s_epik_input>  (317) 
W0NIM11jKG4xKVtuSF1jKGMxMilbY0hdW2NIXWMzYzJvW2NIXVtjSF0z

>  <s_epik_cmdline>  (317) 
J2VwaWtfcHl0aG9uJywgJy1waHQnLCAnMi4wJywgJy1waCcsICc3LjAnLCAnLXRuJywgJzgnLCAnLW1hJywgJzIwMCcsICctaW1hZScsICc8aW5maWxlLm1hZT4nLCAnLW9tYWUnLCAnPG91dGZpbGUubWFlPic=

>  <r_epik_Ionization_Penalty>  (317) 
0.0536014

>  <r_epik_Ionization_Penalty_Charging>  (317) 
0

>  <r_epik_Ionization_Penalty_Neutral>  (317) 
0.0536014

>  <r_epik_State_Penalty>  (317) 
0.789478

>  <r_epik_Charging_Adjusted_Penalty>  (317) 
0.789478

>  <i_epik_Tot_Q>  (317) 
0

>  <i_epik_Tot_abs_Q>  (317) 
0

>  <s_lp_Force_Field>  (317) 
OPLS3e

>  <r_lp_Energy>  (317) 
13.5528

>  <b_lp_Chiralities_Consistent>  (317) 
1

>  <s_lp_Variant>  (317) 
84:0-2

>  <s_i_glide_gridfile>  (317) 
pfpi4k_grid

>  <i_i_glide_lignum>  (317) 
44

>  <i_i_glide_rotatable_bonds>  (317) 
0

>  <r_i_docking_score>  (317) 
-4.0181

>  <r_i_glide_ligand_efficiency>  (317) 
-0.309085

>  <r_i_glide_ligand_efficiency_sa>  (317) 
-0.726761

>  <r_i_glide_ligand_efficiency_ln>  (317) 
-1.12711

>  <r_i_glide_gscore>  (317) 
-4.0181

>  <r_i_glide_lipo>  (317) 
0

>  <r_i_glide_hbond>  (317) 
-0.32

>  <r_i_glide_metal>  (317) 
-0

>  <r_i_glide_rewards>  (317) 
-2.23511

>  <r_i_glide_evdw>  (317) 
-11.2399

>  <r_i_glide_ecoul>  (317) 
-5.14519

>  <r_i_glide_erotb>  (317) 
0

>  <r_i_glide_esite>  (317) 
-0.129211

>  <r_i_glide_emodel>  (317) 
-21.2148

>  <r_i_glide_energy>  (317) 
-16.3851

>  <r_i_glide_einternal>  (317) 
0

>  <r_i_glide_intrahb_reward>  (317) 
-0

>  <i_i_glide_confnum>  (317) 
1

>  <i_i_glide_posenum>  (317) 
15

>  <r_i_glide_eff_state_penalty>  (317) 
0

>  <ligand_id>  (317) 
84

>  <original_smiles>  (317) 
Cc1nc2c(ccc3ccoc32)[nH]1

>  <smiles>  (317) 
[H]c1oc2c(c1[H])c([H])c([H])c1nc(C([H])([H])[H])n([H])c12

$$$$
84:1:1
     RDKit          3D

 21 23  0  0  1  0  0  0  0  0999 V2000
    5.2000   -2.1944    1.7435 C   0  0  0  0  0  0  0  0  0  0  0  0
    4.5676   -2.1520    0.3898 C   0  0  0  0  0  0  0  0  0  0  0  0
    4.7231   -1.0983   -0.4515 N   0  0  0  0  0  0  0  0  0  0  0  0
    4.0444   -1.3812   -1.5585 C   0  0  0  0  0  0  0  0  0  0  0  0
    3.4703   -2.6295   -1.3552 C   0  0  0  0  0  0  0  0  0  0  0  0
    2.6696   -3.1664   -2.3896 C   0  0  0  0  0  0  0  0  0  0  0  0
    2.4730   -2.4785   -3.6117 C   0  0  0  0  0  0  0  0  0  0  0  0
    3.0689   -1.2081   -3.7696 C   0  0  0  0  0  0  0  0  0  0  0  0
    3.0166   -0.2661   -4.8470 C   0  0  0  0  0  0  0  0  0  0  0  0
    3.8044    0.7536   -4.3802 C   0  0  0  0  0  0  0  0  0  0  0  0
    4.2767    0.5384   -3.1119 O   0  0  0  0  0  0  0  0  0  0  0  0
    3.8307   -0.6799   -2.7563 C   0  0  0  0  0  0  0  0  0  0  0  0
    3.7972   -3.1450   -0.1081 N   0  0  0  0  0  0  0  0  0  0  0  0
    4.9433   -3.1320    2.2382 H   0  0  0  0  0  0  0  0  0  0  0  0
    4.8411   -1.3658    2.3586 H   0  0  0  0  0  0  0  0  0  0  0  0
    6.2876   -2.1334    1.6573 H   0  0  0  0  0  0  0  0  0  0  0  0
    2.2009   -4.1216   -2.2411 H   0  0  0  0  0  0  0  0  0  0  0  0
    1.8487   -2.9086   -4.3752 H   0  0  0  0  0  0  0  0  0  0  0  0
    2.4863   -0.3178   -5.7860 H   0  0  0  0  0  0  0  0  0  0  0  0
    4.0649    1.7132   -4.7872 H   0  0  0  0  0  0  0  0  0  0  0  0
    5.2066   -0.2203   -0.3273 H   0  0  0  0  0  0  0  0  0  0  0  0
  1  2  1  0
  1 14  1  0
  1 15  1  0
  1 16  1  0
  2 13  2  0
  2  3  1  0
  3  4  1  0
  3 21  1  0
  4 12  1  0
  4  5  2  0
  5  6  1  0
  5 13  1  0
  6  7  2  0
  6 17  1  0
  7  8  1  0
  7 18  1  0
  8 12  2  0
  8  9  1  0
  9 10  2  0
  9 19  1  0
 10 11  1  0
 10 20  1  0
 11 12  1  0
M  END
>  <i_m_ct_stereo_status>  (318) 
1

>  <s_m_source_file>  (318) 
/var/tmp/pbs.5076255.sched01/tmpn8rdt6mw/90ee43ygr2.sdf

>  <i_m_source_file_index>  (318) 
44

>  <i_lp_mmshare_version>  (318) 
48012

>  <i_f3d_flags>  (318) 
0

>  <s_epik_input>  (318) 
W0NIM11jKG4xKVtuSF1jKGMxMilbY0hdW2NIXWMzYzJvW2NIXVtjSF0z

>  <s_epik_cmdline>  (318) 
J2VwaWtfcHl0aG9uJywgJy1waHQnLCAnMi4wJywgJy1waCcsICc3LjAnLCAnLXRuJywgJzgnLCAnLW1hJywgJzIwMCcsICctaW1hZScsICc8aW5maWxlLm1hZT4nLCAnLW9tYWUnLCAnPG91dGZpbGUubWFlPic=

>  <r_epik_Ionization_Penalty>  (318) 
0.0536014

>  <r_epik_Ionization_Penalty_Charging>  (318) 
0

>  <r_epik_Ionization_Penalty_Neutral>  (318) 
0.0536014

>  <r_epik_State_Penalty>  (318) 
0.789478

>  <r_epik_Charging_Adjusted_Penalty>  (318) 
0.789478

>  <i_epik_Tot_Q>  (318) 
0

>  <i_epik_Tot_abs_Q>  (318) 
0

>  <s_lp_Force_Field>  (318) 
OPLS3e

>  <r_lp_Energy>  (318) 
13.5528

>  <b_lp_Chiralities_Consistent>  (318) 
1

>  <s_lp_Variant>  (318) 
84:0-2

>  <s_i_glide_gridfile>  (318) 
pfpi4k_grid

>  <i_i_glide_lignum>  (318) 
44

>  <i_i_glide_rotatable_bonds>  (318) 
0

>  <r_i_docking_score>  (318) 
-3.99272

>  <r_i_glide_ligand_efficiency>  (318) 
-0.307132

>  <r_i_glide_ligand_efficiency_sa>  (318) 
-0.72217

>  <r_i_glide_ligand_efficiency_ln>  (318) 
-1.11999

>  <r_i_glide_gscore>  (318) 
-3.99272

>  <r_i_glide_lipo>  (318) 
-0.820738

>  <r_i_glide_hbond>  (318) 
-0.051667

>  <r_i_glide_metal>  (318) 
-0

>  <r_i_glide_rewards>  (318) 
-2.23511

>  <r_i_glide_evdw>  (318) 
-14.4561

>  <r_i_glide_ecoul>  (318) 
-0.874339

>  <r_i_glide_erotb>  (318) 
0

>  <r_i_glide_esite>  (318) 
-0.0312436

>  <r_i_glide_emodel>  (318) 
-20.0963

>  <r_i_glide_energy>  (318) 
-15.3304

>  <r_i_glide_einternal>  (318) 
0

>  <r_i_glide_intrahb_reward>  (318) 
-0

>  <i_i_glide_confnum>  (318) 
1

>  <i_i_glide_posenum>  (318) 
5

>  <r_i_glide_eff_state_penalty>  (318) 
0

>  <ligand_id>  (318) 
84

>  <original_smiles>  (318) 
Cc1nc2c(ccc3ccoc32)[nH]1

>  <smiles>  (318) 
[H]c1oc2c(c1[H])c([H])c([H])c1nc(C([H])([H])[H])n([H])c12

$$$$
84:1:2
     RDKit          3D

 21 23  0  0  1  0  0  0  0  0999 V2000
    2.8925   -0.7506    1.0702 C   0  0  0  0  0  0  0  0  0  0  0  0
    2.1656    0.1221    2.0401 C   0  0  0  0  0  0  0  0  0  0  0  0
    0.9088    0.5757    1.8049 N   0  0  0  0  0  0  0  0  0  0  0  0
    0.5525    1.3056    2.8572 C   0  0  0  0  0  0  0  0  0  0  0  0
    1.6365    1.2858    3.7270 C   0  0  0  0  0  0  0  0  0  0  0  0
    1.5450    1.9974    4.9527 C   0  0  0  0  0  0  0  0  0  0  0  0
    0.3663    2.7177    5.2798 C   0  0  0  0  0  0  0  0  0  0  0  0
   -0.7055    2.7058    4.3636 C   0  0  0  0  0  0  0  0  0  0  0  0
   -1.9809    3.3336    4.4457 C   0  0  0  0  0  0  0  0  0  0  0  0
   -2.5708    2.9442    3.2534 C   0  0  0  0  0  0  0  0  0  0  0  0
   -1.7651    2.1232    2.4748 O   0  0  0  0  0  0  0  0  0  0  0  0
   -0.6174    2.0079    3.1810 C   0  0  0  0  0  0  0  0  0  0  0  0
    2.6824    0.5226    3.2221 N   0  0  0  0  0  0  0  0  0  0  0  0
    3.8869   -0.9968    1.4544 H   0  0  0  0  0  0  0  0  0  0  0  0
    3.0085   -0.2546    0.1056 H   0  0  0  0  0  0  0  0  0  0  0  0
    2.3400   -1.6804    0.9050 H   0  0  0  0  0  0  0  0  0  0  0  0
    2.3803    1.9861    5.6341 H   0  0  0  0  0  0  0  0  0  0  0  0
    0.2986    3.2587    6.2147 H   0  0  0  0  0  0  0  0  0  0  0  0
   -2.3482    3.9449    5.2567 H   0  0  0  0  0  0  0  0  0  0  0  0
   -3.5321    3.1410    2.7994 H   0  0  0  0  0  0  0  0  0  0  0  0
    0.3174    0.4342    0.9948 H   0  0  0  0  0  0  0  0  0  0  0  0
  1  2  1  0
  1 14  1  0
  1 15  1  0
  1 16  1  0
  2 13  2  0
  2  3  1  0
  3  4  1  0
  3 21  1  0
  4 12  1  0
  4  5  2  0
  5  6  1  0
  5 13  1  0
  6  7  2  0
  6 17  1  0
  7  8  1  0
  7 18  1  0
  8 12  2  0
  8  9  1  0
  9 10  2  0
  9 19  1  0
 10 11  1  0
 10 20  1  0
 11 12  1  0
M  END
>  <i_m_ct_stereo_status>  (319) 
1

>  <s_m_source_file>  (319) 
/var/tmp/pbs.5076255.sched01/tmpn8rdt6mw/90ee43ygr2.sdf

>  <i_m_source_file_index>  (319) 
44

>  <i_lp_mmshare_version>  (319) 
48012

>  <i_f3d_flags>  (319) 
0

>  <s_epik_input>  (319) 
W0NIM11jKG4xKVtuSF1jKGMxMilbY0hdW2NIXWMzYzJvW2NIXVtjSF0z

>  <s_epik_cmdline>  (319) 
J2VwaWtfcHl0aG9uJywgJy1waHQnLCAnMi4wJywgJy1waCcsICc3LjAnLCAnLXRuJywgJzgnLCAnLW1hJywgJzIwMCcsICctaW1hZScsICc8aW5maWxlLm1hZT4nLCAnLW9tYWUnLCAnPG91dGZpbGUubWFlPic=

>  <r_epik_Ionization_Penalty>  (319) 
0.0536014

>  <r_epik_Ionization_Penalty_Charging>  (319) 
0

>  <r_epik_Ionization_Penalty_Neutral>  (319) 
0.0536014

>  <r_epik_State_Penalty>  (319) 
0.789478

>  <r_epik_Charging_Adjusted_Penalty>  (319) 
0.789478

>  <i_epik_Tot_Q>  (319) 
0

>  <i_epik_Tot_abs_Q>  (319) 
0

>  <s_lp_Force_Field>  (319) 
OPLS3e

>  <r_lp_Energy>  (319) 
13.5528

>  <b_lp_Chiralities_Consistent>  (319) 
1

>  <s_lp_Variant>  (319) 
84:0-2

>  <s_i_glide_gridfile>  (319) 
pfpi4k_grid

>  <i_i_glide_lignum>  (319) 
44

>  <i_i_glide_rotatable_bonds>  (319) 
0

>  <r_i_docking_score>  (319) 
-3.30518

>  <r_i_glide_ligand_efficiency>  (319) 
-0.254244

>  <r_i_glide_ligand_efficiency_sa>  (319) 
-0.597814

>  <r_i_glide_ligand_efficiency_ln>  (319) 
-0.927132

>  <r_i_glide_gscore>  (319) 
-3.30518

>  <r_i_glide_lipo>  (319) 
0

>  <r_i_glide_hbond>  (319) 
-0.0981652

>  <r_i_glide_metal>  (319) 
-0

>  <r_i_glide_rewards>  (319) 
-2.23511

>  <r_i_glide_evdw>  (319) 
-15.0404

>  <r_i_glide_ecoul>  (319) 
-0.703162

>  <r_i_glide_erotb>  (319) 
0

>  <r_i_glide_esite>  (319) 
-0.114402

>  <r_i_glide_emodel>  (319) 
-19.7145

>  <r_i_glide_energy>  (319) 
-15.7436

>  <r_i_glide_einternal>  (319) 
0

>  <r_i_glide_intrahb_reward>  (319) 
-0

>  <i_i_glide_confnum>  (319) 
2

>  <i_i_glide_posenum>  (319) 
9

>  <r_i_glide_eff_state_penalty>  (319) 
0

>  <ligand_id>  (319) 
84

>  <original_smiles>  (319) 
Cc1nc2c(ccc3ccoc32)[nH]1

>  <smiles>  (319) 
[H]c1oc2c(c1[H])c([H])c([H])c1nc(C([H])([H])[H])n([H])c12

$$$$
84:2:0
     RDKit          3D

 22 24  0  0  1  0  0  0  0  0999 V2000
    3.2172   -0.7208   -3.7207 C   0  0  0  0  0  0  0  0  0  0  0  0
    3.6983   -1.5463   -2.5721 C   0  0  0  0  0  0  0  0  0  0  0  0
    3.0411   -1.8170   -1.4253 N   0  0  0  0  0  0  0  0  0  0  0  0
    3.7796   -2.5447   -0.6055 C   0  0  0  0  0  0  0  0  0  0  0  0
    4.9644   -2.7890   -1.2437 C   0  0  0  0  0  0  0  0  0  0  0  0
    5.9720   -3.5545   -0.6421 C   0  0  0  0  0  0  0  0  0  0  0  0
    5.7490   -4.0806    0.6530 C   0  0  0  0  0  0  0  0  0  0  0  0
    4.5332   -3.8048    1.3058 C   0  0  0  0  0  0  0  0  0  0  0  0
    4.0702   -4.1986    2.5873 C   0  0  0  0  0  0  0  0  0  0  0  0
    2.8166   -3.6057    2.6257 C   0  0  0  0  0  0  0  0  0  0  0  0
    2.4927   -2.8945    1.4795 O   0  0  0  0  0  0  0  0  0  0  0  0
    3.5742   -3.0464    0.6837 C   0  0  0  0  0  0  0  0  0  0  0  0
    4.9159   -2.1650   -2.4888 N   0  0  0  0  0  0  0  0  0  0  0  0
    5.6266   -2.1683   -3.2123 H   0  0  0  0  0  0  0  0  0  0  0  0
    2.2312   -0.3170   -3.4870 H   0  0  0  0  0  0  0  0  0  0  0  0
    3.1711   -1.3545   -4.6047 H   0  0  0  0  0  0  0  0  0  0  0  0
    3.9104    0.1041   -3.8835 H   0  0  0  0  0  0  0  0  0  0  0  0
    6.8978   -3.7600   -1.1538 H   0  0  0  0  0  0  0  0  0  0  0  0
    6.4980   -4.6851    1.1357 H   0  0  0  0  0  0  0  0  0  0  0  0
    4.6043   -4.8061    3.2997 H   0  0  0  0  0  0  0  0  0  0  0  0
    2.0380   -3.5843    3.3697 H   0  0  0  0  0  0  0  0  0  0  0  0
    2.1018   -1.4932   -1.1325 H   0  0  0  0  0  0  0  0  0  0  0  0
  1  2  1  0
  1 15  1  0
  1 16  1  0
  1 17  1  0
  2 13  1  0
  2  3  2  0
  3  4  1  0
  3 22  1  0
  4 12  1  0
  4  5  2  0
  5  6  1  0
  5 13  1  0
  6  7  2  0
  6 18  1  0
  7  8  1  0
  7 19  1  0
  8 12  2  0
  8  9  1  0
  9 10  2  0
  9 20  1  0
 10 11  1  0
 10 21  1  0
 11 12  1  0
 13 14  1  0
M  CHG  1   3   1
M  END
>  <i_m_ct_stereo_status>  (320) 
1

>  <s_m_source_file>  (320) 
/var/tmp/pbs.5076255.sched01/tmpn8rdt6mw/90ee43ygr2.sdf

>  <i_m_source_file_index>  (320) 
45

>  <i_lp_mmshare_version>  (320) 
48012

>  <i_f3d_flags>  (320) 
0

>  <s_epik_input>  (320) 
W0NIM11jKG4xKVtuSF1jKGMxMilbY0hdW2NIXWMzYzJvW2NIXVtjSF0z

>  <s_epik_cmdline>  (320) 
J2VwaWtfcHl0aG9uJywgJy1waHQnLCAnMi4wJywgJy1waCcsICc3LjAnLCAnLXRuJywgJzgnLCAnLW1hJywgJzIwMCcsICctaW1hZScsICc8aW5maWxlLm1hZT4nLCAnLW9tYWUnLCAnPG91dGZpbGUubWFlPic=

>  <r_epik_Ionization_Penalty>  (320) 
3.42201

>  <r_epik_Ionization_Penalty_Charging>  (320) 
3.42201

>  <r_epik_Ionization_Penalty_Neutral>  (320) 
1.80761e-13

>  <r_epik_State_Penalty>  (320) 
2.27982

>  <r_epik_Charging_Adjusted_Penalty>  (320) 
5.70182

>  <i_epik_Tot_Q>  (320) 
1

>  <i_epik_Tot_abs_Q>  (320) 
1

>  <s_lp_Force_Field>  (320) 
OPLS3e

>  <r_lp_Energy>  (320) 
16.8455

>  <b_lp_Chiralities_Consistent>  (320) 
1

>  <s_lp_Variant>  (320) 
84:0-3

>  <s_i_glide_gridfile>  (320) 
pfpi4k_grid

>  <i_i_glide_lignum>  (320) 
45

>  <i_i_glide_rotatable_bonds>  (320) 
0

>  <r_i_docking_score>  (320) 
-4.46292

>  <r_i_glide_ligand_efficiency>  (320) 
-0.343302

>  <r_i_glide_ligand_efficiency_sa>  (320) 
-0.807217

>  <r_i_glide_ligand_efficiency_ln>  (320) 
-1.25189

>  <r_i_glide_gscore>  (320) 
-4.46292

>  <r_i_glide_lipo>  (320) 
-0.406858

>  <r_i_glide_hbond>  (320) 
-0.179824

>  <r_i_glide_metal>  (320) 
-0

>  <r_i_glide_rewards>  (320) 
-2.22824

>  <r_i_glide_evdw>  (320) 
-11.4233

>  <r_i_glide_ecoul>  (320) 
-6.21149

>  <r_i_glide_erotb>  (320) 
0

>  <r_i_glide_esite>  (320) 
-0.145106

>  <r_i_glide_emodel>  (320) 
-24.5286

>  <r_i_glide_energy>  (320) 
-17.6348

>  <r_i_glide_einternal>  (320) 
0

>  <r_i_glide_intrahb_reward>  (320) 
-0

>  <i_i_glide_confnum>  (320) 
2

>  <i_i_glide_posenum>  (320) 
6

>  <r_i_glide_eff_state_penalty>  (320) 
0

>  <ligand_id>  (320) 
84

>  <original_smiles>  (320) 
Cc1nc2c(ccc3ccoc32)[nH]1

>  <smiles>  (320) 
[H]c1oc2c(c1[H])c([H])c([H])c1c2[n+]([H])c(C([H])([H])[H])n1[H]

$$$$
84:2:1
     RDKit          3D

 22 24  0  0  1  0  0  0  0  0999 V2000
    2.8188    0.1542   -4.5091 C   0  0  0  0  0  0  0  0  0  0  0  0
    3.4270   -0.8143   -3.5366 C   0  0  0  0  0  0  0  0  0  0  0  0
    2.9502   -1.2191   -2.3335 N   0  0  0  0  0  0  0  0  0  0  0  0
    3.7314   -2.0862   -1.7380 C   0  0  0  0  0  0  0  0  0  0  0  0
    4.8033   -2.2720   -2.5620 C   0  0  0  0  0  0  0  0  0  0  0  0
    5.8382   -3.1341   -2.1903 C   0  0  0  0  0  0  0  0  0  0  0  0
    5.7495   -3.8204   -0.9465 C   0  0  0  0  0  0  0  0  0  0  0  0
    4.6205   -3.6265   -0.1235 C   0  0  0  0  0  0  0  0  0  0  0  0
    4.2825   -4.1822    1.1376 C   0  0  0  0  0  0  0  0  0  0  0  0
    3.0619   -3.5763    1.3945 C   0  0  0  0  0  0  0  0  0  0  0  0
    2.6430   -2.7108    0.3946 O   0  0  0  0  0  0  0  0  0  0  0  0
    3.6324   -2.7682   -0.5274 C   0  0  0  0  0  0  0  0  0  0  0  0
    4.6110   -1.4779   -3.7023 N   0  0  0  0  0  0  0  0  0  0  0  0
    5.2415   -1.3651   -4.4891 H   0  0  0  0  0  0  0  0  0  0  0  0
    1.8663    0.5315   -4.1281 H   0  0  0  0  0  0  0  0  0  0  0  0
    2.6552   -0.3404   -5.4689 H   0  0  0  0  0  0  0  0  0  0  0  0
    3.5005    0.9965   -4.6444 H   0  0  0  0  0  0  0  0  0  0  0  0
    6.6949   -3.2862   -2.8297 H   0  0  0  0  0  0  0  0  0  0  0  0
    6.5376   -4.4867   -0.6415 H   0  0  0  0  0  0  0  0  0  0  0  0
    4.8599   -4.8893    1.7161 H   0  0  0  0  0  0  0  0  0  0  0  0
    2.3694   -3.6399    2.2220 H   0  0  0  0  0  0  0  0  0  0  0  0
    2.0659   -0.9801   -1.8595 H   0  0  0  0  0  0  0  0  0  0  0  0
  1  2  1  0
  1 15  1  0
  1 16  1  0
  1 17  1  0
  2 13  1  0
  2  3  2  0
  3  4  1  0
  3 22  1  0
  4 12  1  0
  4  5  2  0
  5  6  1  0
  5 13  1  0
  6  7  2  0
  6 18  1  0
  7  8  1  0
  7 19  1  0
  8 12  2  0
  8  9  1  0
  9 10  2  0
  9 20  1  0
 10 11  1  0
 10 21  1  0
 11 12  1  0
 13 14  1  0
M  CHG  1   3   1
M  END
>  <i_m_ct_stereo_status>  (321) 
1

>  <s_m_source_file>  (321) 
/var/tmp/pbs.5076255.sched01/tmpn8rdt6mw/90ee43ygr2.sdf

>  <i_m_source_file_index>  (321) 
45

>  <i_lp_mmshare_version>  (321) 
48012

>  <i_f3d_flags>  (321) 
0

>  <s_epik_input>  (321) 
W0NIM11jKG4xKVtuSF1jKGMxMilbY0hdW2NIXWMzYzJvW2NIXVtjSF0z

>  <s_epik_cmdline>  (321) 
J2VwaWtfcHl0aG9uJywgJy1waHQnLCAnMi4wJywgJy1waCcsICc3LjAnLCAnLXRuJywgJzgnLCAnLW1hJywgJzIwMCcsICctaW1hZScsICc8aW5maWxlLm1hZT4nLCAnLW9tYWUnLCAnPG91dGZpbGUubWFlPic=

>  <r_epik_Ionization_Penalty>  (321) 
3.42201

>  <r_epik_Ionization_Penalty_Charging>  (321) 
3.42201

>  <r_epik_Ionization_Penalty_Neutral>  (321) 
1.80761e-13

>  <r_epik_State_Penalty>  (321) 
2.27982

>  <r_epik_Charging_Adjusted_Penalty>  (321) 
5.70182

>  <i_epik_Tot_Q>  (321) 
1

>  <i_epik_Tot_abs_Q>  (321) 
1

>  <s_lp_Force_Field>  (321) 
OPLS3e

>  <r_lp_Energy>  (321) 
16.8455

>  <b_lp_Chiralities_Consistent>  (321) 
1

>  <s_lp_Variant>  (321) 
84:0-3

>  <s_i_glide_gridfile>  (321) 
pfpi4k_grid

>  <i_i_glide_lignum>  (321) 
45

>  <i_i_glide_rotatable_bonds>  (321) 
0

>  <r_i_docking_score>  (321) 
-4.36871

>  <r_i_glide_ligand_efficiency>  (321) 
-0.336054

>  <r_i_glide_ligand_efficiency_sa>  (321) 
-0.790177

>  <r_i_glide_ligand_efficiency_ln>  (321) 
-1.22546

>  <r_i_glide_gscore>  (321) 
-4.36871

>  <r_i_glide_lipo>  (321) 
-0.421718

>  <r_i_glide_hbond>  (321) 
-0.2

>  <r_i_glide_metal>  (321) 
-0

>  <r_i_glide_rewards>  (321) 
-2.52291

>  <r_i_glide_evdw>  (321) 
-14.7666

>  <r_i_glide_ecoul>  (321) 
-2.71983

>  <r_i_glide_erotb>  (321) 
0

>  <r_i_glide_esite>  (321) 
-0.077781

>  <r_i_glide_emodel>  (321) 
-24.2196

>  <r_i_glide_energy>  (321) 
-17.4864

>  <r_i_glide_einternal>  (321) 
0

>  <r_i_glide_intrahb_reward>  (321) 
-0

>  <i_i_glide_confnum>  (321) 
1

>  <i_i_glide_posenum>  (321) 
2

>  <r_i_glide_eff_state_penalty>  (321) 
0

>  <ligand_id>  (321) 
84

>  <original_smiles>  (321) 
Cc1nc2c(ccc3ccoc32)[nH]1

>  <smiles>  (321) 
[H]c1oc2c(c1[H])c([H])c([H])c1c2[n+]([H])c(C([H])([H])[H])n1[H]

$$$$
84:2:2
     RDKit          3D

 22 24  0  0  1  0  0  0  0  0999 V2000
    3.3252   -0.3841    0.8588 C   0  0  0  0  0  0  0  0  0  0  0  0
    2.5351    0.5331    1.7289 C   0  0  0  0  0  0  0  0  0  0  0  0
    1.2066    0.7509    1.7094 N   0  0  0  0  0  0  0  0  0  0  0  0
    0.8180    1.6227    2.6033 C   0  0  0  0  0  0  0  0  0  0  0  0
    1.9437    2.0320    3.2558 C   0  0  0  0  0  0  0  0  0  0  0  0
    1.8886    2.9896    4.2821 C   0  0  0  0  0  0  0  0  0  0  0  0
    0.6275    3.5314    4.6525 C   0  0  0  0  0  0  0  0  0  0  0  0
   -0.5221    3.0890    3.9707 C   0  0  0  0  0  0  0  0  0  0  0  0
   -1.8772    3.4687    4.1522 C   0  0  0  0  0  0  0  0  0  0  0  0
   -2.4963    2.6944    3.1875 C   0  0  0  0  0  0  0  0  0  0  0  0
   -1.6334    1.8722    2.4747 O   0  0  0  0  0  0  0  0  0  0  0  0
   -0.4170    2.1525    2.9734 C   0  0  0  0  0  0  0  0  0  0  0  0
    3.0311    1.3456    2.7125 N   0  0  0  0  0  0  0  0  0  0  0  0
    4.0113    1.4759    2.9335 H   0  0  0  0  0  0  0  0  0  0  0  0
    2.6453   -0.8981    0.1763 H   0  0  0  0  0  0  0  0  0  0  0  0
    3.8382   -1.1111    1.4926 H   0  0  0  0  0  0  0  0  0  0  0  0
    4.0525    0.2033    0.2928 H   0  0  0  0  0  0  0  0  0  0  0  0
    2.7890    3.3170    4.7929 H   0  0  0  0  0  0  0  0  0  0  0  0
    0.5699    4.2682    5.4449 H   0  0  0  0  0  0  0  0  0  0  0  0
   -2.2737    4.1734    4.8729 H   0  0  0  0  0  0  0  0  0  0  0  0
   -3.5252    2.5703    2.8800 H   0  0  0  0  0  0  0  0  0  0  0  0
    0.5103    0.3657    1.0846 H   0  0  0  0  0  0  0  0  0  0  0  0
  1  2  1  0
  1 15  1  0
  1 16  1  0
  1 17  1  0
  2 13  1  0
  2  3  2  0
  3  4  1  0
  3 22  1  0
  4 12  1  0
  4  5  2  0
  5  6  1  0
  5 13  1  0
  6  7  2  0
  6 18  1  0
  7  8  1  0
  7 19  1  0
  8 12  2  0
  8  9  1  0
  9 10  2  0
  9 20  1  0
 10 11  1  0
 10 21  1  0
 11 12  1  0
 13 14  1  0
M  CHG  1   3   1
M  END
>  <i_m_ct_stereo_status>  (322) 
1

>  <s_m_source_file>  (322) 
/var/tmp/pbs.5076255.sched01/tmpn8rdt6mw/90ee43ygr2.sdf

>  <i_m_source_file_index>  (322) 
45

>  <i_lp_mmshare_version>  (322) 
48012

>  <i_f3d_flags>  (322) 
0

>  <s_epik_input>  (322) 
W0NIM11jKG4xKVtuSF1jKGMxMilbY0hdW2NIXWMzYzJvW2NIXVtjSF0z

>  <s_epik_cmdline>  (322) 
J2VwaWtfcHl0aG9uJywgJy1waHQnLCAnMi4wJywgJy1waCcsICc3LjAnLCAnLXRuJywgJzgnLCAnLW1hJywgJzIwMCcsICctaW1hZScsICc8aW5maWxlLm1hZT4nLCAnLW9tYWUnLCAnPG91dGZpbGUubWFlPic=

>  <r_epik_Ionization_Penalty>  (322) 
3.42201

>  <r_epik_Ionization_Penalty_Charging>  (322) 
3.42201

>  <r_epik_Ionization_Penalty_Neutral>  (322) 
1.80761e-13

>  <r_epik_State_Penalty>  (322) 
2.27982

>  <r_epik_Charging_Adjusted_Penalty>  (322) 
5.70182

>  <i_epik_Tot_Q>  (322) 
1

>  <i_epik_Tot_abs_Q>  (322) 
1

>  <s_lp_Force_Field>  (322) 
OPLS3e

>  <r_lp_Energy>  (322) 
16.8455

>  <b_lp_Chiralities_Consistent>  (322) 
1

>  <s_lp_Variant>  (322) 
84:0-3

>  <s_i_glide_gridfile>  (322) 
pfpi4k_grid

>  <i_i_glide_lignum>  (322) 
45

>  <i_i_glide_rotatable_bonds>  (322) 
0

>  <r_i_docking_score>  (322) 
-3.6451

>  <r_i_glide_ligand_efficiency>  (322) 
-0.280393

>  <r_i_glide_ligand_efficiency_sa>  (322) 
-0.659297

>  <r_i_glide_ligand_efficiency_ln>  (322) 
-1.02248

>  <r_i_glide_gscore>  (322) 
-3.6451

>  <r_i_glide_lipo>  (322) 
0

>  <r_i_glide_hbond>  (322) 
-0.0523716

>  <r_i_glide_metal>  (322) 
-0

>  <r_i_glide_rewards>  (322) 
-2.22824

>  <r_i_glide_evdw>  (322) 
-13.1561

>  <r_i_glide_ecoul>  (322) 
-4.14277

>  <r_i_glide_erotb>  (322) 
0

>  <r_i_glide_esite>  (322) 
-0.0852714

>  <r_i_glide_emodel>  (322) 
-22.9234

>  <r_i_glide_energy>  (322) 
-17.2989

>  <r_i_glide_einternal>  (322) 
0

>  <r_i_glide_intrahb_reward>  (322) 
-0

>  <i_i_glide_confnum>  (322) 
1

>  <i_i_glide_posenum>  (322) 
1

>  <r_i_glide_eff_state_penalty>  (322) 
0

>  <ligand_id>  (322) 
84

>  <original_smiles>  (322) 
Cc1nc2c(ccc3ccoc32)[nH]1

>  <smiles>  (322) 
[H]c1oc2c(c1[H])c([H])c([H])c1c2[n+]([H])c(C([H])([H])[H])n1[H]

$$$$
86:0:0
     RDKit          3D

 77 80  0  0  1  0  0  0  0  0999 V2000
    3.2117   -3.1808   -3.8800 C   0  0  0  0  0  0  0  0  0  0  0  0
    3.9374   -2.9115   -2.5583 C   0  0  0  0  0  0  0  0  0  0  0  0
    5.2334   -3.7502   -2.4622 C   0  0  0  0  0  0  0  0  0  0  0  0
    2.9789   -3.1300   -1.3625 C   0  0  0  0  0  0  0  0  0  0  0  0
    3.5623   -2.6059   -0.0632 C   0  0  0  0  0  0  0  0  0  0  0  0
    2.5811   -2.5954    1.1312 C   0  0  0  0  0  0  0  0  0  0  0  0
    3.1883   -2.2077    2.5172 C   0  0  2  0  0  0  0  0  0  0  0  0
    3.7965   -0.7931    2.4832 C   0  0  0  0  0  0  0  0  0  0  0  0
    4.1764   -3.2052    3.2210 C   0  0  2  0  0  0  0  0  0  0  0  0
    5.2728   -3.7324    2.2875 C   0  0  0  0  0  0  0  0  0  0  0  0
    4.8269   -5.1728    1.8932 C   0  0  0  0  0  0  0  0  0  0  0  0
    3.4410   -5.3940    2.5344 C   0  0  1  0  0  0  0  0  0  0  0  0
    2.9157   -6.8042    2.8463 C   0  0  2  0  0  0  0  0  0  0  0  0
    2.7719   -7.6326    1.5486 C   0  0  1  0  0  0  0  0  0  0  0  0
    4.0439   -7.8618    0.9458 O   0  0  0  0  0  0  0  0  0  0  0  0
    2.1934   -9.0013    1.8735 C   0  0  0  0  0  0  0  0  0  0  0  0
    0.8214   -8.9053    2.5841 C   0  0  1  0  0  0  0  0  0  0  0  0
    0.2321  -10.3094    2.8632 C   0  0  0  0  0  0  0  0  0  0  0  0
    0.9137  -11.0392    4.0445 C   0  0  1  0  0  0  0  0  0  0  0  0
    2.2243  -11.4722    3.7090 O   0  0  0  0  0  0  0  0  0  0  0  0
    0.9753  -10.1544    5.2967 C   0  0  0  0  0  0  0  0  0  0  0  0
    1.6019   -8.7779    5.0145 C   0  0  0  0  0  0  0  0  0  0  0  0
    0.8548   -8.0297    3.8729 C   0  0  2  0  0  0  0  0  0  0  0  0
   -0.5976   -7.7535    4.3364 C   0  0  0  0  0  0  0  0  0  0  0  0
    1.5042   -6.6556    3.5377 C   0  0  1  0  0  0  0  0  0  0  0  0
    1.5079   -5.6791    4.7535 C   0  0  0  0  0  0  0  0  0  0  0  0
    2.0887   -4.3149    4.3856 C   0  0  0  0  0  0  0  0  0  0  0  0
    3.4922   -4.4899    3.7597 C   0  0  2  0  0  0  0  0  0  0  0  0
    4.4433   -5.1158    4.8342 C   0  0  0  0  0  0  0  0  0  0  0  0
    2.8330   -4.2019   -3.9191 H   0  0  0  0  0  0  0  0  0  0  0  0
    3.8819   -3.0345   -4.7206 H   0  0  0  0  0  0  0  0  0  0  0  0
    2.3646   -2.5052   -3.9950 H   0  0  0  0  0  0  0  0  0  0  0  0
    4.2332   -1.8610   -2.5458 H   0  0  0  0  0  0  0  0  0  0  0  0
    5.0054   -4.8170   -2.4462 H   0  0  0  0  0  0  0  0  0  0  0  0
    5.8174   -3.5247   -1.5681 H   0  0  0  0  0  0  0  0  0  0  0  0
    5.8920   -3.5538   -3.3075 H   0  0  0  0  0  0  0  0  0  0  0  0
    2.0129   -2.6610   -1.5347 H   0  0  0  0  0  0  0  0  0  0  0  0
    2.7950   -4.2046   -1.2346 H   0  0  0  0  0  0  0  0  0  0  0  0
    4.3605   -3.3216    0.0257 H   0  0  0  0  0  0  0  0  0  0  0  0
    4.0125   -1.6181   -0.2005 H   0  0  0  0  0  0  0  0  0  0  0  0
    1.7866   -1.8885    0.9136 H   0  0  0  0  0  0  0  0  0  0  0  0
    2.0225   -3.5146    1.1518 H   0  0  0  0  0  0  0  0  0  0  0  0
    2.3555   -2.0410    3.2016 H   0  0  0  0  0  0  0  0  0  0  0  0
    4.6328   -0.7329    1.7793 H   0  0  0  0  0  0  0  0  0  0  0  0
    4.1754   -0.4755    3.4683 H   0  0  0  0  0  0  0  0  0  0  0  0
    3.0308   -0.0665    2.1751 H   0  0  0  0  0  0  0  0  0  0  0  0
    4.6490   -2.6805    4.0663 H   0  0  0  0  0  0  0  0  0  0  0  0
    5.4689   -3.0018    1.5222 H   0  0  0  0  0  0  0  0  0  0  0  0
    6.2365   -3.7842    2.7690 H   0  0  0  0  0  0  0  0  0  0  0  0
    4.8045   -5.3457    0.8173 H   0  0  0  0  0  0  0  0  0  0  0  0
    5.5288   -5.9030    2.3042 H   0  0  0  0  0  0  0  0  0  0  0  0
    2.7023   -5.1006    1.8283 H   0  0  0  0  0  0  0  0  0  0  0  0
    3.6073   -7.3329    3.5096 H   0  0  0  0  0  0  0  0  0  0  0  0
    2.1269   -7.1122    0.8424 H   0  0  0  0  0  0  0  0  0  0  0  0
    4.5773   -8.3282    1.5481 H   0  0  0  0  0  0  0  0  0  0  0  0
    2.1066   -9.5850    0.9586 H   0  0  0  0  0  0  0  0  0  0  0  0
    2.9322   -9.5026    2.4917 H   0  0  0  0  0  0  0  0  0  0  0  0
    0.1589   -8.4092    1.8724 H   0  0  0  0  0  0  0  0  0  0  0  0
   -0.8298  -10.2121    3.0917 H   0  0  0  0  0  0  0  0  0  0  0  0
    0.2278  -10.9178    1.9623 H   0  0  0  0  0  0  0  0  0  0  0  0
    0.3565  -11.9488    4.2703 H   0  0  0  0  0  0  0  0  0  0  0  0
    2.1706  -12.1345    3.0618 H   0  0  0  0  0  0  0  0  0  0  0  0
   -0.0321  -10.0255    5.6955 H   0  0  0  0  0  0  0  0  0  0  0  0
    1.5248  -10.6583    6.0893 H   0  0  0  0  0  0  0  0  0  0  0  0
    1.5803   -8.2005    5.9362 H   0  0  0  0  0  0  0  0  0  0  0  0
    2.6573   -8.9123    4.7820 H   0  0  0  0  0  0  0  0  0  0  0  0
   -0.6169   -7.2983    5.3270 H   0  0  0  0  0  0  0  0  0  0  0  0
   -1.1962   -8.6537    4.4412 H   0  0  0  0  0  0  0  0  0  0  0  0
   -1.1207   -7.1070    3.6287 H   0  0  0  0  0  0  0  0  0  0  0  0
    0.8485   -6.1792    2.8007 H   0  0  0  0  0  0  0  0  0  0  0  0
    0.5112   -5.5018    5.1525 H   0  0  0  0  0  0  0  0  0  0  0  0
    2.0714   -6.0960    5.5843 H   0  0  0  0  0  0  0  0  0  0  0  0
    1.3840   -3.8525    3.6962 H   0  0  0  0  0  0  0  0  0  0  0  0
    2.1377   -3.6620    5.2628 H   0  0  0  0  0  0  0  0  0  0  0  0
    4.1281   -6.1110    5.1615 H   0  0  0  0  0  0  0  0  0  0  0  0
    4.5157   -4.4874    5.7335 H   0  0  0  0  0  0  0  0  0  0  0  0
    5.4554   -5.2700    4.4468 H   0  0  0  0  0  0  0  0  0  0  0  0
  1  2  1  0
  1 30  1  0
  1 31  1  0
  1 32  1  0
  2  3  1  0
  2  4  1  0
  2 33  1  0
  3 34  1  0
  3 35  1  0
  3 36  1  0
  4  5  1  0
  4 37  1  0
  4 38  1  0
  5  6  1  0
  5 39  1  0
  5 40  1  0
  6  7  1  0
  6 41  1  0
  6 42  1  0
  7  8  1  0
  7  9  1  0
  7 43  1  1
  8 44  1  0
  8 45  1  0
  8 46  1  0
  9 28  1  0
  9 10  1  0
  9 47  1  1
 10 11  1  0
 10 48  1  0
 10 49  1  0
 11 12  1  0
 11 50  1  0
 11 51  1  0
 12 28  1  0
 12 13  1  0
 12 52  1  6
 13 25  1  0
 13 14  1  0
 13 53  1  1
 14 15  1  0
 14 16  1  0
 14 54  1  6
 15 55  1  0
 16 17  1  0
 16 56  1  0
 16 57  1  0
 17 23  1  0
 17 18  1  0
 17 58  1  6
 18 19  1  0
 18 59  1  0
 18 60  1  0
 19 20  1  0
 19 21  1  0
 19 61  1  1
 20 62  1  0
 21 22  1  0
 21 63  1  0
 21 64  1  0
 22 23  1  0
 22 65  1  0
 22 66  1  0
 23 24  1  1
 23 25  1  0
 24 67  1  0
 24 68  1  0
 24 69  1  0
 25 26  1  0
 25 70  1  6
 26 27  1  0
 26 71  1  0
 26 72  1  0
 27 28  1  0
 27 73  1  0
 27 74  1  0
 28 29  1  1
 29 75  1  0
 29 76  1  0
 29 77  1  0
M  END
>  <i_m_ct_stereo_status>  (323) 
1

>  <s_m_source_file>  (323) 
/var/tmp/pbs.5076255.sched01/tmp0q3ly_rt/135fqi89qhj.sdf

>  <i_m_source_file_index>  (323) 
2

>  <i_lp_mmshare_version>  (323) 
48012

>  <i_f3d_flags>  (323) 
0

>  <s_epik_input>  (323) 
W0NIM11bQ0hdKFtDSDNdKVtDSDJdW0NIMl1bQ0gyXVtDQEhdKFtDSDNdKVtDQEhdKFtDSDJdW0NIMl0xKVtDQEBdKFtDSDNdKShbQ0gyXVtDSDJdW0NAQEhdMjMpW0NAQEhdMVtDQEBIXTJbQ0BASF0oW09IXSlbQ0gyXVtDQEhdKFtDQF0zNFtDSDNdKVtDSDJdW0NAQEhdKFtPSF0pW0NIMl1bQ0gyXTQ=

>  <s_epik_cmdline>  (323) 
J2VwaWtfcHl0aG9uJywgJy1waHQnLCAnMi4wJywgJy1waCcsICc3LjAnLCAnLXRuJywgJzgnLCAnLW1hJywgJzIwMCcsICctaW1hZScsICc8aW5maWxlLm1hZT4nLCAnLW9tYWUnLCAnPG91dGZpbGUubWFlPic=

>  <r_lp_tautomer_probability>  (323) 
1

>  <r_epik_Ionization_Penalty>  (323) 
5.23123e-06

>  <r_epik_Ionization_Penalty_Charging>  (323) 
0

>  <r_epik_Ionization_Penalty_Neutral>  (323) 
5.23123e-06

>  <r_epik_State_Penalty>  (323) 
-0

>  <r_epik_Charging_Adjusted_Penalty>  (323) 
0

>  <i_epik_Tot_Q>  (323) 
0

>  <i_epik_Tot_abs_Q>  (323) 
0

>  <s_lp_Force_Field>  (323) 
OPLS3e

>  <r_lp_Energy>  (323) 
58.4537

>  <b_lp_Chiralities_Consistent>  (323) 
1

>  <s_lp_Variant>  (323) 
86:0-1

>  <s_i_glide_gridfile>  (323) 
pfpi4k_grid

>  <i_i_glide_lignum>  (323) 
2

>  <i_i_glide_rotatable_bonds>  (323) 
7

>  <r_i_docking_score>  (323) 
-2.15622

>  <r_i_glide_ligand_efficiency>  (323) 
-0.0743526

>  <r_i_glide_ligand_efficiency_sa>  (323) 
-0.228435

>  <r_i_glide_ligand_efficiency_ln>  (323) 
-0.493721

>  <r_i_glide_gscore>  (323) 
-2.15622

>  <r_i_glide_lipo>  (323) 
-0.464291

>  <r_i_glide_hbond>  (323) 
0

>  <r_i_glide_metal>  (323) 
-0

>  <r_i_glide_rewards>  (323) 
-0.649985

>  <r_i_glide_evdw>  (323) 
-25.7772

>  <r_i_glide_ecoul>  (323) 
-1.55302

>  <r_i_glide_erotb>  (323) 
0.479866

>  <r_i_glide_esite>  (323) 
0

>  <r_i_glide_emodel>  (323) 
-27.7908

>  <r_i_glide_energy>  (323) 
-27.3302

>  <r_i_glide_einternal>  (323) 
2.00963

>  <r_i_glide_intrahb_reward>  (323) 
-0

>  <i_i_glide_confnum>  (323) 
2

>  <i_i_glide_posenum>  (323) 
32

>  <r_i_glide_eff_state_penalty>  (323) 
0

>  <ligand_id>  (323) 
86

>  <original_smiles>  (323) 
CC(C)CCCC(C)C1CCC2C3C(O)CC4CC(O)CCC4(C)C3CCC12C

>  <smiles>  (323) 
[H]OC1([H])C([H])([H])C([H])([H])C2(C([H])([H])[H])C([H])(C1([H])[H])C([H])([H])C([H])(O[H])C1([H])C2([H])C([H])([H])C([H])([H])C2(C([H])([H])[H])C([H])(C([H])(C([H])([H])[H])C([H])([H])C([H])([H])C([H])([H])C([H])(C([H])([H])[H])C([H])([H])[H])C([H])([H])C([H])([H])C12[H]

$$$$
86:0:1
     RDKit          3D

 77 80  0  0  1  0  0  0  0  0999 V2000
    3.3513   -3.1549   -3.8905 C   0  0  0  0  0  0  0  0  0  0  0  0
    4.0400   -2.8220   -2.5562 C   0  0  0  0  0  0  0  0  0  0  0  0
    5.3828   -3.5722   -2.4322 C   0  0  0  0  0  0  0  0  0  0  0  0
    3.0738   -3.0927   -1.3635 C   0  0  0  0  0  0  0  0  0  0  0  0
    3.6425   -2.5603   -0.0572 C   0  0  0  0  0  0  0  0  0  0  0  0
    2.6176   -2.5812    1.1175 C   0  0  0  0  0  0  0  0  0  0  0  0
    3.2079   -2.1578    2.5044 C   0  0  2  0  0  0  0  0  0  0  0  0
    3.8318   -0.7764    2.4471 C   0  0  0  0  0  0  0  0  0  0  0  0
    4.1378   -3.1579    3.2701 C   0  0  2  0  0  0  0  0  0  0  0  0
    5.2633   -3.7186    2.4064 C   0  0  0  0  0  0  0  0  0  0  0  0
    4.8463   -5.1720    2.0555 C   0  0  0  0  0  0  0  0  0  0  0  0
    3.4213   -5.3586    2.6111 C   0  0  1  0  0  0  0  0  0  0  0  0
    2.8694   -6.7512    2.9491 C   0  0  2  0  0  0  0  0  0  0  0  0
    2.7719   -7.6048    1.6588 C   0  0  1  0  0  0  0  0  0  0  0  0
    4.0589   -7.8232    1.1200 O   0  0  0  0  0  0  0  0  0  0  0  0
    2.1659   -8.9690    1.9876 C   0  0  0  0  0  0  0  0  0  0  0  0
    0.7630   -8.8413    2.6209 C   0  0  1  0  0  0  0  0  0  0  0  0
    0.1439  -10.2256    2.9066 C   0  0  0  0  0  0  0  0  0  0  0  0
    0.7611  -10.9343    4.1340 C   0  0  1  0  0  0  0  0  0  0  0  0
    2.0670  -11.3722    3.8480 O   0  0  0  0  0  0  0  0  0  0  0  0
    0.7691  -10.0193    5.3741 C   0  0  0  0  0  0  0  0  0  0  0  0
    1.4173   -8.6555    5.0886 C   0  0  0  0  0  0  0  0  0  0  0  0
    0.7364   -7.9319    3.8905 C   0  0  2  0  0  0  0  0  0  0  0  0
   -0.7371   -7.6272    4.2695 C   0  0  0  0  0  0  0  0  0  0  0  0
    1.4239   -6.5664    3.5539 C   0  0  1  0  0  0  0  0  0  0  0  0
    1.3683   -5.5613    4.7431 C   0  0  0  0  0  0  0  0  0  0  0  0
    1.9813   -4.2130    4.3621 C   0  0  0  0  0  0  0  0  0  0  0  0
    3.4269   -4.4113    3.8217 C   0  0  2  0  0  0  0  0  0  0  0  0
    4.2970   -5.0140    4.9554 C   0  0  0  0  0  0  0  0  0  0  0  0
    3.0448   -4.2013   -3.9192 H   0  0  0  0  0  0  0  0  0  0  0  0
    4.0276   -2.9731   -4.7210 H   0  0  0  0  0  0  0  0  0  0  0  0
    2.4620   -2.5374   -4.0271 H   0  0  0  0  0  0  0  0  0  0  0  0
    4.2604   -1.7539   -2.5551 H   0  0  0  0  0  0  0  0  0  0  0  0
    5.2249   -4.6516   -2.4036 H   0  0  0  0  0  0  0  0  0  0  0  0
    5.9339   -3.2978   -1.5333 H   0  0  0  0  0  0  0  0  0  0  0  0
    6.0400   -3.3475   -3.2677 H   0  0  0  0  0  0  0  0  0  0  0  0
    2.1038   -2.6636   -1.5502 H   0  0  0  0  0  0  0  0  0  0  0  0
    2.9235   -4.1687   -1.2676 H   0  0  0  0  0  0  0  0  0  0  0  0
    4.4499   -3.2523    0.0559 H   0  0  0  0  0  0  0  0  0  0  0  0
    4.0574   -1.5788   -0.1977 H   0  0  0  0  0  0  0  0  0  0  0  0
    1.8338   -1.9190    0.8735 H   0  0  0  0  0  0  0  0  0  0  0  0
    2.1160   -3.4966    1.1059 H   0  0  0  0  0  0  0  0  0  0  0  0
    2.3406   -1.9645    3.1516 H   0  0  0  0  0  0  0  0  0  0  0  0
    4.7103   -0.7403    1.7764 H   0  0  0  0  0  0  0  0  0  0  0  0
    4.1813   -0.4105    3.4294 H   0  0  0  0  0  0  0  0  0  0  0  0
    3.1059   -0.0292    2.0743 H   0  0  0  0  0  0  0  0  0  0  0  0
    4.5715   -2.6104    4.1327 H   0  0  0  0  0  0  0  0  0  0  0  0
    5.5106   -3.0353    1.6381 H   0  0  0  0  0  0  0  0  0  0  0  0
    6.1958   -3.7566    2.9479 H   0  0  0  0  0  0  0  0  0  0  0  0
    4.8709   -5.3415    0.9700 H   0  0  0  0  0  0  0  0  0  0  0  0
    5.5081   -5.8733    2.4967 H   0  0  0  0  0  0  0  0  0  0  0  0
    2.7292   -5.0924    1.8871 H   0  0  0  0  0  0  0  0  0  0  0  0
    3.5069   -7.2703    3.6450 H   0  0  0  0  0  0  0  0  0  0  0  0
    2.1741   -7.1121    0.8897 H   0  0  0  0  0  0  0  0  0  0  0  0
    4.4321   -6.9751    0.9141 H   0  0  0  0  0  0  0  0  0  0  0  0
    2.1237   -9.5733    1.0817 H   0  0  0  0  0  0  0  0  0  0  0  0
    2.8752   -9.4524    2.6534 H   0  0  0  0  0  0  0  0  0  0  0  0
    0.1427   -8.3546    1.8646 H   0  0  0  0  0  0  0  0  0  0  0  0
   -0.9278  -10.1136    3.0761 H   0  0  0  0  0  0  0  0  0  0  0  0
    0.2029  -10.8609    2.0258 H   0  0  0  0  0  0  0  0  0  0  0  0
    0.1839  -11.8306    4.3581 H   0  0  0  0  0  0  0  0  0  0  0  0
    2.3850  -11.8846    4.5803 H   0  0  0  0  0  0  0  0  0  0  0  0
   -0.2560   -9.8629    5.7176 H   0  0  0  0  0  0  0  0  0  0  0  0
    1.2666  -10.5081    6.2101 H   0  0  0  0  0  0  0  0  0  0  0  0
    1.3542   -8.0494    5.9909 H   0  0  0  0  0  0  0  0  0  0  0  0
    2.4803   -8.8000    4.9108 H   0  0  0  0  0  0  0  0  0  0  0  0
   -0.8040   -7.1410    5.2404 H   0  0  0  0  0  0  0  0  0  0  0  0
   -1.3469   -8.5168    4.3632 H   0  0  0  0  0  0  0  0  0  0  0  0
   -1.2133   -6.9944    3.5220 H   0  0  0  0  0  0  0  0  0  0  0  0
    0.8108   -6.1101    2.7705 H   0  0  0  0  0  0  0  0  0  0  0  0
    0.3528   -5.3613    5.0768 H   0  0  0  0  0  0  0  0  0  0  0  0
    1.8853   -5.9605    5.6124 H   0  0  0  0  0  0  0  0  0  0  0  0
    1.3288   -3.7579    3.6286 H   0  0  0  0  0  0  0  0  0  0  0  0
    1.9926   -3.5360    5.2301 H   0  0  0  0  0  0  0  0  0  0  0  0
    3.9624   -6.0035    5.3034 H   0  0  0  0  0  0  0  0  0  0  0  0
    4.3378   -4.3702    5.8450 H   0  0  0  0  0  0  0  0  0  0  0  0
    5.3342   -5.1892    4.6381 H   0  0  0  0  0  0  0  0  0  0  0  0
  1  2  1  0
  1 30  1  0
  1 31  1  0
  1 32  1  0
  2  3  1  0
  2  4  1  0
  2 33  1  0
  3 34  1  0
  3 35  1  0
  3 36  1  0
  4  5  1  0
  4 37  1  0
  4 38  1  0
  5  6  1  0
  5 39  1  0
  5 40  1  0
  6  7  1  0
  6 41  1  0
  6 42  1  0
  7  8  1  0
  7  9  1  0
  7 43  1  1
  8 44  1  0
  8 45  1  0
  8 46  1  0
  9 28  1  0
  9 10  1  0
  9 47  1  1
 10 11  1  0
 10 48  1  0
 10 49  1  0
 11 12  1  0
 11 50  1  0
 11 51  1  0
 12 28  1  0
 12 13  1  0
 12 52  1  6
 13 25  1  0
 13 14  1  0
 13 53  1  1
 14 15  1  0
 14 16  1  0
 14 54  1  6
 15 55  1  0
 16 17  1  0
 16 56  1  0
 16 57  1  0
 17 23  1  0
 17 18  1  0
 17 58  1  6
 18 19  1  0
 18 59  1  0
 18 60  1  0
 19 20  1  0
 19 21  1  0
 19 61  1  1
 20 62  1  0
 21 22  1  0
 21 63  1  0
 21 64  1  0
 22 23  1  0
 22 65  1  0
 22 66  1  0
 23 24  1  1
 23 25  1  0
 24 67  1  0
 24 68  1  0
 24 69  1  0
 25 26  1  0
 25 70  1  6
 26 27  1  0
 26 71  1  0
 26 72  1  0
 27 28  1  0
 27 73  1  0
 27 74  1  0
 28 29  1  1
 29 75  1  0
 29 76  1  0
 29 77  1  0
M  END
>  <i_m_ct_stereo_status>  (324) 
1

>  <s_m_source_file>  (324) 
/var/tmp/pbs.5076255.sched01/tmp0q3ly_rt/135fqi89qhj.sdf

>  <i_m_source_file_index>  (324) 
2

>  <i_lp_mmshare_version>  (324) 
48012

>  <i_f3d_flags>  (324) 
0

>  <s_epik_input>  (324) 
W0NIM11bQ0hdKFtDSDNdKVtDSDJdW0NIMl1bQ0gyXVtDQEhdKFtDSDNdKVtDQEhdKFtDSDJdW0NIMl0xKVtDQEBdKFtDSDNdKShbQ0gyXVtDSDJdW0NAQEhdMjMpW0NAQEhdMVtDQEBIXTJbQ0BASF0oW09IXSlbQ0gyXVtDQEhdKFtDQF0zNFtDSDNdKVtDSDJdW0NAQEhdKFtPSF0pW0NIMl1bQ0gyXTQ=

>  <s_epik_cmdline>  (324) 
J2VwaWtfcHl0aG9uJywgJy1waHQnLCAnMi4wJywgJy1waCcsICc3LjAnLCAnLXRuJywgJzgnLCAnLW1hJywgJzIwMCcsICctaW1hZScsICc8aW5maWxlLm1hZT4nLCAnLW9tYWUnLCAnPG91dGZpbGUubWFlPic=

>  <r_lp_tautomer_probability>  (324) 
1

>  <r_epik_Ionization_Penalty>  (324) 
5.23123e-06

>  <r_epik_Ionization_Penalty_Charging>  (324) 
0

>  <r_epik_Ionization_Penalty_Neutral>  (324) 
5.23123e-06

>  <r_epik_State_Penalty>  (324) 
-0

>  <r_epik_Charging_Adjusted_Penalty>  (324) 
0

>  <i_epik_Tot_Q>  (324) 
0

>  <i_epik_Tot_abs_Q>  (324) 
0

>  <s_lp_Force_Field>  (324) 
OPLS3e

>  <r_lp_Energy>  (324) 
58.4537

>  <b_lp_Chiralities_Consistent>  (324) 
1

>  <s_lp_Variant>  (324) 
86:0-1

>  <s_i_glide_gridfile>  (324) 
pfpi4k_grid

>  <i_i_glide_lignum>  (324) 
2

>  <i_i_glide_rotatable_bonds>  (324) 
7

>  <r_i_docking_score>  (324) 
-2.00614

>  <r_i_glide_ligand_efficiency>  (324) 
-0.0691773

>  <r_i_glide_ligand_efficiency_sa>  (324) 
-0.212534

>  <r_i_glide_ligand_efficiency_ln>  (324) 
-0.459355

>  <r_i_glide_gscore>  (324) 
-2.00614

>  <r_i_glide_lipo>  (324) 
-0.41982

>  <r_i_glide_hbond>  (324) 
0

>  <r_i_glide_metal>  (324) 
-0

>  <r_i_glide_rewards>  (324) 
-0.649985

>  <r_i_glide_evdw>  (324) 
-26.1119

>  <r_i_glide_ecoul>  (324) 
-0.737386

>  <r_i_glide_erotb>  (324) 
0.479866

>  <r_i_glide_esite>  (324) 
0

>  <r_i_glide_emodel>  (324) 
-27.5559

>  <r_i_glide_energy>  (324) 
-26.8492

>  <r_i_glide_einternal>  (324) 
2.19279

>  <r_i_glide_intrahb_reward>  (324) 
-0

>  <i_i_glide_confnum>  (324) 
2

>  <i_i_glide_posenum>  (324) 
20

>  <r_i_glide_eff_state_penalty>  (324) 
0

>  <ligand_id>  (324) 
86

>  <original_smiles>  (324) 
CC(C)CCCC(C)C1CCC2C3C(O)CC4CC(O)CCC4(C)C3CCC12C

>  <smiles>  (324) 
[H]OC1([H])C([H])([H])C([H])([H])C2(C([H])([H])[H])C([H])(C1([H])[H])C([H])([H])C([H])(O[H])C1([H])C2([H])C([H])([H])C([H])([H])C2(C([H])([H])[H])C([H])(C([H])(C([H])([H])[H])C([H])([H])C([H])([H])C([H])([H])C([H])(C([H])([H])[H])C([H])([H])[H])C([H])([H])C([H])([H])C12[H]

$$$$
86:0:2
     RDKit          3D

 77 80  0  0  1  0  0  0  0  0999 V2000
    3.4481   -3.1855   -3.8957 C   0  0  0  0  0  0  0  0  0  0  0  0
    4.1065   -2.8302   -2.5598 C   0  0  0  0  0  0  0  0  0  0  0  0
    5.4516   -3.5741   -2.3986 C   0  0  0  0  0  0  0  0  0  0  0  0
    3.1391   -3.0855   -1.3849 C   0  0  0  0  0  0  0  0  0  0  0  0
    3.6754   -2.5441   -0.0716 C   0  0  0  0  0  0  0  0  0  0  0  0
    2.6709   -2.6032    1.0964 C   0  0  0  0  0  0  0  0  0  0  0  0
    3.1976   -2.1582    2.4939 C   0  0  2  0  0  0  0  0  0  0  0  0
    3.8515   -0.7628    2.4194 C   0  0  0  0  0  0  0  0  0  0  0  0
    4.1098   -3.1424    3.3038 C   0  0  2  0  0  0  0  0  0  0  0  0
    5.2408   -3.7294    2.4620 C   0  0  0  0  0  0  0  0  0  0  0  0
    4.8268   -5.1781    2.1124 C   0  0  0  0  0  0  0  0  0  0  0  0
    3.3964   -5.3563    2.6650 C   0  0  1  0  0  0  0  0  0  0  0  0
    2.8199   -6.7403    2.9836 C   0  0  2  0  0  0  0  0  0  0  0  0
    2.7679   -7.6151    1.7102 C   0  0  1  0  0  0  0  0  0  0  0  0
    4.0774   -7.8843    1.2204 O   0  0  0  0  0  0  0  0  0  0  0  0
    2.1423   -8.9580    2.0428 C   0  0  0  0  0  0  0  0  0  0  0  0
    0.7213   -8.8136    2.6394 C   0  0  1  0  0  0  0  0  0  0  0  0
    0.0867  -10.1944    2.9306 C   0  0  0  0  0  0  0  0  0  0  0  0
    0.6619  -10.8827    4.1819 C   0  0  1  0  0  0  0  0  0  0  0  0
    1.9865  -11.3403    3.9467 O   0  0  0  0  0  0  0  0  0  0  0  0
    0.6431   -9.9526    5.4092 C   0  0  0  0  0  0  0  0  0  0  0  0
    1.3103   -8.5972    5.1188 C   0  0  0  0  0  0  0  0  0  0  0  0
    0.6686   -7.8864    3.8920 C   0  0  2  0  0  0  0  0  0  0  0  0
   -0.8101   -7.5734    4.2248 C   0  0  0  0  0  0  0  0  0  0  0  0
    1.3655   -6.5381    3.5533 C   0  0  1  0  0  0  0  0  0  0  0  0
    1.2890   -5.5080    4.7208 C   0  0  0  0  0  0  0  0  0  0  0  0
    1.9214   -4.1681    4.3466 C   0  0  0  0  0  0  0  0  0  0  0  0
    3.3633   -4.3925    3.8450 C   0  0  2  0  0  0  0  0  0  0  0  0
    4.2170   -4.9841    5.0125 C   0  0  0  0  0  0  0  0  0  0  0  0
    3.1445   -4.2319   -3.9226 H   0  0  0  0  0  0  0  0  0  0  0  0
    4.1361   -3.0181   -4.7169 H   0  0  0  0  0  0  0  0  0  0  0  0
    2.5609   -2.5755   -4.0662 H   0  0  0  0  0  0  0  0  0  0  0  0
    4.3280   -1.7603   -2.5677 H   0  0  0  0  0  0  0  0  0  0  0  0
    5.2967   -4.6533   -2.3556 H   0  0  0  0  0  0  0  0  0  0  0  0
    5.9886   -3.2833   -1.4959 H   0  0  0  0  0  0  0  0  0  0  0  0
    6.1243   -3.3579   -3.2258 H   0  0  0  0  0  0  0  0  0  0  0  0
    2.1625   -2.6359   -1.5709 H   0  0  0  0  0  0  0  0  0  0  0  0
    2.9715   -4.1636   -1.2682 H   0  0  0  0  0  0  0  0  0  0  0  0
    4.5193   -3.2073    0.0575 H   0  0  0  0  0  0  0  0  0  0  0  0
    4.0567   -1.5232   -0.1953 H   0  0  0  0  0  0  0  0  0  0  0  0
    1.8089   -1.9801    0.8747 H   0  0  0  0  0  0  0  0  0  0  0  0
    2.1968   -3.5640    1.0755 H   0  0  0  0  0  0  0  0  0  0  0  0
    2.3319   -1.9441    3.1178 H   0  0  0  0  0  0  0  0  0  0  0  0
    4.7320   -0.7712    1.7725 H   0  0  0  0  0  0  0  0  0  0  0  0
    4.1784   -0.3988    3.4037 H   0  0  0  0  0  0  0  0  0  0  0  0
    3.1301   -0.0398    2.0153 H   0  0  0  0  0  0  0  0  0  0  0  0
    4.5312   -2.5899    4.1536 H   0  0  0  0  0  0  0  0  0  0  0  0
    5.4988   -3.0628    1.6612 H   0  0  0  0  0  0  0  0  0  0  0  0
    6.1927   -3.7494    3.0056 H   0  0  0  0  0  0  0  0  0  0  0  0
    4.8830   -5.3904    1.0459 H   0  0  0  0  0  0  0  0  0  0  0  0
    5.4865   -5.8916    2.6150 H   0  0  0  0  0  0  0  0  0  0  0  0
    2.7071   -5.0991    1.8938 H   0  0  0  0  0  0  0  0  0  0  0  0
    3.4513   -7.2421    3.7212 H   0  0  0  0  0  0  0  0  0  0  0  0
    2.1970   -7.1254    0.9188 H   0  0  0  0  0  0  0  0  0  0  0  0
    4.5540   -8.3346    1.8802 H   0  0  0  0  0  0  0  0  0  0  0  0
    2.1152   -9.5824    1.1511 H   0  0  0  0  0  0  0  0  0  0  0  0
    2.8228   -9.4424    2.7374 H   0  0  0  0  0  0  0  0  0  0  0  0
    0.1258   -8.3403    1.8579 H   0  0  0  0  0  0  0  0  0  0  0  0
   -0.9872  -10.0735    3.0680 H   0  0  0  0  0  0  0  0  0  0  0  0
    0.1579  -10.8429    2.0594 H   0  0  0  0  0  0  0  0  0  0  0  0
    0.0879  -11.7823    4.4009 H   0  0  0  0  0  0  0  0  0  0  0  0
    2.2644  -11.8484    4.6628 H   0  0  0  0  0  0  0  0  0  0  0  0
   -0.3900   -9.7847    5.7188 H   0  0  0  0  0  0  0  0  0  0  0  0
    1.1098  -10.4315    6.2663 H   0  0  0  0  0  0  0  0  0  0  0  0
    1.2243   -7.9783    6.0109 H   0  0  0  0  0  0  0  0  0  0  0  0
    2.3789   -8.7549    4.9763 H   0  0  0  0  0  0  0  0  0  0  0  0
   -0.9015   -7.0767    5.1905 H   0  0  0  0  0  0  0  0  0  0  0  0
   -1.4276   -8.4614    4.3167 H   0  0  0  0  0  0  0  0  0  0  0  0
   -1.2636   -6.9523    3.4512 H   0  0  0  0  0  0  0  0  0  0  0  0
    0.7764   -6.0846    2.7465 H   0  0  0  0  0  0  0  0  0  0  0  0
    0.2680   -5.3050    5.0338 H   0  0  0  0  0  0  0  0  0  0  0  0
    1.7804   -5.8972    5.6089 H   0  0  0  0  0  0  0  0  0  0  0  0
    1.2832   -3.7205    3.5824 H   0  0  0  0  0  0  0  0  0  0  0  0
    1.9121   -3.4812    5.1967 H   0  0  0  0  0  0  0  0  0  0  0  0
    3.8572   -5.9579    5.3497 H   0  0  0  0  0  0  0  0  0  0  0  0
    4.2276   -4.3226    5.8849 H   0  0  0  0  0  0  0  0  0  0  0  0
    5.2500   -5.1689    4.7099 H   0  0  0  0  0  0  0  0  0  0  0  0
  1  2  1  0
  1 30  1  0
  1 31  1  0
  1 32  1  0
  2  3  1  0
  2  4  1  0
  2 33  1  0
  3 34  1  0
  3 35  1  0
  3 36  1  0
  4  5  1  0
  4 37  1  0
  4 38  1  0
  5  6  1  0
  5 39  1  0
  5 40  1  0
  6  7  1  0
  6 41  1  0
  6 42  1  0
  7  8  1  0
  7  9  1  0
  7 43  1  1
  8 44  1  0
  8 45  1  0
  8 46  1  0
  9 28  1  0
  9 10  1  0
  9 47  1  1
 10 11  1  0
 10 48  1  0
 10 49  1  0
 11 12  1  0
 11 50  1  0
 11 51  1  0
 12 28  1  0
 12 13  1  0
 12 52  1  6
 13 25  1  0
 13 14  1  0
 13 53  1  1
 14 15  1  0
 14 16  1  0
 14 54  1  6
 15 55  1  0
 16 17  1  0
 16 56  1  0
 16 57  1  0
 17 23  1  0
 17 18  1  0
 17 58  1  6
 18 19  1  0
 18 59  1  0
 18 60  1  0
 19 20  1  0
 19 21  1  0
 19 61  1  1
 20 62  1  0
 21 22  1  0
 21 63  1  0
 21 64  1  0
 22 23  1  0
 22 65  1  0
 22 66  1  0
 23 24  1  1
 23 25  1  0
 24 67  1  0
 24 68  1  0
 24 69  1  0
 25 26  1  0
 25 70  1  6
 26 27  1  0
 26 71  1  0
 26 72  1  0
 27 28  1  0
 27 73  1  0
 27 74  1  0
 28 29  1  1
 29 75  1  0
 29 76  1  0
 29 77  1  0
M  END
>  <i_m_ct_stereo_status>  (325) 
1

>  <s_m_source_file>  (325) 
/var/tmp/pbs.5076255.sched01/tmp0q3ly_rt/135fqi89qhj.sdf

>  <i_m_source_file_index>  (325) 
2

>  <i_lp_mmshare_version>  (325) 
48012

>  <i_f3d_flags>  (325) 
0

>  <s_epik_input>  (325) 
W0NIM11bQ0hdKFtDSDNdKVtDSDJdW0NIMl1bQ0gyXVtDQEhdKFtDSDNdKVtDQEhdKFtDSDJdW0NIMl0xKVtDQEBdKFtDSDNdKShbQ0gyXVtDSDJdW0NAQEhdMjMpW0NAQEhdMVtDQEBIXTJbQ0BASF0oW09IXSlbQ0gyXVtDQEhdKFtDQF0zNFtDSDNdKVtDSDJdW0NAQEhdKFtPSF0pW0NIMl1bQ0gyXTQ=

>  <s_epik_cmdline>  (325) 
J2VwaWtfcHl0aG9uJywgJy1waHQnLCAnMi4wJywgJy1waCcsICc3LjAnLCAnLXRuJywgJzgnLCAnLW1hJywgJzIwMCcsICctaW1hZScsICc8aW5maWxlLm1hZT4nLCAnLW9tYWUnLCAnPG91dGZpbGUubWFlPic=

>  <r_lp_tautomer_probability>  (325) 
1

>  <r_epik_Ionization_Penalty>  (325) 
5.23123e-06

>  <r_epik_Ionization_Penalty_Charging>  (325) 
0

>  <r_epik_Ionization_Penalty_Neutral>  (325) 
5.23123e-06

>  <r_epik_State_Penalty>  (325) 
-0

>  <r_epik_Charging_Adjusted_Penalty>  (325) 
0

>  <i_epik_Tot_Q>  (325) 
0

>  <i_epik_Tot_abs_Q>  (325) 
0

>  <s_lp_Force_Field>  (325) 
OPLS3e

>  <r_lp_Energy>  (325) 
58.4537

>  <b_lp_Chiralities_Consistent>  (325) 
1

>  <s_lp_Variant>  (325) 
86:0-1

>  <s_i_glide_gridfile>  (325) 
pfpi4k_grid

>  <i_i_glide_lignum>  (325) 
2

>  <i_i_glide_rotatable_bonds>  (325) 
7

>  <r_i_docking_score>  (325) 
-1.98321

>  <r_i_glide_ligand_efficiency>  (325) 
-0.0683866

>  <r_i_glide_ligand_efficiency_sa>  (325) 
-0.210105

>  <r_i_glide_ligand_efficiency_ln>  (325) 
-0.454105

>  <r_i_glide_gscore>  (325) 
-1.98321

>  <r_i_glide_lipo>  (325) 
-0.396031

>  <r_i_glide_hbond>  (325) 
0

>  <r_i_glide_metal>  (325) 
-0

>  <r_i_glide_rewards>  (325) 
-0.649985

>  <r_i_glide_evdw>  (325) 
-25.998

>  <r_i_glide_ecoul>  (325) 
-0.781075

>  <r_i_glide_erotb>  (325) 
0.479866

>  <r_i_glide_esite>  (325) 
0

>  <r_i_glide_emodel>  (325) 
-26.9964

>  <r_i_glide_energy>  (325) 
-26.7791

>  <r_i_glide_einternal>  (325) 
2.06761

>  <r_i_glide_intrahb_reward>  (325) 
-0

>  <i_i_glide_confnum>  (325) 
2

>  <i_i_glide_posenum>  (325) 
1

>  <r_i_glide_eff_state_penalty>  (325) 
0

>  <ligand_id>  (325) 
86

>  <original_smiles>  (325) 
CC(C)CCCC(C)C1CCC2C3C(O)CC4CC(O)CCC4(C)C3CCC12C

>  <smiles>  (325) 
[H]OC1([H])C([H])([H])C([H])([H])C2(C([H])([H])[H])C([H])(C1([H])[H])C([H])([H])C([H])(O[H])C1([H])C2([H])C([H])([H])C([H])([H])C2(C([H])([H])[H])C([H])(C([H])(C([H])([H])[H])C([H])([H])C([H])([H])C([H])([H])C([H])(C([H])([H])[H])C([H])([H])[H])C([H])([H])C([H])([H])C12[H]

$$$$
87:0:0
     RDKit          3D

 48 52  0  0  1  0  0  0  0  0999 V2000
    4.1371   -7.0503    4.4974 C   0  0  0  0  0  0  0  0  0  0  0  0
    5.5671   -6.5534    4.2224 C   0  0  2  0  0  0  0  0  0  0  0  0
    5.7211   -5.0391    4.4680 C   0  0  0  0  0  0  0  0  0  0  0  0
    6.2007   -4.6520    5.5347 O   0  0  0  0  0  0  0  0  0  0  0  0
    5.3119   -3.9874    3.4191 C   0  0  0  0  0  0  0  0  0  0  0  0
    4.3868   -4.4404    2.2797 C   0  0  1  0  0  0  0  0  0  0  0  0
    3.9743   -3.2856    1.5322 O   0  0  0  0  0  0  0  0  0  0  0  0
    3.9803   -3.5346    0.1175 C   0  0  2  0  0  0  0  0  0  0  0  0
    2.6748   -4.2671   -0.2683 C   0  0  0  0  0  0  0  0  0  0  0  0
    1.8371   -3.8280   -1.0544 O   0  0  0  0  0  0  0  0  0  0  0  0
    2.4369   -5.6060    0.4340 C   0  0  0  0  0  0  0  0  0  0  0  0
    3.7567   -6.3437    0.7743 C   0  0  0  0  0  0  0  0  0  0  0  0
    4.9351   -5.4162    1.2019 C   0  0  2  0  0  0  0  0  0  0  0  0
    6.1407   -6.3136    1.5836 C   0  0  1  0  0  0  0  0  0  0  0  0
    7.5762   -5.8355    1.8650 C   0  0  0  0  0  0  0  0  0  0  0  0
    7.7264   -7.0379    2.7920 C   0  0  0  0  0  0  0  0  0  0  0  0
    6.1928   -7.0889    2.9175 C   0  0  1  0  0  0  0  0  0  0  0  0
    5.1821   -4.4674    0.0108 C   0  0  2  0  0  0  0  0  0  0  0  0
    6.4007   -3.5151    0.0058 C   0  0  0  0  0  0  0  0  0  0  0  0
    5.8668   -2.1069   -0.3103 C   0  0  0  0  0  0  0  0  0  0  0  0
    4.3785   -2.2571   -0.6613 C   0  0  1  0  0  0  0  0  0  0  0  0
    4.2053   -2.3071   -2.1962 C   0  0  0  0  0  0  0  0  0  0  0  0
    3.8264   -6.7746    5.5061 H   0  0  0  0  0  0  0  0  0  0  0  0
    4.0891   -8.1361    4.4366 H   0  0  0  0  0  0  0  0  0  0  0  0
    3.3933   -6.6596    3.8119 H   0  0  0  0  0  0  0  0  0  0  0  0
    6.1543   -6.9955    5.0278 H   0  0  0  0  0  0  0  0  0  0  0  0
    4.7985   -3.1982    3.9670 H   0  0  0  0  0  0  0  0  0  0  0  0
    6.1985   -3.5144    3.0052 H   0  0  0  0  0  0  0  0  0  0  0  0
    3.4843   -4.8292    2.7454 H   0  0  0  0  0  0  0  0  0  0  0  0
    1.8566   -5.4218    1.3354 H   0  0  0  0  0  0  0  0  0  0  0  0
    1.8237   -6.2355   -0.2099 H   0  0  0  0  0  0  0  0  0  0  0  0
    3.5527   -7.0809    1.5507 H   0  0  0  0  0  0  0  0  0  0  0  0
    4.0634   -6.9250   -0.0965 H   0  0  0  0  0  0  0  0  0  0  0  0
    6.2563   -7.0595    0.7965 H   0  0  0  0  0  0  0  0  0  0  0  0
    8.2438   -5.8512    1.0010 H   0  0  0  0  0  0  0  0  0  0  0  0
    7.6637   -4.9125    2.4304 H   0  0  0  0  0  0  0  0  0  0  0  0
    8.1421   -7.9112    2.2828 H   0  0  0  0  0  0  0  0  0  0  0  0
    8.2553   -6.8238    3.7216 H   0  0  0  0  0  0  0  0  0  0  0  0
    5.8714   -8.1166    2.7431 H   0  0  0  0  0  0  0  0  0  0  0  0
    5.1736   -5.0089   -0.9375 H   0  0  0  0  0  0  0  0  0  0  0  0
    6.9108   -3.4702    0.9626 H   0  0  0  0  0  0  0  0  0  0  0  0
    7.1339   -3.8378   -0.7335 H   0  0  0  0  0  0  0  0  0  0  0  0
    5.9617   -1.4819    0.5799 H   0  0  0  0  0  0  0  0  0  0  0  0
    6.4403   -1.6231   -1.1005 H   0  0  0  0  0  0  0  0  0  0  0  0
    3.8183   -1.3995   -0.2856 H   0  0  0  0  0  0  0  0  0  0  0  0
    4.6538   -3.2039   -2.6257 H   0  0  0  0  0  0  0  0  0  0  0  0
    4.6739   -1.4429   -2.6690 H   0  0  0  0  0  0  0  0  0  0  0  0
    3.1562   -2.2810   -2.4885 H   0  0  0  0  0  0  0  0  0  0  0  0
  1  2  1  0
  1 23  1  0
  1 24  1  0
  1 25  1  0
  2 17  1  0
  2  3  1  0
  2 26  1  1
  3  4  2  0
  3  5  1  0
  5  6  1  0
  5 27  1  0
  5 28  1  0
  6 13  1  0
  6  7  1  0
  6 29  1  1
  8  7  1  1
  8 18  1  0
  8 21  1  0
  8  9  1  0
  9 10  2  0
  9 11  1  0
 11 12  1  0
 11 30  1  0
 11 31  1  0
 13 12  1  6
 12 32  1  0
 12 33  1  0
 13 14  1  0
 13 18  1  0
 14 17  1  0
 14 15  1  0
 14 34  1  6
 15 16  1  0
 15 35  1  0
 15 36  1  0
 16 17  1  0
 16 37  1  0
 16 38  1  0
 17 39  1  6
 18 19  1  0
 18 40  1  6
 19 20  1  0
 19 41  1  0
 19 42  1  0
 20 21  1  0
 20 43  1  0
 20 44  1  0
 21 22  1  0
 21 45  1  1
 22 46  1  0
 22 47  1  0
 22 48  1  0
M  END
>  <i_m_ct_stereo_status>  (326) 
1

>  <s_m_source_file>  (326) 
/var/tmp/pbs.5076255.sched01/tmp0q3ly_rt/135fqi89qhj.sdf

>  <i_m_source_file_index>  (326) 
3

>  <i_lp_mmshare_version>  (326) 
48012

>  <i_f3d_flags>  (326) 
0

>  <s_epik_input>  (326) 
W0NIMl0xW0NIMl1bQ0BIXTJbQ0BASF0xW0NASF0oW0NIM10pQyg9TylbQ0gyXVtDQEBIXShPMylbQ0BAXTIoW0NIMl1bQ0gyXUM0PU8pW0NAQEhdKFtDQF0zNDUpW0NIMl1bQ0gyXVtDQEhdNVtDSDNd

>  <s_epik_cmdline>  (326) 
J2VwaWtfcHl0aG9uJywgJy1waHQnLCAnMi4wJywgJy1waCcsICc3LjAnLCAnLXRuJywgJzgnLCAnLW1hJywgJzIwMCcsICctaW1hZScsICc8aW5maWxlLm1hZT4nLCAnLW9tYWUnLCAnPG91dGZpbGUubWFlPic=

>  <r_lp_tautomer_probability>  (326) 
1

>  <r_epik_Ionization_Penalty>  (326) 
5.01947e-12

>  <r_epik_Ionization_Penalty_Charging>  (326) 
0

>  <r_epik_Ionization_Penalty_Neutral>  (326) 
5.01947e-12

>  <r_epik_State_Penalty>  (326) 
-0

>  <r_epik_Charging_Adjusted_Penalty>  (326) 
0

>  <i_epik_Tot_Q>  (326) 
0

>  <i_epik_Tot_abs_Q>  (326) 
0

>  <s_lp_Force_Field>  (326) 
OPLS3e

>  <r_lp_Energy>  (326) 
47.754

>  <b_lp_Chiralities_Consistent>  (326) 
1

>  <s_lp_Variant>  (326) 
87:0-1

>  <s_i_glide_gridfile>  (326) 
pfpi4k_grid

>  <i_i_glide_lignum>  (326) 
3

>  <i_i_glide_rotatable_bonds>  (326) 
0

>  <r_i_docking_score>  (326) 
-2.74643

>  <r_i_glide_ligand_efficiency>  (326) 
-0.124838

>  <r_i_glide_ligand_efficiency_sa>  (326) 
-0.349801

>  <r_i_glide_ligand_efficiency_ln>  (326) 
-0.671329

>  <r_i_glide_gscore>  (326) 
-2.74643

>  <r_i_glide_lipo>  (326) 
-0.470934

>  <r_i_glide_hbond>  (326) 
-0.0107375

>  <r_i_glide_metal>  (326) 
-0

>  <r_i_glide_rewards>  (326) 
-1.34756

>  <r_i_glide_evdw>  (326) 
-19.9907

>  <r_i_glide_ecoul>  (326) 
0.872262

>  <r_i_glide_erotb>  (326) 
0

>  <r_i_glide_esite>  (326) 
-0.048504

>  <r_i_glide_emodel>  (326) 
-22.1743

>  <r_i_glide_energy>  (326) 
-19.1184

>  <r_i_glide_einternal>  (326) 
0

>  <r_i_glide_intrahb_reward>  (326) 
-0

>  <i_i_glide_confnum>  (326) 
1

>  <i_i_glide_posenum>  (326) 
1

>  <r_i_glide_eff_state_penalty>  (326) 
0

>  <ligand_id>  (326) 
87

>  <original_smiles>  (326) 
CC1C(=O)CC2OC34C(=O)CCC2(C2CCC12)C3CCC4C

>  <smiles>  (326) 
[H]C([H])([H])C1([H])C(=O)C([H])([H])C2([H])OC34C(=O)C([H])([H])C([H])([H])C2(C3([H])C([H])([H])C([H])([H])C4([H])C([H])([H])[H])C2([H])C([H])([H])C([H])([H])C12[H]

$$$$
88:0:0
     RDKit          3D

 84 89  0  0  1  0  0  0  0  0999 V2000
    4.4780   -1.6937   -2.4265 C   0  0  0  0  0  0  0  0  0  0  0  0
    3.7211   -3.0182   -2.1159 C   0  0  0  0  0  0  0  0  0  0  0  0
    2.3548   -2.9551   -2.8199 C   0  0  0  0  0  0  0  0  0  0  0  0
    3.5830   -3.4246   -0.6069 C   0  0  2  0  0  0  0  0  0  0  0  0
    3.0137   -2.3446    0.3414 C   0  0  0  0  0  0  0  0  0  0  0  0
    3.8301   -2.4512    1.6273 C   0  0  1  0  0  0  0  0  0  0  0  0
    3.1185   -2.1087    2.7895 O   0  0  0  0  0  0  0  0  0  0  0  0
    4.5241   -3.8307    1.6345 C   0  0  1  0  0  0  0  0  0  0  0  0
    3.9427   -5.0262    2.4873 C   0  0  1  0  0  0  0  0  0  0  0  0
    2.3838   -5.1968    2.3632 C   0  0  1  0  0  0  0  0  0  0  0  0
    1.8647   -5.7214    1.1599 O   0  0  0  0  0  0  0  0  0  0  0  0
    1.5772   -5.6292    3.6396 C   0  0  1  0  0  0  0  0  0  0  0  0
    1.3381   -4.3880    4.5368 C   0  0  0  0  0  0  0  0  0  0  0  0
    0.2782   -6.0091    3.2522 O   0  0  0  0  0  0  0  0  0  0  0  0
    2.1117   -6.8111    4.5046 C   0  0  2  0  0  0  0  0  0  0  0  0
    3.4163   -6.5286    5.2976 C   0  0  1  0  0  0  0  0  0  0  0  0
    3.1818   -6.6421    6.6901 O   0  0  0  0  0  0  0  0  0  0  0  0
    4.6334   -7.4017    4.8609 C   0  0  1  0  0  0  0  0  0  0  0  0
    4.6567   -8.5957    5.6317 O   0  0  0  0  0  0  0  0  0  0  0  0
    4.6775   -7.6766    3.2984 C   0  0  2  0  0  0  0  0  0  0  0  0
    5.8731   -8.6554    2.9884 C   0  0  0  0  0  0  0  0  0  0  0  0
    4.9850   -6.2682    2.4912 C   0  0  2  0  0  0  0  0  0  0  0  0
    6.2738   -5.6441    3.1534 C   0  0  0  0  0  0  0  0  0  0  0  0
    5.4018   -6.5590    0.9946 C   0  0  0  0  0  0  0  0  0  0  0  0
    4.8136   -5.6585   -0.1241 C   0  0  0  0  0  0  0  0  0  0  0  0
    4.7776   -4.1279    0.1416 C   0  0  1  0  0  0  0  0  0  0  0  0
    6.1436   -3.5126   -0.2399 C   0  0  0  0  0  0  0  0  0  0  0  0
    3.3326   -8.4764    2.9384 C   0  0  1  0  0  0  0  0  0  0  0  0
    2.9468   -8.0961    1.6537 O   0  0  0  0  0  0  0  0  0  0  0  0
    3.2685  -10.0302    2.6882 C   0  0  1  0  0  0  0  0  0  0  0  0
    3.9336  -10.7971    3.6611 O   0  0  0  0  0  0  0  0  0  0  0  0
    1.7355  -10.3546    2.7294 C   0  0  1  0  0  0  0  0  0  0  0  0
    1.3269  -11.7914    3.1389 C   0  0  0  0  0  0  0  0  0  0  0  0
    1.1370   -9.3050    3.6374 C   0  0  1  0  0  0  0  0  0  0  0  0
    1.7029   -9.2167    5.0078 C   0  0  0  0  0  0  0  0  0  0  0  0
    2.1619   -8.2231    3.9093 C   0  0  2  0  0  0  0  0  0  0  0  0
    3.9755   -0.8259   -1.9892 H   0  0  0  0  0  0  0  0  0  0  0  0
    4.4975   -1.5154   -3.5098 H   0  0  0  0  0  0  0  0  0  0  0  0
    5.5183   -1.6845   -2.0891 H   0  0  0  0  0  0  0  0  0  0  0  0
    4.2607   -3.8268   -2.6053 H   0  0  0  0  0  0  0  0  0  0  0  0
    1.6988   -2.2537   -2.3287 H   0  0  0  0  0  0  0  0  0  0  0  0
    1.8520   -3.9187   -2.8473 H   0  0  0  0  0  0  0  0  0  0  0  0
    2.4548   -2.6120   -3.8461 H   0  0  0  0  0  0  0  0  0  0  0  0
    2.8017   -4.1767   -0.6376 H   0  0  0  0  0  0  0  0  0  0  0  0
    3.0857   -1.3254   -0.0500 H   0  0  0  0  0  0  0  0  0  0  0  0
    1.9530   -2.5330    0.5427 H   0  0  0  0  0  0  0  0  0  0  0  0
    4.6133   -1.6970    1.5367 H   0  0  0  0  0  0  0  0  0  0  0  0
    2.7812   -1.2236    2.6621 H   0  0  0  0  0  0  0  0  0  0  0  0
    5.4710   -3.5674    2.0974 H   0  0  0  0  0  0  0  0  0  0  0  0
    4.0203   -4.5696    3.4588 H   0  0  0  0  0  0  0  0  0  0  0  0
    2.0140   -4.1894    2.2112 H   0  0  0  0  0  0  0  0  0  0  0  0
    2.5080   -5.5446    0.4723 H   0  0  0  0  0  0  0  0  0  0  0  0
    2.2657   -3.9220    4.8664 H   0  0  0  0  0  0  0  0  0  0  0  0
    0.7682   -4.6529    5.4254 H   0  0  0  0  0  0  0  0  0  0  0  0
    0.7770   -3.6222    4.0032 H   0  0  0  0  0  0  0  0  0  0  0  0
    0.3459   -6.8769    2.8513 H   0  0  0  0  0  0  0  0  0  0  0  0
    1.3360   -6.8572    5.2666 H   0  0  0  0  0  0  0  0  0  0  0  0
    3.7118   -5.4921    5.2070 H   0  0  0  0  0  0  0  0  0  0  0  0
    3.0461   -7.5618    6.8862 H   0  0  0  0  0  0  0  0  0  0  0  0
    5.5332   -6.8892    5.2100 H   0  0  0  0  0  0  0  0  0  0  0  0
    3.9826   -9.1893    5.2964 H   0  0  0  0  0  0  0  0  0  0  0  0
    5.7307   -9.1708    2.0417 H   0  0  0  0  0  0  0  0  0  0  0  0
    5.9946   -9.4297    3.7424 H   0  0  0  0  0  0  0  0  0  0  0  0
    6.8535   -8.2033    2.9019 H   0  0  0  0  0  0  0  0  0  0  0  0
    6.9813   -6.3363    3.5846 H   0  0  0  0  0  0  0  0  0  0  0  0
    6.0327   -4.9795    3.9756 H   0  0  0  0  0  0  0  0  0  0  0  0
    6.8728   -5.0691    2.4541 H   0  0  0  0  0  0  0  0  0  0  0  0
    6.4888   -6.5335    0.8955 H   0  0  0  0  0  0  0  0  0  0  0  0
    5.1761   -7.5874    0.6990 H   0  0  0  0  0  0  0  0  0  0  0  0
    5.3976   -5.8338   -1.0289 H   0  0  0  0  0  0  0  0  0  0  0  0
    3.8257   -6.0539   -0.3506 H   0  0  0  0  0  0  0  0  0  0  0  0
    6.9719   -3.9464    0.3253 H   0  0  0  0  0  0  0  0  0  0  0  0
    6.1536   -2.4381   -0.0609 H   0  0  0  0  0  0  0  0  0  0  0  0
    6.3683   -3.6643   -1.2921 H   0  0  0  0  0  0  0  0  0  0  0  0
    3.5633   -8.4844    1.0394 H   0  0  0  0  0  0  0  0  0  0  0  0
    3.6962  -10.3215    1.7310 H   0  0  0  0  0  0  0  0  0  0  0  0
    3.8280  -11.7110    3.4185 H   0  0  0  0  0  0  0  0  0  0  0  0
    1.3136  -10.1733    1.7366 H   0  0  0  0  0  0  0  0  0  0  0  0
    1.6156  -12.0273    4.1638 H   0  0  0  0  0  0  0  0  0  0  0  0
    1.7656  -12.5398    2.4781 H   0  0  0  0  0  0  0  0  0  0  0  0
    0.2437  -11.9071    3.0887 H   0  0  0  0  0  0  0  0  0  0  0  0
    0.0890   -9.0420    3.4784 H   0  0  0  0  0  0  0  0  0  0  0  0
    0.9891   -8.9068    5.7534 H   0  0  0  0  0  0  0  0  0  0  0  0
    2.3602  -10.0042    5.3631 H   0  0  0  0  0  0  0  0  0  0  0  0
  1  2  1  0
  1 37  1  0
  1 38  1  0
  1 39  1  0
  2  3  1  0
  2  4  1  0
  2 40  1  0
  3 41  1  0
  3 42  1  0
  3 43  1  0
  4 26  1  0
  4  5  1  0
  4 44  1  6
  5  6  1  0
  5 45  1  0
  5 46  1  0
  6  7  1  0
  6  8  1  0
  6 47  1  6
  7 48  1  0
  8 26  1  0
  8  9  1  0
  8 49  1  1
  9 22  1  0
  9 10  1  0
  9 50  1  1
 10 11  1  0
 10 12  1  0
 10 51  1  6
 11 52  1  0
 12 13  1  0
 12 14  1  6
 12 15  1  0
 13 53  1  0
 13 54  1  0
 13 55  1  0
 14 56  1  0
 15 36  1  0
 15 16  1  0
 15 57  1  1
 16 17  1  0
 16 18  1  0
 16 58  1  1
 17 59  1  0
 18 19  1  0
 18 20  1  0
 18 60  1  1
 19 61  1  0
 20 21  1  1
 20 22  1  0
 20 28  1  0
 21 62  1  0
 21 63  1  0
 21 64  1  0
 22 23  1  1
 22 24  1  0
 23 65  1  0
 23 66  1  0
 23 67  1  0
 24 25  1  0
 24 68  1  0
 24 69  1  0
 25 26  1  0
 25 70  1  0
 25 71  1  0
 26 27  1  6
 27 72  1  0
 27 73  1  0
 27 74  1  0
 28 36  1  0
 28 29  1  6
 28 30  1  0
 29 75  1  0
 30 31  1  0
 30 32  1  0
 30 76  1  6
 31 77  1  0
 32 33  1  0
 32 34  1  0
 32 78  1  6
 33 79  1  0
 33 80  1  0
 33 81  1  0
 34 36  1  0
 34 35  1  0
 34 82  1  1
 36 35  1  1
 35 83  1  0
 35 84  1  0
M  END
>  <i_m_ct_stereo_status>  (327) 
1

>  <s_m_source_file>  (327) 
/var/tmp/pbs.5076255.sched01/tmp0q3ly_rt/135fqi89qhj.sdf

>  <i_m_source_file_index>  (327) 
4

>  <i_lp_mmshare_version>  (327) 
48012

>  <i_f3d_flags>  (327) 
0

>  <s_epik_input>  (327) 
W0NAQF0xMjNbQ0BASF00W0NAXShbQ0gzXSkoW09IXSlbQ0BIXShbT0hdKVtDQEBIXTVbQ0BIXTZbQ0BdKFtDSDNdKShbQ0BIXShbQ0hdKFtDSDNdKVtDSDNdKVtDSDJdW0NASF02W09IXSlbQ0gyXVtDSDJdW0NAXTUoW0NIM10pW0NAQF0oW0NIM10pKFtDQEhdKFtPSF0pW0NAQEhdNFtPSF0pW0NAQF0xKFtPSF0pW0NAQEhdKFtPSF0pW0NAQEhdKFtDSDNdKVtDQEhdMltDSDJdMw==

>  <s_epik_cmdline>  (327) 
J2VwaWtfcHl0aG9uJywgJy1waHQnLCAnMi4wJywgJy1waCcsICc3LjAnLCAnLXRuJywgJzgnLCAnLW1hJywgJzIwMCcsICctaW1hZScsICc8aW5maWxlLm1hZT4nLCAnLW9tYWUnLCAnPG91dGZpbGUubWFlPic=

>  <r_lp_tautomer_probability>  (327) 
1

>  <r_epik_Ionization_Penalty>  (327) 
6.63115e-06

>  <r_epik_Ionization_Penalty_Charging>  (327) 
0

>  <r_epik_Ionization_Penalty_Neutral>  (327) 
6.63115e-06

>  <r_epik_State_Penalty>  (327) 
-0

>  <r_epik_Charging_Adjusted_Penalty>  (327) 
0

>  <i_epik_Tot_Q>  (327) 
0

>  <i_epik_Tot_abs_Q>  (327) 
0

>  <s_lp_Force_Field>  (327) 
OPLS3e

>  <r_lp_Energy>  (327) 
161.802

>  <b_lp_Chiralities_Consistent>  (327) 
1

>  <s_lp_Variant>  (327) 
88:0-1

>  <s_i_glide_gridfile>  (327) 
pfpi4k_grid

>  <i_i_glide_lignum>  (327) 
4

>  <i_i_glide_rotatable_bonds>  (327) 
8

>  <r_i_docking_score>  (327) 
-2.98621

>  <r_i_glide_ligand_efficiency>  (327) 
-0.0829502

>  <r_i_glide_ligand_efficiency_sa>  (327) 
-0.273896

>  <r_i_glide_ligand_efficiency_ln>  (327) 
-0.65151

>  <r_i_glide_gscore>  (327) 
-2.98621

>  <r_i_glide_lipo>  (327) 
-0.518023

>  <r_i_glide_hbond>  (327) 
0

>  <r_i_glide_metal>  (327) 
-0

>  <r_i_glide_rewards>  (327) 
-0.5

>  <r_i_glide_evdw>  (327) 
-24.1054

>  <r_i_glide_ecoul>  (327) 
-5.08609

>  <r_i_glide_erotb>  (327) 
0

>  <r_i_glide_esite>  (327) 
0

>  <r_i_glide_emodel>  (327) 
-37.2732

>  <r_i_glide_energy>  (327) 
-29.1915

>  <r_i_glide_einternal>  (327) 
5.82638

>  <r_i_glide_intrahb_reward>  (327) 
-0.5

>  <i_i_glide_confnum>  (327) 
2

>  <i_i_glide_posenum>  (327) 
30

>  <r_i_glide_eff_state_penalty>  (327) 
0

>  <ligand_id>  (327) 
88

>  <original_smiles>  (327) 
CC(C)C1CC(O)C2C3C(O)C(C)(O)C4C(O)C(O)C(C)(C3(C)CCC12C)C1(O)C(O)C(C)C2CC241

>  <smiles>  (327) 
[H]OC1([H])C([H])([H])C([H])(C([H])(C([H])([H])[H])C([H])([H])[H])C2(C([H])([H])[H])C([H])([H])C([H])([H])C3(C([H])([H])[H])C([H])(C([H])(O[H])C(O[H])(C([H])([H])[H])C4([H])C([H])(O[H])C([H])(O[H])C3(C([H])([H])[H])C3(O[H])C([H])(O[H])C([H])(C([H])([H])[H])C5([H])C([H])([H])C543)C12[H]

$$$$
88:0:1
     RDKit          3D

 84 89  0  0  1  0  0  0  0  0999 V2000
    4.1245   -0.7288   -1.3425 C   0  0  0  0  0  0  0  0  0  0  0  0
    4.8579   -2.0641   -1.1267 C   0  0  0  0  0  0  0  0  0  0  0  0
    4.4447   -3.0086   -2.2721 C   0  0  0  0  0  0  0  0  0  0  0  0
    4.5655   -2.6354    0.3001 C   0  0  2  0  0  0  0  0  0  0  0  0
    4.8903   -1.6456    1.4424 C   0  0  0  0  0  0  0  0  0  0  0  0
    5.5397   -2.4643    2.5589 C   0  0  1  0  0  0  0  0  0  0  0  0
    5.2530   -2.0308    3.8741 O   0  0  0  0  0  0  0  0  0  0  0  0
    5.2830   -3.9542    2.2536 C   0  0  1  0  0  0  0  0  0  0  0  0
    4.1856   -4.7678    3.0468 C   0  0  1  0  0  0  0  0  0  0  0  0
    2.8457   -3.9829    3.2005 C   0  0  1  0  0  0  0  0  0  0  0  0
    2.0876   -3.9368    2.0400 O   0  0  0  0  0  0  0  0  0  0  0  0
    1.9849   -4.1320    4.4929 C   0  0  1  0  0  0  0  0  0  0  0  0
    2.5739   -3.2192    5.5920 C   0  0  0  0  0  0  0  0  0  0  0  0
    0.7211   -3.5267    4.2603 O   0  0  0  0  0  0  0  0  0  0  0  0
    1.7345   -5.5596    5.0622 C   0  0  2  0  0  0  0  0  0  0  0  0
    3.0012   -6.2685    5.6320 C   0  0  1  0  0  0  0  0  0  0  0  0
    2.8109   -6.5659    7.0021 O   0  0  0  0  0  0  0  0  0  0  0  0
    3.4293   -7.5466    4.8586 C   0  0  1  0  0  0  0  0  0  0  0  0
    2.7419   -8.6571    5.4164 O   0  0  0  0  0  0  0  0  0  0  0  0
    3.2088   -7.4452    3.2907 C   0  0  2  0  0  0  0  0  0  0  0  0
    3.5517   -8.8379    2.6352 C   0  0  0  0  0  0  0  0  0  0  0  0
    4.2500   -6.3365    2.6590 C   0  0  2  0  0  0  0  0  0  0  0  0
    5.6884   -6.7348    3.1592 C   0  0  0  0  0  0  0  0  0  0  0  0
    4.3148   -6.4764    1.0873 C   0  0  0  0  0  0  0  0  0  0  0  0
    4.3259   -5.1957    0.2251 C   0  0  0  0  0  0  0  0  0  0  0  0
    5.2019   -4.0106    0.7107 C   0  0  1  0  0  0  0  0  0  0  0  0
    6.6511   -4.1405    0.1593 C   0  0  0  0  0  0  0  0  0  0  0  0
    1.6337   -7.2182    3.0590 C   0  0  1  0  0  0  0  0  0  0  0  0
    1.4505   -6.4309    1.9023 O   0  0  0  0  0  0  0  0  0  0  0  0
    0.6384   -8.3630    2.6016 C   0  0  1  0  0  0  0  0  0  0  0  0
    0.7444   -9.6012    3.2811 O   0  0  0  0  0  0  0  0  0  0  0  0
   -0.7810   -7.7364    2.8564 C   0  0  1  0  0  0  0  0  0  0  0  0
   -1.9447   -8.7061    3.1200 C   0  0  0  0  0  0  0  0  0  0  0  0
   -0.5789   -6.7779    4.0175 C   0  0  1  0  0  0  0  0  0  0  0  0
    0.0039   -7.3355    5.2539 C   0  0  0  0  0  0  0  0  0  0  0  0
    0.9003   -6.5667    4.2517 C   0  0  2  0  0  0  0  0  0  0  0  0
    3.0458   -0.8670   -1.2469 H   0  0  0  0  0  0  0  0  0  0  0  0
    4.3112   -0.3155   -2.3358 H   0  0  0  0  0  0  0  0  0  0  0  0
    4.4283    0.0255   -0.6185 H   0  0  0  0  0  0  0  0  0  0  0  0
    5.9234   -1.8573   -1.2250 H   0  0  0  0  0  0  0  0  0  0  0  0
    3.4072   -3.3272   -2.1668 H   0  0  0  0  0  0  0  0  0  0  0  0
    5.0606   -3.9034   -2.3263 H   0  0  0  0  0  0  0  0  0  0  0  0
    4.5367   -2.5150   -3.2405 H   0  0  0  0  0  0  0  0  0  0  0  0
    3.4842   -2.7517    0.3360 H   0  0  0  0  0  0  0  0  0  0  0  0
    5.5950   -0.8748    1.1247 H   0  0  0  0  0  0  0  0  0  0  0  0
    3.9877   -1.1287    1.7714 H   0  0  0  0  0  0  0  0  0  0  0  0
    6.6099   -2.3003    2.4291 H   0  0  0  0  0  0  0  0  0  0  0  0
    4.3184   -2.0760    4.0174 H   0  0  0  0  0  0  0  0  0  0  0  0
    6.2264   -4.3883    2.5587 H   0  0  0  0  0  0  0  0  0  0  0  0
    4.5897   -4.6684    4.0446 H   0  0  0  0  0  0  0  0  0  0  0  0
    3.0988   -2.9292    3.2163 H   0  0  0  0  0  0  0  0  0  0  0  0
    1.6017   -3.1233    2.0553 H   0  0  0  0  0  0  0  0  0  0  0  0
    3.6142   -3.4591    5.8188 H   0  0  0  0  0  0  0  0  0  0  0  0
    2.0075   -3.2980    6.5204 H   0  0  0  0  0  0  0  0  0  0  0  0
    2.5538   -2.1711    5.2920 H   0  0  0  0  0  0  0  0  0  0  0  0
    0.3128   -3.9666    3.5292 H   0  0  0  0  0  0  0  0  0  0  0  0
    1.1314   -5.3159    5.9318 H   0  0  0  0  0  0  0  0  0  0  0  0
    3.8455   -5.5947    5.6570 H   0  0  0  0  0  0  0  0  0  0  0  0
    2.2570   -7.3349    7.0469 H   0  0  0  0  0  0  0  0  0  0  0  0
    4.4692   -7.7549    5.1184 H   0  0  0  0  0  0  0  0  0  0  0  0
    3.0709   -9.4514    5.0189 H   0  0  0  0  0  0  0  0  0  0  0  0
    3.0728   -8.9448    1.6600 H   0  0  0  0  0  0  0  0  0  0  0  0
    3.2193   -9.6966    3.2154 H   0  0  0  0  0  0  0  0  0  0  0  0
    4.6015   -9.0325    2.4357 H   0  0  0  0  0  0  0  0  0  0  0  0
    5.8637   -7.7850    3.3512 H   0  0  0  0  0  0  0  0  0  0  0  0
    5.9472   -6.2602    4.1057 H   0  0  0  0  0  0  0  0  0  0  0  0
    6.4681   -6.4630    2.4551 H   0  0  0  0  0  0  0  0  0  0  0  0
    5.1882   -7.0656    0.8091 H   0  0  0  0  0  0  0  0  0  0  0  0
    3.5006   -7.0866    0.7006 H   0  0  0  0  0  0  0  0  0  0  0  0
    4.6363   -5.4989   -0.7721 H   0  0  0  0  0  0  0  0  0  0  0  0
    3.2922   -4.8866    0.0899 H   0  0  0  0  0  0  0  0  0  0  0  0
    7.1487   -5.0397    0.5197 H   0  0  0  0  0  0  0  0  0  0  0  0
    7.2737   -3.2937    0.4476 H   0  0  0  0  0  0  0  0  0  0  0  0
    6.6775   -4.1784   -0.9235 H   0  0  0  0  0  0  0  0  0  0  0  0
    1.9834   -5.6382    1.9648 H   0  0  0  0  0  0  0  0  0  0  0  0
    0.7563   -8.6086    1.5413 H   0  0  0  0  0  0  0  0  0  0  0  0
    0.4768   -9.4879    4.1830 H   0  0  0  0  0  0  0  0  0  0  0  0
   -1.0508   -7.1306    1.9947 H   0  0  0  0  0  0  0  0  0  0  0  0
   -1.7753   -9.2518    4.0439 H   0  0  0  0  0  0  0  0  0  0  0  0
   -2.0862   -9.4317    2.3176 H   0  0  0  0  0  0  0  0  0  0  0  0
   -2.8804   -8.1624    3.2554 H   0  0  0  0  0  0  0  0  0  0  0  0
   -1.2634   -5.9377    4.1113 H   0  0  0  0  0  0  0  0  0  0  0  0
   -0.3221   -6.8487    6.1669 H   0  0  0  0  0  0  0  0  0  0  0  0
    0.1037   -8.4094    5.3828 H   0  0  0  0  0  0  0  0  0  0  0  0
  1  2  1  0
  1 37  1  0
  1 38  1  0
  1 39  1  0
  2  3  1  0
  2  4  1  0
  2 40  1  0
  3 41  1  0
  3 42  1  0
  3 43  1  0
  4 26  1  0
  4  5  1  0
  4 44  1  6
  5  6  1  0
  5 45  1  0
  5 46  1  0
  6  7  1  0
  6  8  1  0
  6 47  1  6
  7 48  1  0
  8 26  1  0
  8  9  1  0
  8 49  1  6
  9 22  1  0
  9 10  1  0
  9 50  1  1
 10 11  1  0
 10 12  1  0
 10 51  1  1
 11 52  1  0
 12 13  1  0
 12 14  1  6
 12 15  1  0
 13 53  1  0
 13 54  1  0
 13 55  1  0
 14 56  1  0
 15 36  1  0
 15 16  1  0
 15 57  1  1
 16 17  1  0
 16 18  1  0
 16 58  1  1
 17 59  1  0
 18 19  1  0
 18 20  1  0
 18 60  1  6
 19 61  1  0
 20 21  1  6
 20 22  1  0
 20 28  1  0
 21 62  1  0
 21 63  1  0
 21 64  1  0
 22 23  1  1
 22 24  1  0
 23 65  1  0
 23 66  1  0
 23 67  1  0
 24 25  1  0
 24 68  1  0
 24 69  1  0
 25 26  1  0
 25 70  1  0
 25 71  1  0
 26 27  1  6
 27 72  1  0
 27 73  1  0
 27 74  1  0
 28 36  1  0
 28 29  1  6
 28 30  1  0
 29 75  1  0
 30 31  1  0
 30 32  1  0
 30 76  1  6
 31 77  1  0
 32 33  1  0
 32 34  1  0
 32 78  1  6
 33 79  1  0
 33 80  1  0
 33 81  1  0
 34 36  1  0
 34 35  1  0
 34 82  1  1
 36 35  1  1
 35 83  1  0
 35 84  1  0
M  END
>  <i_m_ct_stereo_status>  (328) 
1

>  <s_m_source_file>  (328) 
/var/tmp/pbs.5076255.sched01/tmp0q3ly_rt/135fqi89qhj.sdf

>  <i_m_source_file_index>  (328) 
4

>  <i_lp_mmshare_version>  (328) 
48012

>  <i_f3d_flags>  (328) 
0

>  <s_epik_input>  (328) 
W0NAQF0xMjNbQ0BASF00W0NAXShbQ0gzXSkoW09IXSlbQ0BIXShbT0hdKVtDQEBIXTVbQ0BIXTZbQ0BdKFtDSDNdKShbQ0BIXShbQ0hdKFtDSDNdKVtDSDNdKVtDSDJdW0NASF02W09IXSlbQ0gyXVtDSDJdW0NAXTUoW0NIM10pW0NAQF0oW0NIM10pKFtDQEhdKFtPSF0pW0NAQEhdNFtPSF0pW0NAQF0xKFtPSF0pW0NAQEhdKFtPSF0pW0NAQEhdKFtDSDNdKVtDQEhdMltDSDJdMw==

>  <s_epik_cmdline>  (328) 
J2VwaWtfcHl0aG9uJywgJy1waHQnLCAnMi4wJywgJy1waCcsICc3LjAnLCAnLXRuJywgJzgnLCAnLW1hJywgJzIwMCcsICctaW1hZScsICc8aW5maWxlLm1hZT4nLCAnLW9tYWUnLCAnPG91dGZpbGUubWFlPic=

>  <r_lp_tautomer_probability>  (328) 
1

>  <r_epik_Ionization_Penalty>  (328) 
6.63115e-06

>  <r_epik_Ionization_Penalty_Charging>  (328) 
0

>  <r_epik_Ionization_Penalty_Neutral>  (328) 
6.63115e-06

>  <r_epik_State_Penalty>  (328) 
-0

>  <r_epik_Charging_Adjusted_Penalty>  (328) 
0

>  <i_epik_Tot_Q>  (328) 
0

>  <i_epik_Tot_abs_Q>  (328) 
0

>  <s_lp_Force_Field>  (328) 
OPLS3e

>  <r_lp_Energy>  (328) 
161.802

>  <b_lp_Chiralities_Consistent>  (328) 
1

>  <s_lp_Variant>  (328) 
88:0-1

>  <s_i_glide_gridfile>  (328) 
pfpi4k_grid

>  <i_i_glide_lignum>  (328) 
4

>  <i_i_glide_rotatable_bonds>  (328) 
8

>  <r_i_docking_score>  (328) 
-2.5975

>  <r_i_glide_ligand_efficiency>  (328) 
-0.0721529

>  <r_i_glide_ligand_efficiency_sa>  (328) 
-0.238244

>  <r_i_glide_ligand_efficiency_ln>  (328) 
-0.566705

>  <r_i_glide_gscore>  (328) 
-2.5975

>  <r_i_glide_lipo>  (328) 
-0.399116

>  <r_i_glide_hbond>  (328) 
0

>  <r_i_glide_metal>  (328) 
-0

>  <r_i_glide_rewards>  (328) 
-0.5

>  <r_i_glide_evdw>  (328) 
-21.2332

>  <r_i_glide_ecoul>  (328) 
-4.24487

>  <r_i_glide_erotb>  (328) 
0

>  <r_i_glide_esite>  (328) 
0

>  <r_i_glide_emodel>  (328) 
-34.732

>  <r_i_glide_energy>  (328) 
-25.478

>  <r_i_glide_einternal>  (328) 
1.38863

>  <r_i_glide_intrahb_reward>  (328) 
-0.5

>  <i_i_glide_confnum>  (328) 
1

>  <i_i_glide_posenum>  (328) 
3

>  <r_i_glide_eff_state_penalty>  (328) 
0

>  <ligand_id>  (328) 
88

>  <original_smiles>  (328) 
CC(C)C1CC(O)C2C3C(O)C(C)(O)C4C(O)C(O)C(C)(C3(C)CCC12C)C1(O)C(O)C(C)C2CC241

>  <smiles>  (328) 
[H]OC1([H])C([H])([H])C([H])(C([H])(C([H])([H])[H])C([H])([H])[H])C2(C([H])([H])[H])C([H])([H])C([H])([H])C3(C([H])([H])[H])C([H])(C([H])(O[H])C(O[H])(C([H])([H])[H])C4([H])C([H])(O[H])C([H])(O[H])C3(C([H])([H])[H])C3(O[H])C([H])(O[H])C([H])(C([H])([H])[H])C5([H])C([H])([H])C543)C12[H]

$$$$
88:0:2
     RDKit          3D

 84 89  0  0  1  0  0  0  0  0999 V2000
    4.1414   -0.6797   -1.2969 C   0  0  0  0  0  0  0  0  0  0  0  0
    4.8428   -2.0389   -1.1106 C   0  0  0  0  0  0  0  0  0  0  0  0
    4.3834   -2.9642   -2.2552 C   0  0  0  0  0  0  0  0  0  0  0  0
    4.5625   -2.6287    0.3113 C   0  0  2  0  0  0  0  0  0  0  0  0
    4.8744   -1.6434    1.4600 C   0  0  0  0  0  0  0  0  0  0  0  0
    5.5415   -2.4612    2.5647 C   0  0  1  0  0  0  0  0  0  0  0  0
    5.2527   -2.0371    3.8804 O   0  0  0  0  0  0  0  0  0  0  0  0
    5.3110   -3.9536    2.2492 C   0  0  1  0  0  0  0  0  0  0  0  0
    4.2313   -4.7927    3.0418 C   0  0  1  0  0  0  0  0  0  0  0  0
    2.8773   -4.0345    3.2017 C   0  0  1  0  0  0  0  0  0  0  0  0
    2.1171   -3.9900    2.0385 O   0  0  0  0  0  0  0  0  0  0  0  0
    2.0236   -4.2107    4.4971 C   0  0  1  0  0  0  0  0  0  0  0  0
    2.5976   -3.2939    5.6014 C   0  0  0  0  0  0  0  0  0  0  0  0
    0.7472   -3.6309    4.2738 O   0  0  0  0  0  0  0  0  0  0  0  0
    1.8032   -5.6452    5.0593 C   0  0  2  0  0  0  0  0  0  0  0  0
    3.0808   -6.3317    5.6271 C   0  0  1  0  0  0  0  0  0  0  0  0
    2.9001   -6.6156    7.0003 O   0  0  0  0  0  0  0  0  0  0  0  0
    3.5369   -7.5970    4.8495 C   0  0  1  0  0  0  0  0  0  0  0  0
    2.9162   -8.7373    5.4163 O   0  0  0  0  0  0  0  0  0  0  0  0
    3.3092   -7.4890    3.2788 C   0  0  2  0  0  0  0  0  0  0  0  0
    3.6773   -8.8686    2.6101 C   0  0  0  0  0  0  0  0  0  0  0  0
    4.3245   -6.3578    2.6463 C   0  0  2  0  0  0  0  0  0  0  0  0
    5.7730   -6.7298    3.1377 C   0  0  0  0  0  0  0  0  0  0  0  0
    4.3877   -6.4838    1.0723 C   0  0  0  0  0  0  0  0  0  0  0  0
    4.3688   -5.1968    0.2169 C   0  0  0  0  0  0  0  0  0  0  0  0
    5.2236   -3.9968    0.7065 C   0  0  1  0  0  0  0  0  0  0  0  0
    6.6711   -4.0945    0.1438 C   0  0  0  0  0  0  0  0  0  0  0  0
    1.7316   -7.2863    3.0450 C   0  0  1  0  0  0  0  0  0  0  0  0
    1.5265   -6.4928    1.8955 O   0  0  0  0  0  0  0  0  0  0  0  0
    0.7644   -8.4474    2.5847 C   0  0  1  0  0  0  0  0  0  0  0  0
    0.9128   -9.6828    3.2643 O   0  0  0  0  0  0  0  0  0  0  0  0
   -0.6685   -7.8580    2.8440 C   0  0  1  0  0  0  0  0  0  0  0  0
   -1.8039   -8.8610    3.0990 C   0  0  0  0  0  0  0  0  0  0  0  0
   -0.4883   -6.9015    4.0121 C   0  0  1  0  0  0  0  0  0  0  0  0
    0.1104   -7.4589    5.2445 C   0  0  0  0  0  0  0  0  0  0  0  0
    0.9895   -6.6644    4.2456 C   0  0  2  0  0  0  0  0  0  0  0  0
    3.0624   -0.7969   -1.1753 H   0  0  0  0  0  0  0  0  0  0  0  0
    4.3142   -0.2670   -2.2907 H   0  0  0  0  0  0  0  0  0  0  0  0
    4.4800    0.0587   -0.5756 H   0  0  0  0  0  0  0  0  0  0  0  0
    5.9100   -1.8566   -1.2298 H   0  0  0  0  0  0  0  0  0  0  0  0
    3.3401   -3.2574   -2.1324 H   0  0  0  0  0  0  0  0  0  0  0  0
    4.9777   -3.8706   -2.3235 H   0  0  0  0  0  0  0  0  0  0  0  0
    4.4679   -2.4630   -3.2211 H   0  0  0  0  0  0  0  0  0  0  0  0
    3.4836   -2.7638    0.3493 H   0  0  0  0  0  0  0  0  0  0  0  0
    5.5669   -0.8602    1.1520 H   0  0  0  0  0  0  0  0  0  0  0  0
    3.9620   -1.1472    1.7972 H   0  0  0  0  0  0  0  0  0  0  0  0
    6.6073   -2.2762    2.4325 H   0  0  0  0  0  0  0  0  0  0  0  0
    4.3101   -2.0204    3.9979 H   0  0  0  0  0  0  0  0  0  0  0  0
    6.2647   -4.3707    2.5463 H   0  0  0  0  0  0  0  0  0  0  0  0
    4.6369   -4.6900    4.0373 H   0  0  0  0  0  0  0  0  0  0  0  0
    3.1134   -2.9760    3.2282 H   0  0  0  0  0  0  0  0  0  0  0  0
    1.6323   -3.1754    2.0519 H   0  0  0  0  0  0  0  0  0  0  0  0
    3.6435   -3.5148    5.8228 H   0  0  0  0  0  0  0  0  0  0  0  0
    2.0348   -3.3925    6.5298 H   0  0  0  0  0  0  0  0  0  0  0  0
    2.5547   -2.2437    5.3085 H   0  0  0  0  0  0  0  0  0  0  0  0
    0.3380   -4.0881    3.5516 H   0  0  0  0  0  0  0  0  0  0  0  0
    1.1948   -5.4160    5.9287 H   0  0  0  0  0  0  0  0  0  0  0  0
    3.9142   -5.6452    5.6441 H   0  0  0  0  0  0  0  0  0  0  0  0
    2.3359   -7.3759    7.0681 H   0  0  0  0  0  0  0  0  0  0  0  0
    4.5867   -7.7719    5.0939 H   0  0  0  0  0  0  0  0  0  0  0  0
    2.0163   -8.7666    5.1224 H   0  0  0  0  0  0  0  0  0  0  0  0
    3.1962   -8.9842    1.6371 H   0  0  0  0  0  0  0  0  0  0  0  0
    3.3717   -9.7308    3.1991 H   0  0  0  0  0  0  0  0  0  0  0  0
    4.7291   -9.0405    2.4035 H   0  0  0  0  0  0  0  0  0  0  0  0
    5.9686   -7.7777    3.3216 H   0  0  0  0  0  0  0  0  0  0  0  0
    6.0239   -6.2570    4.0863 H   0  0  0  0  0  0  0  0  0  0  0  0
    6.5453   -6.4381    2.4329 H   0  0  0  0  0  0  0  0  0  0  0  0
    5.2744   -7.0476    0.7860 H   0  0  0  0  0  0  0  0  0  0  0  0
    3.5880   -7.1106    0.6808 H   0  0  0  0  0  0  0  0  0  0  0  0
    4.6840   -5.4864   -0.7827 H   0  0  0  0  0  0  0  0  0  0  0  0
    3.3290   -4.9044    0.0862 H   0  0  0  0  0  0  0  0  0  0  0  0
    7.1887   -4.9878    0.4903 H   0  0  0  0  0  0  0  0  0  0  0  0
    7.2799   -3.2398    0.4367 H   0  0  0  0  0  0  0  0  0  0  0  0
    6.6837   -4.1180   -0.9406 H   0  0  0  0  0  0  0  0  0  0  0  0
    2.0443   -5.6886    1.9534 H   0  0  0  0  0  0  0  0  0  0  0  0
    0.8882   -8.6727    1.5204 H   0  0  0  0  0  0  0  0  0  0  0  0
    0.4640   -9.6508    4.1012 H   0  0  0  0  0  0  0  0  0  0  0  0
   -0.9590   -7.2502    1.9874 H   0  0  0  0  0  0  0  0  0  0  0  0
   -1.6029   -9.4301    4.0002 H   0  0  0  0  0  0  0  0  0  0  0  0
   -1.9445   -9.5692    2.2818 H   0  0  0  0  0  0  0  0  0  0  0  0
   -2.7459   -8.3357    3.2578 H   0  0  0  0  0  0  0  0  0  0  0  0
   -1.1974   -6.0808    4.1131 H   0  0  0  0  0  0  0  0  0  0  0  0
   -0.2192   -6.9839    6.1618 H   0  0  0  0  0  0  0  0  0  0  0  0
    0.2086   -8.5336    5.3625 H   0  0  0  0  0  0  0  0  0  0  0  0
  1  2  1  0
  1 37  1  0
  1 38  1  0
  1 39  1  0
  2  3  1  0
  2  4  1  0
  2 40  1  0
  3 41  1  0
  3 42  1  0
  3 43  1  0
  4 26  1  0
  4  5  1  0
  4 44  1  6
  5  6  1  0
  5 45  1  0
  5 46  1  0
  6  7  1  0
  6  8  1  0
  6 47  1  6
  7 48  1  0
  8 26  1  0
  8  9  1  0
  8 49  1  6
  9 22  1  0
  9 10  1  0
  9 50  1  1
 10 11  1  0
 10 12  1  0
 10 51  1  1
 11 52  1  0
 12 13  1  0
 12 14  1  6
 12 15  1  0
 13 53  1  0
 13 54  1  0
 13 55  1  0
 14 56  1  0
 15 36  1  0
 15 16  1  0
 15 57  1  1
 16 17  1  0
 16 18  1  0
 16 58  1  1
 17 59  1  0
 18 19  1  0
 18 20  1  0
 18 60  1  6
 19 61  1  0
 20 21  1  6
 20 22  1  0
 20 28  1  0
 21 62  1  0
 21 63  1  0
 21 64  1  0
 22 23  1  1
 22 24  1  0
 23 65  1  0
 23 66  1  0
 23 67  1  0
 24 25  1  0
 24 68  1  0
 24 69  1  0
 25 26  1  0
 25 70  1  0
 25 71  1  0
 26 27  1  6
 27 72  1  0
 27 73  1  0
 27 74  1  0
 28 36  1  0
 28 29  1  6
 28 30  1  0
 29 75  1  0
 30 31  1  0
 30 32  1  0
 30 76  1  6
 31 77  1  0
 32 33  1  0
 32 34  1  0
 32 78  1  6
 33 79  1  0
 33 80  1  0
 33 81  1  0
 34 36  1  0
 34 35  1  0
 34 82  1  1
 36 35  1  1
 35 83  1  0
 35 84  1  0
M  END
>  <i_m_ct_stereo_status>  (329) 
1

>  <s_m_source_file>  (329) 
/var/tmp/pbs.5076255.sched01/tmp0q3ly_rt/135fqi89qhj.sdf

>  <i_m_source_file_index>  (329) 
4

>  <i_lp_mmshare_version>  (329) 
48012

>  <i_f3d_flags>  (329) 
0

>  <s_epik_input>  (329) 
W0NAQF0xMjNbQ0BASF00W0NAXShbQ0gzXSkoW09IXSlbQ0BIXShbT0hdKVtDQEBIXTVbQ0BIXTZbQ0BdKFtDSDNdKShbQ0BIXShbQ0hdKFtDSDNdKVtDSDNdKVtDSDJdW0NASF02W09IXSlbQ0gyXVtDSDJdW0NAXTUoW0NIM10pW0NAQF0oW0NIM10pKFtDQEhdKFtPSF0pW0NAQEhdNFtPSF0pW0NAQF0xKFtPSF0pW0NAQEhdKFtPSF0pW0NAQEhdKFtDSDNdKVtDQEhdMltDSDJdMw==

>  <s_epik_cmdline>  (329) 
J2VwaWtfcHl0aG9uJywgJy1waHQnLCAnMi4wJywgJy1waCcsICc3LjAnLCAnLXRuJywgJzgnLCAnLW1hJywgJzIwMCcsICctaW1hZScsICc8aW5maWxlLm1hZT4nLCAnLW9tYWUnLCAnPG91dGZpbGUubWFlPic=

>  <r_lp_tautomer_probability>  (329) 
1

>  <r_epik_Ionization_Penalty>  (329) 
6.63115e-06

>  <r_epik_Ionization_Penalty_Charging>  (329) 
0

>  <r_epik_Ionization_Penalty_Neutral>  (329) 
6.63115e-06

>  <r_epik_State_Penalty>  (329) 
-0

>  <r_epik_Charging_Adjusted_Penalty>  (329) 
0

>  <i_epik_Tot_Q>  (329) 
0

>  <i_epik_Tot_abs_Q>  (329) 
0

>  <s_lp_Force_Field>  (329) 
OPLS3e

>  <r_lp_Energy>  (329) 
161.802

>  <b_lp_Chiralities_Consistent>  (329) 
1

>  <s_lp_Variant>  (329) 
88:0-1

>  <s_i_glide_gridfile>  (329) 
pfpi4k_grid

>  <i_i_glide_lignum>  (329) 
4

>  <i_i_glide_rotatable_bonds>  (329) 
8

>  <r_i_docking_score>  (329) 
-2.55329

>  <r_i_glide_ligand_efficiency>  (329) 
-0.0709246

>  <r_i_glide_ligand_efficiency_sa>  (329) 
-0.234188

>  <r_i_glide_ligand_efficiency_ln>  (329) 
-0.557058

>  <r_i_glide_gscore>  (329) 
-2.55329

>  <r_i_glide_lipo>  (329) 
-0.392786

>  <r_i_glide_hbond>  (329) 
0

>  <r_i_glide_metal>  (329) 
-0

>  <r_i_glide_rewards>  (329) 
-0.5

>  <r_i_glide_evdw>  (329) 
-21.6305

>  <r_i_glide_ecoul>  (329) 
-3.85985

>  <r_i_glide_erotb>  (329) 
0

>  <r_i_glide_esite>  (329) 
0

>  <r_i_glide_emodel>  (329) 
-34.5313

>  <r_i_glide_energy>  (329) 
-25.4903

>  <r_i_glide_einternal>  (329) 
1.14339

>  <r_i_glide_intrahb_reward>  (329) 
-0.5

>  <i_i_glide_confnum>  (329) 
1

>  <i_i_glide_posenum>  (329) 
32

>  <r_i_glide_eff_state_penalty>  (329) 
0

>  <ligand_id>  (329) 
88

>  <original_smiles>  (329) 
CC(C)C1CC(O)C2C3C(O)C(C)(O)C4C(O)C(O)C(C)(C3(C)CCC12C)C1(O)C(O)C(C)C2CC241

>  <smiles>  (329) 
[H]OC1([H])C([H])([H])C([H])(C([H])(C([H])([H])[H])C([H])([H])[H])C2(C([H])([H])[H])C([H])([H])C([H])([H])C3(C([H])([H])[H])C([H])(C([H])(O[H])C(O[H])(C([H])([H])[H])C4([H])C([H])(O[H])C([H])(O[H])C3(C([H])([H])[H])C3(O[H])C([H])(O[H])C([H])(C([H])([H])[H])C5([H])C([H])([H])C543)C12[H]

$$$$
89:0:0
     RDKit          3D

 72 78  0  0  1  0  0  0  0  0999 V2000
    0.2355   -8.0929    8.5652 C   0  0  0  0  0  0  0  0  0  0  0  0
    0.6039   -7.0120    7.5421 C   0  0  2  0  0  0  0  0  0  0  0  0
    1.0857   -7.6254    6.3907 O   0  0  0  0  0  0  0  0  0  0  0  0
    2.3463   -7.0651    6.0892 C   0  0  1  0  0  0  0  0  0  0  0  0
    2.3752   -6.5653    4.6299 C   0  0  0  0  0  0  0  0  0  0  0  0
    3.5040   -5.5283    4.4282 C   0  0  2  0  0  0  0  0  0  0  0  0
    3.3367   -4.2736    5.3263 C   0  0  2  0  0  0  0  0  0  0  0  0
    2.4444   -4.5305    6.5738 C   0  0  0  0  0  0  0  0  0  0  0  0
    2.5640   -5.9586    7.1307 C   0  0  1  0  0  0  0  0  0  0  0  0
    1.5826   -6.2018    8.1107 O   0  0  0  0  0  0  0  0  0  0  0  0
    2.9302   -2.9987    4.5603 C   0  0  2  0  0  0  0  0  0  0  0  0
    1.4698   -2.9505    4.1024 C   0  0  0  0  0  0  0  0  0  0  0  0
    1.4560   -1.9342    2.9768 C   0  0  0  0  0  0  0  0  0  0  0  0
    2.8475   -1.9541    2.3359 C   0  0  1  0  0  0  0  0  0  0  0  0
    3.1658   -0.5874    1.8862 C   0  0  0  0  0  0  0  0  0  0  0  0
    3.4164    0.4883    1.5391 N   0  0  0  0  0  0  0  0  0  0  0  0
    3.8504   -2.6154    3.3482 C   0  0  1  0  0  0  0  0  0  0  0  0
    4.8557   -1.5803    3.9305 C   0  0  0  0  0  0  0  0  0  0  0  0
    4.6536   -3.8749    2.7765 C   0  0  1  0  0  0  0  0  0  0  0  0
    3.8735   -5.2126    2.9525 C   0  0  2  0  0  0  0  0  0  0  0  0
    2.7606   -5.4124    1.8994 C   0  0  0  0  0  0  0  0  0  0  0  0
    3.2071   -4.9873    0.5283 C   0  0  0  0  0  0  0  0  0  0  0  0
    4.3329   -4.3107    0.2525 C   0  0  0  0  0  0  0  0  0  0  0  0
    4.6890   -4.0178   -1.1888 C   0  0  0  0  0  0  0  0  0  0  0  0
    5.0918   -2.5651   -1.4201 C   0  0  0  0  0  0  0  0  0  0  0  0
    6.2886   -2.2189   -0.5278 C   0  0  0  0  0  0  0  0  0  0  0  0
    5.9030   -2.4338    0.9533 C   0  0  0  0  0  0  0  0  0  0  0  0
    5.3247   -3.8325    1.3300 C   0  0  1  0  0  0  0  0  0  0  0  0
    6.5231   -4.8178    1.2894 C   0  0  0  0  0  0  0  0  0  0  0  0
    5.4158   -2.3860   -2.7566 O   0  0  0  0  0  0  0  0  0  0  0  0
    4.1714   -2.1899   -3.4141 C   0  0  0  0  0  0  0  0  0  0  0  0
    3.3309   -1.5078   -2.3382 C   0  0  0  0  0  0  0  0  0  0  0  0
    4.0260   -1.7341   -1.1251 O   0  0  0  0  0  0  0  0  0  0  0  0
    1.1263   -8.6625    8.8337 H   0  0  0  0  0  0  0  0  0  0  0  0
   -0.5103   -8.7708    8.1463 H   0  0  0  0  0  0  0  0  0  0  0  0
   -0.1669   -7.6227    9.4635 H   0  0  0  0  0  0  0  0  0  0  0  0
   -0.2510   -6.3952    7.2592 H   0  0  0  0  0  0  0  0  0  0  0  0
    3.1013   -7.8391    6.2413 H   0  0  0  0  0  0  0  0  0  0  0  0
    2.5167   -7.4233    3.9737 H   0  0  0  0  0  0  0  0  0  0  0  0
    1.4085   -6.1265    4.3741 H   0  0  0  0  0  0  0  0  0  0  0  0
    4.3963   -6.0231    4.8178 H   0  0  0  0  0  0  0  0  0  0  0  0
    4.3394   -4.0683    5.7113 H   0  0  0  0  0  0  0  0  0  0  0  0
    2.7107   -3.8303    7.3635 H   0  0  0  0  0  0  0  0  0  0  0  0
    1.3971   -4.3435    6.3381 H   0  0  0  0  0  0  0  0  0  0  0  0
    3.5369   -6.0805    7.6063 H   0  0  0  0  0  0  0  0  0  0  0  0
    2.9909   -2.1932    5.2911 H   0  0  0  0  0  0  0  0  0  0  0  0
    1.1033   -3.9170    3.7698 H   0  0  0  0  0  0  0  0  0  0  0  0
    0.8013   -2.6428    4.9086 H   0  0  0  0  0  0  0  0  0  0  0  0
    0.6787   -2.1460    2.2448 H   0  0  0  0  0  0  0  0  0  0  0  0
    1.2429   -0.9438    3.3858 H   0  0  0  0  0  0  0  0  0  0  0  0
    2.7922   -2.5426    1.4280 H   0  0  0  0  0  0  0  0  0  0  0  0
    5.5679   -1.1862    3.2081 H   0  0  0  0  0  0  0  0  0  0  0  0
    5.4395   -2.0251    4.7392 H   0  0  0  0  0  0  0  0  0  0  0  0
    4.3413   -0.7127    4.3500 H   0  0  0  0  0  0  0  0  0  0  0  0
    5.4994   -3.9680    3.4590 H   0  0  0  0  0  0  0  0  0  0  0  0
    4.5719   -6.0089    2.7126 H   0  0  0  0  0  0  0  0  0  0  0  0
    2.5058   -6.4708    1.8271 H   0  0  0  0  0  0  0  0  0  0  0  0
    1.8455   -4.8705    2.1087 H   0  0  0  0  0  0  0  0  0  0  0  0
    2.5619   -5.2877   -0.2850 H   0  0  0  0  0  0  0  0  0  0  0  0
    5.5198   -4.6599   -1.4810 H   0  0  0  0  0  0  0  0  0  0  0  0
    3.8311   -4.2488   -1.8118 H   0  0  0  0  0  0  0  0  0  0  0  0
    7.1405   -2.8314   -0.8219 H   0  0  0  0  0  0  0  0  0  0  0  0
    6.5633   -1.1763   -0.6822 H   0  0  0  0  0  0  0  0  0  0  0  0
    6.7657   -2.2130    1.5830 H   0  0  0  0  0  0  0  0  0  0  0  0
    5.1819   -1.6586    1.1570 H   0  0  0  0  0  0  0  0  0  0  0  0
    7.2426   -4.6188    2.0832 H   0  0  0  0  0  0  0  0  0  0  0  0
    7.0686   -4.7567    0.3495 H   0  0  0  0  0  0  0  0  0  0  0  0
    6.2098   -5.8577    1.3770 H   0  0  0  0  0  0  0  0  0  0  0  0
    4.2547   -1.5890   -4.3215 H   0  0  0  0  0  0  0  0  0  0  0  0
    3.7503   -3.1614   -3.6819 H   0  0  0  0  0  0  0  0  0  0  0  0
    3.2344   -0.4369   -2.5158 H   0  0  0  0  0  0  0  0  0  0  0  0
    2.3297   -1.9342   -2.2939 H   0  0  0  0  0  0  0  0  0  0  0  0
  1  2  1  0
  1 34  1  0
  1 35  1  0
  1 36  1  0
  2 10  1  0
  2  3  1  0
  2 37  1  6
  3  4  1  0
  4  9  1  0
  4  5  1  0
  4 38  1  6
  5  6  1  0
  5 39  1  0
  5 40  1  0
  6 20  1  0
  6  7  1  0
  6 41  1  1
  7  8  1  0
  7 11  1  0
  7 42  1  1
  8  9  1  0
  8 43  1  0
  8 44  1  0
  9 10  1  0
  9 45  1  1
 11 17  1  0
 11 12  1  0
 11 46  1  1
 12 13  1  0
 12 47  1  0
 12 48  1  0
 13 14  1  0
 13 49  1  0
 13 50  1  0
 14 15  1  0
 14 17  1  0
 14 51  1  6
 15 16  3  0
 17 18  1  1
 17 19  1  0
 18 52  1  0
 18 53  1  0
 18 54  1  0
 19 28  1  0
 19 20  1  0
 19 55  1  1
 20 21  1  0
 20 56  1  6
 21 22  1  0
 21 57  1  0
 21 58  1  0
 22 23  2  0
 22 59  1  0
 23 28  1  0
 23 24  1  0
 24 25  1  0
 24 60  1  0
 24 61  1  0
 25 33  1  0
 25 26  1  0
 25 30  1  0
 26 27  1  0
 26 62  1  0
 26 63  1  0
 27 28  1  0
 27 64  1  0
 27 65  1  0
 28 29  1  1
 29 66  1  0
 29 67  1  0
 29 68  1  0
 30 31  1  0
 31 32  1  0
 31 69  1  0
 31 70  1  0
 32 33  1  0
 32 71  1  0
 32 72  1  0
M  END
>  <i_m_ct_stereo_status>  (330) 
1

>  <s_m_source_file>  (330) 
/var/tmp/pbs.5076255.sched01/tmp0q3ly_rt/135fqi89qhj.sdf

>  <i_m_source_file_index>  (330) 
5

>  <i_lp_mmshare_version>  (330) 
48012

>  <i_f3d_flags>  (330) 
0

>  <s_epik_input>  (330) 
W0NIM11bQ0BIXShPMSlPW0NASF0oW0NIMl0yKVtDQEBIXTFbQ0gyXVtDQEBIXShbQ0BIXTNbQ0gyXVtDSF09NClbQ0BIXTJbQ0BIXShbQ0gyXVtDSDJdW0NASF01QyNOKVtDQEBdNShbQ0gzXSlbQ0BASF0zW0NAXShbQ0gzXSkoW0NIMl1bQ0gyXTYpQzRbQ0gyXUM2N09bQ0gyXVtDSDJdTzc=

>  <s_epik_cmdline>  (330) 
J2VwaWtfcHl0aG9uJywgJy1waHQnLCAnMi4wJywgJy1waCcsICc3LjAnLCAnLXRuJywgJzgnLCAnLW1hJywgJzIwMCcsICctaW1hZScsICc8aW5maWxlLm1hZT4nLCAnLW9tYWUnLCAnPG91dGZpbGUubWFlPic=

>  <r_lp_tautomer_probability>  (330) 
1

>  <r_epik_Ionization_Penalty>  (330) 
2.67971e-12

>  <r_epik_Ionization_Penalty_Charging>  (330) 
0

>  <r_epik_Ionization_Penalty_Neutral>  (330) 
2.67971e-12

>  <r_epik_State_Penalty>  (330) 
-0

>  <r_epik_Charging_Adjusted_Penalty>  (330) 
0

>  <i_epik_Tot_Q>  (330) 
0

>  <i_epik_Tot_abs_Q>  (330) 
0

>  <s_epik_Chemistry_Notes>  (330) 
This compound contains an acetal/aminal-like group ( X-CH(R)-Y where X, Y are N, S, or O) that may be acid/base labile, releasing an aldehyde.

>  <s_lp_Force_Field>  (330) 
OPLS3e

>  <r_lp_Energy>  (330) 
37.0634

>  <b_lp_Chiralities_Consistent>  (330) 
1

>  <s_lp_Variant>  (330) 
89:0-1

>  <s_i_glide_gridfile>  (330) 
pfpi4k_grid

>  <i_i_glide_lignum>  (330) 
5

>  <i_i_glide_rotatable_bonds>  (330) 
1

>  <r_i_docking_score>  (330) 
-2.36859

>  <r_i_glide_ligand_efficiency>  (330) 
-0.0717753

>  <r_i_glide_ligand_efficiency_sa>  (330) 
-0.230222

>  <r_i_glide_ligand_efficiency_ln>  (330) 
-0.526761

>  <r_i_glide_gscore>  (330) 
-2.36859

>  <r_i_glide_lipo>  (330) 
-0.507042

>  <r_i_glide_hbond>  (330) 
0

>  <r_i_glide_metal>  (330) 
-0

>  <r_i_glide_rewards>  (330) 
-0.316271

>  <r_i_glide_evdw>  (330) 
-30.0514

>  <r_i_glide_ecoul>  (330) 
-0.00804484

>  <r_i_glide_erotb>  (330) 
0

>  <r_i_glide_esite>  (330) 
-0.0414953

>  <r_i_glide_emodel>  (330) 
-33.4607

>  <r_i_glide_energy>  (330) 
-30.0595

>  <r_i_glide_einternal>  (330) 
0.41598

>  <r_i_glide_intrahb_reward>  (330) 
-0

>  <i_i_glide_confnum>  (330) 
3

>  <i_i_glide_posenum>  (330) 
1

>  <r_i_glide_eff_state_penalty>  (330) 
0

>  <ligand_id>  (330) 
89

>  <original_smiles>  (330) 
CC1OC2CC3C(CC2O1)C1CCC(C#N)C1(C)C1C3CC=C2CC3(CCC21C)OCCO3

>  <smiles>  (330) 
[H]C1=C2C([H])([H])C3(OC([H])([H])C([H])([H])O3)C([H])([H])C([H])([H])C2(C([H])([H])[H])C2([H])C([H])(C1([H])[H])C1([H])C([H])([H])C3([H])OC([H])(C([H])([H])[H])OC3([H])C([H])([H])C1([H])C1([H])C([H])([H])C([H])([H])C([H])(C#N)C12C([H])([H])[H]

$$$$
89:0:1
     RDKit          3D

 72 78  0  0  1  0  0  0  0  0999 V2000
    4.0697   -0.9935   -4.1957 C   0  0  0  0  0  0  0  0  0  0  0  0
    4.3029   -2.1042   -3.1550 C   0  0  2  0  0  0  0  0  0  0  0  0
    3.0883   -2.3937   -2.5650 O   0  0  0  0  0  0  0  0  0  0  0  0
    3.2492   -2.2804   -1.1735 C   0  0  1  0  0  0  0  0  0  0  0  0
    2.6805   -3.5403   -0.4985 C   0  0  0  0  0  0  0  0  0  0  0  0
    3.2322   -3.6823    0.9390 C   0  0  2  0  0  0  0  0  0  0  0  0
    4.7765   -3.7900    0.9698 C   0  0  2  0  0  0  0  0  0  0  0  0
    5.4601   -3.2288   -0.3192 C   0  0  0  0  0  0  0  0  0  0  0  0
    4.7286   -2.0208   -0.9248 C   0  0  1  0  0  0  0  0  0  0  0  0
    5.2126   -1.6467   -2.1997 O   0  0  0  0  0  0  0  0  0  0  0  0
    5.2694   -5.2026    1.3363 C   0  0  2  0  0  0  0  0  0  0  0  0
    5.0893   -6.2322    0.2339 C   0  0  0  0  0  0  0  0  0  0  0  0
    5.1670   -7.5824    0.9205 C   0  0  0  0  0  0  0  0  0  0  0  0
    4.6658   -7.3640    2.3487 C   0  0  1  0  0  0  0  0  0  0  0  0
    5.4233   -8.2559    3.2548 C   0  0  0  0  0  0  0  0  0  0  0  0
    6.0210   -8.9506    3.9595 N   0  0  0  0  0  0  0  0  0  0  0  0
    4.7270   -5.8240    2.6640 C   0  0  1  0  0  0  0  0  0  0  0  0
    5.8126   -5.4855    3.7186 C   0  0  0  0  0  0  0  0  0  0  0  0
    3.3408   -5.1678    3.0836 C   0  0  1  0  0  0  0  0  0  0  0  0
    2.5064   -4.7143    1.8499 C   0  0  2  0  0  0  0  0  0  0  0  0
    1.8056   -5.8884    1.1374 C   0  0  0  0  0  0  0  0  0  0  0  0
    1.1835   -6.8479    2.1119 C   0  0  0  0  0  0  0  0  0  0  0  0
    1.4138   -6.8502    3.4371 C   0  0  0  0  0  0  0  0  0  0  0  0
    0.6690   -7.8413    4.3134 C   0  0  0  0  0  0  0  0  0  0  0  0
    1.6188   -8.5992    5.2567 C   0  0  0  0  0  0  0  0  0  0  0  0
    2.3582   -7.5971    6.1557 C   0  0  0  0  0  0  0  0  0  0  0  0
    3.1729   -6.6236    5.2707 C   0  0  0  0  0  0  0  0  0  0  0  0
    2.3870   -5.8907    4.1388 C   0  0  1  0  0  0  0  0  0  0  0  0
    1.5181   -4.8185    4.8426 C   0  0  0  0  0  0  0  0  0  0  0  0
    0.8843   -9.4965    6.0237 O   0  0  0  0  0  0  0  0  0  0  0  0
    0.7275  -10.6256    5.1824 C   0  0  0  0  0  0  0  0  0  0  0  0
    2.0220  -10.6364    4.3777 C   0  0  0  0  0  0  0  0  0  0  0  0
    2.5388   -9.3266    4.5161 O   0  0  0  0  0  0  0  0  0  0  0  0
    3.7856   -0.0707   -3.6812 H   0  0  0  0  0  0  0  0  0  0  0  0
    3.2847   -1.2912   -4.8980 H   0  0  0  0  0  0  0  0  0  0  0  0
    4.9851   -0.8157   -4.7510 H   0  0  0  0  0  0  0  0  0  0  0  0
    4.6751   -3.0344   -3.5841 H   0  0  0  0  0  0  0  0  0  0  0  0
    2.7255   -1.3898   -0.8371 H   0  0  0  0  0  0  0  0  0  0  0  0
    1.5980   -3.4522   -0.5157 H   0  0  0  0  0  0  0  0  0  0  0  0
    2.9299   -4.4148   -1.1037 H   0  0  0  0  0  0  0  0  0  0  0  0
    3.0159   -2.7185    1.4084 H   0  0  0  0  0  0  0  0  0  0  0  0
    5.0953   -3.1448    1.7919 H   0  0  0  0  0  0  0  0  0  0  0  0
    6.4793   -2.9179   -0.0893 H   0  0  0  0  0  0  0  0  0  0  0  0
    5.5312   -3.9923   -1.0941 H   0  0  0  0  0  0  0  0  0  0  0  0
    4.8353   -1.1629   -0.2575 H   0  0  0  0  0  0  0  0  0  0  0  0
    6.3511   -5.1066    1.4253 H   0  0  0  0  0  0  0  0  0  0  0  0
    4.1841   -6.1132   -0.3510 H   0  0  0  0  0  0  0  0  0  0  0  0
    5.9017   -6.0989   -0.4660 H   0  0  0  0  0  0  0  0  0  0  0  0
    4.6012   -8.3503    0.3901 H   0  0  0  0  0  0  0  0  0  0  0  0
    6.2095   -7.9081    0.9434 H   0  0  0  0  0  0  0  0  0  0  0  0
    3.6420   -7.7166    2.3832 H   0  0  0  0  0  0  0  0  0  0  0  0
    5.5996   -5.8718    4.7126 H   0  0  0  0  0  0  0  0  0  0  0  0
    5.9264   -4.4032    3.8106 H   0  0  0  0  0  0  0  0  0  0  0  0
    6.7866   -5.8923    3.4336 H   0  0  0  0  0  0  0  0  0  0  0  0
    3.6339   -4.2377    3.5691 H   0  0  0  0  0  0  0  0  0  0  0  0
    1.6834   -4.1285    2.2484 H   0  0  0  0  0  0  0  0  0  0  0  0
    1.0073   -5.5160    0.5030 H   0  0  0  0  0  0  0  0  0  0  0  0
    2.4364   -6.4931    0.5006 H   0  0  0  0  0  0  0  0  0  0  0  0
    0.5051   -7.5671    1.6852 H   0  0  0  0  0  0  0  0  0  0  0  0
   -0.0549   -7.3039    4.9282 H   0  0  0  0  0  0  0  0  0  0  0  0
    0.1235   -8.5283    3.6727 H   0  0  0  0  0  0  0  0  0  0  0  0
    1.6373   -7.0683    6.7777 H   0  0  0  0  0  0  0  0  0  0  0  0
    3.0285   -8.1307    6.8313 H   0  0  0  0  0  0  0  0  0  0  0  0
    3.6733   -5.8868    5.9014 H   0  0  0  0  0  0  0  0  0  0  0  0
    3.9580   -7.2347    4.8544 H   0  0  0  0  0  0  0  0  0  0  0  0
    2.1293   -4.0302    5.2847 H   0  0  0  0  0  0  0  0  0  0  0  0
    0.9205   -5.2556    5.6411 H   0  0  0  0  0  0  0  0  0  0  0  0
    0.8041   -4.3552    4.1617 H   0  0  0  0  0  0  0  0  0  0  0  0
    0.5717  -11.5837    5.6809 H   0  0  0  0  0  0  0  0  0  0  0  0
   -0.1390  -10.4562    4.5410 H   0  0  0  0  0  0  0  0  0  0  0  0
    2.7315  -11.3734    4.7599 H   0  0  0  0  0  0  0  0  0  0  0  0
    1.8267  -10.8625    3.3319 H   0  0  0  0  0  0  0  0  0  0  0  0
  1  2  1  0
  1 34  1  0
  1 35  1  0
  1 36  1  0
  2 10  1  0
  2  3  1  0
  2 37  1  6
  3  4  1  0
  4  9  1  0
  4  5  1  0
  4 38  1  1
  5  6  1  0
  5 39  1  0
  5 40  1  0
  6 20  1  0
  6  7  1  0
  6 41  1  1
  7  8  1  0
  7 11  1  0
  7 42  1  1
  8  9  1  0
  8 43  1  0
  8 44  1  0
  9 10  1  0
  9 45  1  1
 11 17  1  0
 11 12  1  0
 11 46  1  1
 12 13  1  0
 12 47  1  0
 12 48  1  0
 13 14  1  0
 13 49  1  0
 13 50  1  0
 14 15  1  0
 14 17  1  0
 14 51  1  6
 15 16  3  0
 17 18  1  1
 17 19  1  0
 18 52  1  0
 18 53  1  0
 18 54  1  0
 19 28  1  0
 19 20  1  0
 19 55  1  1
 20 21  1  0
 20 56  1  1
 21 22  1  0
 21 57  1  0
 21 58  1  0
 22 23  2  0
 22 59  1  0
 23 28  1  0
 23 24  1  0
 24 25  1  0
 24 60  1  0
 24 61  1  0
 25 33  1  0
 25 26  1  0
 25 30  1  0
 26 27  1  0
 26 62  1  0
 26 63  1  0
 27 28  1  0
 27 64  1  0
 27 65  1  0
 28 29  1  1
 29 66  1  0
 29 67  1  0
 29 68  1  0
 30 31  1  0
 31 32  1  0
 31 69  1  0
 31 70  1  0
 32 33  1  0
 32 71  1  0
 32 72  1  0
M  END
>  <i_m_ct_stereo_status>  (331) 
1

>  <s_m_source_file>  (331) 
/var/tmp/pbs.5076255.sched01/tmp0q3ly_rt/135fqi89qhj.sdf

>  <i_m_source_file_index>  (331) 
5

>  <i_lp_mmshare_version>  (331) 
48012

>  <i_f3d_flags>  (331) 
0

>  <s_epik_input>  (331) 
W0NIM11bQ0BIXShPMSlPW0NASF0oW0NIMl0yKVtDQEBIXTFbQ0gyXVtDQEBIXShbQ0BIXTNbQ0gyXVtDSF09NClbQ0BIXTJbQ0BIXShbQ0gyXVtDSDJdW0NASF01QyNOKVtDQEBdNShbQ0gzXSlbQ0BASF0zW0NAXShbQ0gzXSkoW0NIMl1bQ0gyXTYpQzRbQ0gyXUM2N09bQ0gyXVtDSDJdTzc=

>  <s_epik_cmdline>  (331) 
J2VwaWtfcHl0aG9uJywgJy1waHQnLCAnMi4wJywgJy1waCcsICc3LjAnLCAnLXRuJywgJzgnLCAnLW1hJywgJzIwMCcsICctaW1hZScsICc8aW5maWxlLm1hZT4nLCAnLW9tYWUnLCAnPG91dGZpbGUubWFlPic=

>  <r_lp_tautomer_probability>  (331) 
1

>  <r_epik_Ionization_Penalty>  (331) 
2.67971e-12

>  <r_epik_Ionization_Penalty_Charging>  (331) 
0

>  <r_epik_Ionization_Penalty_Neutral>  (331) 
2.67971e-12

>  <r_epik_State_Penalty>  (331) 
-0

>  <r_epik_Charging_Adjusted_Penalty>  (331) 
0

>  <i_epik_Tot_Q>  (331) 
0

>  <i_epik_Tot_abs_Q>  (331) 
0

>  <s_epik_Chemistry_Notes>  (331) 
This compound contains an acetal/aminal-like group ( X-CH(R)-Y where X, Y are N, S, or O) that may be acid/base labile, releasing an aldehyde.

>  <s_lp_Force_Field>  (331) 
OPLS3e

>  <r_lp_Energy>  (331) 
37.0634

>  <b_lp_Chiralities_Consistent>  (331) 
1

>  <s_lp_Variant>  (331) 
89:0-1

>  <s_i_glide_gridfile>  (331) 
pfpi4k_grid

>  <i_i_glide_lignum>  (331) 
5

>  <i_i_glide_rotatable_bonds>  (331) 
1

>  <r_i_docking_score>  (331) 
-2.25608

>  <r_i_glide_ligand_efficiency>  (331) 
-0.0683662

>  <r_i_glide_ligand_efficiency_sa>  (331) 
-0.219287

>  <r_i_glide_ligand_efficiency_ln>  (331) 
-0.501742

>  <r_i_glide_gscore>  (331) 
-2.25608

>  <r_i_glide_lipo>  (331) 
-0.387534

>  <r_i_glide_hbond>  (331) 
0

>  <r_i_glide_metal>  (331) 
-0

>  <r_i_glide_rewards>  (331) 
-0.475875

>  <r_i_glide_evdw>  (331) 
-27.1314

>  <r_i_glide_ecoul>  (331) 
-0.125873

>  <r_i_glide_erotb>  (331) 
0

>  <r_i_glide_esite>  (331) 
-0.0172224

>  <r_i_glide_emodel>  (331) 
-30.2076

>  <r_i_glide_energy>  (331) 
-27.2573

>  <r_i_glide_einternal>  (331) 
0.416383

>  <r_i_glide_intrahb_reward>  (331) 
-0

>  <i_i_glide_confnum>  (331) 
3

>  <i_i_glide_posenum>  (331) 
2

>  <r_i_glide_eff_state_penalty>  (331) 
0

>  <ligand_id>  (331) 
89

>  <original_smiles>  (331) 
CC1OC2CC3C(CC2O1)C1CCC(C#N)C1(C)C1C3CC=C2CC3(CCC21C)OCCO3

>  <smiles>  (331) 
[H]C1=C2C([H])([H])C3(OC([H])([H])C([H])([H])O3)C([H])([H])C([H])([H])C2(C([H])([H])[H])C2([H])C([H])(C1([H])[H])C1([H])C([H])([H])C3([H])OC([H])(C([H])([H])[H])OC3([H])C([H])([H])C1([H])C1([H])C([H])([H])C([H])([H])C([H])(C#N)C12C([H])([H])[H]

$$$$
89:0:2
     RDKit          3D

 72 78  0  0  1  0  0  0  0  0999 V2000
    6.2052  -10.2362    1.5537 C   0  0  0  0  0  0  0  0  0  0  0  0
    5.2091   -9.3173    2.2584 C   0  0  2  0  0  0  0  0  0  0  0  0
    5.2892   -8.0476    1.6880 O   0  0  0  0  0  0  0  0  0  0  0  0
    5.5048   -7.1135    2.7269 C   0  0  1  0  0  0  0  0  0  0  0  0
    4.4499   -5.9865    2.6750 C   0  0  0  0  0  0  0  0  0  0  0  0
    4.3516   -5.2595    4.0377 C   0  0  2  0  0  0  0  0  0  0  0  0
    3.9365   -6.2043    5.1953 C   0  0  2  0  0  0  0  0  0  0  0  0
    4.2276   -7.7032    4.8953 C   0  0  0  0  0  0  0  0  0  0  0  0
    5.4792   -7.9274    4.0290 C   0  0  1  0  0  0  0  0  0  0  0  0
    5.5692   -9.2659    3.6051 O   0  0  0  0  0  0  0  0  0  0  0  0
    2.5043   -5.9743    5.7148 C   0  0  2  0  0  0  0  0  0  0  0  0
    1.3868   -6.4879    4.8004 C   0  0  0  0  0  0  0  0  0  0  0  0
    0.1560   -5.7055    5.2160 C   0  0  0  0  0  0  0  0  0  0  0  0
    0.6461   -4.3675    5.7798 C   0  0  1  0  0  0  0  0  0  0  0  0
   -0.2628   -3.9593    6.8718 C   0  0  0  0  0  0  0  0  0  0  0  0
   -0.9744   -3.6414    7.7238 N   0  0  0  0  0  0  0  0  0  0  0  0
    2.1677   -4.5005    6.1398 C   0  0  1  0  0  0  0  0  0  0  0  0
    2.4071   -4.4695    7.6775 C   0  0  0  0  0  0  0  0  0  0  0  0
    3.1213   -3.4314    5.4297 C   0  0  1  0  0  0  0  0  0  0  0  0
    3.6011   -3.8988    4.0233 C   0  0  2  0  0  0  0  0  0  0  0  0
    2.5327   -3.7062    2.9241 C   0  0  0  0  0  0  0  0  0  0  0  0
    1.8161   -2.3942    3.0649 C   0  0  0  0  0  0  0  0  0  0  0  0
    1.9021   -1.5683    4.1175 C   0  0  0  0  0  0  0  0  0  0  0  0
    1.1804   -0.2376    4.0808 C   0  0  0  0  0  0  0  0  0  0  0  0
    0.3673    0.0247    5.3599 C   0  0  0  0  0  0  0  0  0  0  0  0
    1.3090   -0.0010    6.5724 C   0  0  0  0  0  0  0  0  0  0  0  0
    1.9941   -1.3849    6.6610 C   0  0  0  0  0  0  0  0  0  0  0  0
    2.7320   -1.8847    5.3796 C   0  0  1  0  0  0  0  0  0  0  0  0
    4.0265   -1.0365    5.2719 C   0  0  0  0  0  0  0  0  0  0  0  0
   -0.2640    1.2578    5.2679 O   0  0  0  0  0  0  0  0  0  0  0  0
   -1.4342    1.0126    4.5161 C   0  0  0  0  0  0  0  0  0  0  0  0
   -1.7903   -0.4217    4.9210 C   0  0  0  0  0  0  0  0  0  0  0  0
   -0.6185   -0.9432    5.5111 O   0  0  0  0  0  0  0  0  0  0  0  0
    7.2141   -9.8555    1.7124 H   0  0  0  0  0  0  0  0  0  0  0  0
    5.9891  -10.2784    0.4839 H   0  0  0  0  0  0  0  0  0  0  0  0
    6.1308  -11.2434    1.9697 H   0  0  0  0  0  0  0  0  0  0  0  0
    4.1809   -9.6758    2.1654 H   0  0  0  0  0  0  0  0  0  0  0  0
    6.5060   -6.6966    2.6011 H   0  0  0  0  0  0  0  0  0  0  0  0
    4.7286   -5.2893    1.8843 H   0  0  0  0  0  0  0  0  0  0  0  0
    3.4822   -6.4071    2.4003 H   0  0  0  0  0  0  0  0  0  0  0  0
    5.3808   -4.9849    4.2694 H   0  0  0  0  0  0  0  0  0  0  0  0
    4.5889   -5.9320    6.0301 H   0  0  0  0  0  0  0  0  0  0  0  0
    4.3534   -8.2435    5.8293 H   0  0  0  0  0  0  0  0  0  0  0  0
    3.3787   -8.1641    4.3889 H   0  0  0  0  0  0  0  0  0  0  0  0
    6.3692   -7.7081    4.6217 H   0  0  0  0  0  0  0  0  0  0  0  0
    2.4116   -6.6040    6.5989 H   0  0  0  0  0  0  0  0  0  0  0  0
    1.6106   -6.3445    3.7476 H   0  0  0  0  0  0  0  0  0  0  0  0
    1.2218   -7.5612    4.9242 H   0  0  0  0  0  0  0  0  0  0  0  0
   -0.5360   -5.5650    4.3851 H   0  0  0  0  0  0  0  0  0  0  0  0
   -0.3799   -6.2645    5.9868 H   0  0  0  0  0  0  0  0  0  0  0  0
    0.5156   -3.6157    5.0118 H   0  0  0  0  0  0  0  0  0  0  0  0
    2.1956   -3.5115    8.1476 H   0  0  0  0  0  0  0  0  0  0  0  0
    3.4462   -4.7105    7.9143 H   0  0  0  0  0  0  0  0  0  0  0  0
    1.7855   -5.2028    8.1960 H   0  0  0  0  0  0  0  0  0  0  0  0
    4.0270   -3.4573    6.0390 H   0  0  0  0  0  0  0  0  0  0  0  0
    4.3810   -3.2067    3.7176 H   0  0  0  0  0  0  0  0  0  0  0  0
    3.0093   -3.6912    1.9433 H   0  0  0  0  0  0  0  0  0  0  0  0
    1.7706   -4.4762    2.9008 H   0  0  0  0  0  0  0  0  0  0  0  0
    1.2081   -2.1112    2.2169 H   0  0  0  0  0  0  0  0  0  0  0  0
    1.9143    0.5634    3.9800 H   0  0  0  0  0  0  0  0  0  0  0  0
    0.5476   -0.2104    3.1952 H   0  0  0  0  0  0  0  0  0  0  0  0
    2.0407    0.8026    6.4745 H   0  0  0  0  0  0  0  0  0  0  0  0
    0.7450    0.1988    7.4864 H   0  0  0  0  0  0  0  0  0  0  0  0
    2.6885   -1.3903    7.5043 H   0  0  0  0  0  0  0  0  0  0  0  0
    1.2005   -2.0626    6.9294 H   0  0  0  0  0  0  0  0  0  0  0  0
    4.7302   -1.2651    6.0751 H   0  0  0  0  0  0  0  0  0  0  0  0
    3.8178    0.0316    5.3221 H   0  0  0  0  0  0  0  0  0  0  0  0
    4.5421   -1.1836    4.3234 H   0  0  0  0  0  0  0  0  0  0  0  0
   -2.2323    1.7265    4.7318 H   0  0  0  0  0  0  0  0  0  0  0  0
   -1.2015    1.0794    3.4511 H   0  0  0  0  0  0  0  0  0  0  0  0
   -2.6045   -0.4448    5.6462 H   0  0  0  0  0  0  0  0  0  0  0  0
   -2.0830   -1.0367    4.0739 H   0  0  0  0  0  0  0  0  0  0  0  0
  1  2  1  0
  1 34  1  0
  1 35  1  0
  1 36  1  0
  2 10  1  0
  2  3  1  0
  2 37  1  1
  3  4  1  0
  4  9  1  0
  4  5  1  0
  4 38  1  6
  5  6  1  0
  5 39  1  0
  5 40  1  0
  6 20  1  0
  6  7  1  0
  6 41  1  1
  7  8  1  0
  7 11  1  0
  7 42  1  1
  8  9  1  0
  8 43  1  0
  8 44  1  0
  9 10  1  0
  9 45  1  1
 11 17  1  0
 11 12  1  0
 11 46  1  1
 12 13  1  0
 12 47  1  0
 12 48  1  0
 13 14  1  0
 13 49  1  0
 13 50  1  0
 14 15  1  0
 14 17  1  0
 14 51  1  6
 15 16  3  0
 17 18  1  1
 17 19  1  0
 18 52  1  0
 18 53  1  0
 18 54  1  0
 19 28  1  0
 19 20  1  0
 19 55  1  1
 20 21  1  0
 20 56  1  6
 21 22  1  0
 21 57  1  0
 21 58  1  0
 22 23  2  0
 22 59  1  0
 23 28  1  0
 23 24  1  0
 24 25  1  0
 24 60  1  0
 24 61  1  0
 25 33  1  0
 25 26  1  0
 25 30  1  0
 26 27  1  0
 26 62  1  0
 26 63  1  0
 27 28  1  0
 27 64  1  0
 27 65  1  0
 28 29  1  6
 29 66  1  0
 29 67  1  0
 29 68  1  0
 30 31  1  0
 31 32  1  0
 31 69  1  0
 31 70  1  0
 32 33  1  0
 32 71  1  0
 32 72  1  0
M  END
>  <i_m_ct_stereo_status>  (332) 
1

>  <s_m_source_file>  (332) 
/var/tmp/pbs.5076255.sched01/tmp0q3ly_rt/135fqi89qhj.sdf

>  <i_m_source_file_index>  (332) 
5

>  <i_lp_mmshare_version>  (332) 
48012

>  <i_f3d_flags>  (332) 
0

>  <s_epik_input>  (332) 
W0NIM11bQ0BIXShPMSlPW0NASF0oW0NIMl0yKVtDQEBIXTFbQ0gyXVtDQEBIXShbQ0BIXTNbQ0gyXVtDSF09NClbQ0BIXTJbQ0BIXShbQ0gyXVtDSDJdW0NASF01QyNOKVtDQEBdNShbQ0gzXSlbQ0BASF0zW0NAXShbQ0gzXSkoW0NIMl1bQ0gyXTYpQzRbQ0gyXUM2N09bQ0gyXVtDSDJdTzc=

>  <s_epik_cmdline>  (332) 
J2VwaWtfcHl0aG9uJywgJy1waHQnLCAnMi4wJywgJy1waCcsICc3LjAnLCAnLXRuJywgJzgnLCAnLW1hJywgJzIwMCcsICctaW1hZScsICc8aW5maWxlLm1hZT4nLCAnLW9tYWUnLCAnPG91dGZpbGUubWFlPic=

>  <r_lp_tautomer_probability>  (332) 
1

>  <r_epik_Ionization_Penalty>  (332) 
2.67971e-12

>  <r_epik_Ionization_Penalty_Charging>  (332) 
0

>  <r_epik_Ionization_Penalty_Neutral>  (332) 
2.67971e-12

>  <r_epik_State_Penalty>  (332) 
-0

>  <r_epik_Charging_Adjusted_Penalty>  (332) 
0

>  <i_epik_Tot_Q>  (332) 
0

>  <i_epik_Tot_abs_Q>  (332) 
0

>  <s_epik_Chemistry_Notes>  (332) 
This compound contains an acetal/aminal-like group ( X-CH(R)-Y where X, Y are N, S, or O) that may be acid/base labile, releasing an aldehyde.

>  <s_lp_Force_Field>  (332) 
OPLS3e

>  <r_lp_Energy>  (332) 
37.0634

>  <b_lp_Chiralities_Consistent>  (332) 
1

>  <s_lp_Variant>  (332) 
89:0-1

>  <s_i_glide_gridfile>  (332) 
pfpi4k_grid

>  <i_i_glide_lignum>  (332) 
5

>  <i_i_glide_rotatable_bonds>  (332) 
1

>  <r_i_docking_score>  (332) 
-2.07297

>  <r_i_glide_ligand_efficiency>  (332) 
-0.0628174

>  <r_i_glide_ligand_efficiency_sa>  (332) 
-0.201489

>  <r_i_glide_ligand_efficiency_ln>  (332) 
-0.461019

>  <r_i_glide_gscore>  (332) 
-2.07297

>  <r_i_glide_lipo>  (332) 
-0.0103546

>  <r_i_glide_hbond>  (332) 
-0.0222066

>  <r_i_glide_metal>  (332) 
-0

>  <r_i_glide_rewards>  (332) 
-0.316271

>  <r_i_glide_evdw>  (332) 
-21.9323

>  <r_i_glide_ecoul>  (332) 
-3.86101

>  <r_i_glide_erotb>  (332) 
0

>  <r_i_glide_esite>  (332) 
-0.0483762

>  <r_i_glide_emodel>  (332) 
-28.6882

>  <r_i_glide_energy>  (332) 
-25.7933

>  <r_i_glide_einternal>  (332) 
0.415977

>  <r_i_glide_intrahb_reward>  (332) 
-0

>  <i_i_glide_confnum>  (332) 
3

>  <i_i_glide_posenum>  (332) 
17

>  <r_i_glide_eff_state_penalty>  (332) 
0

>  <ligand_id>  (332) 
89

>  <original_smiles>  (332) 
CC1OC2CC3C(CC2O1)C1CCC(C#N)C1(C)C1C3CC=C2CC3(CCC21C)OCCO3

>  <smiles>  (332) 
[H]C1=C2C([H])([H])C3(OC([H])([H])C([H])([H])O3)C([H])([H])C([H])([H])C2(C([H])([H])[H])C2([H])C([H])(C1([H])[H])C1([H])C([H])([H])C3([H])OC([H])(C([H])([H])[H])OC3([H])C([H])([H])C1([H])C1([H])C([H])([H])C([H])([H])C([H])(C#N)C12C([H])([H])[H]

$$$$
90:0:0
     RDKit          3D

 51 56  0  0  1  0  0  0  0  0999 V2000
    1.3121   -6.3854    1.9362 C   0  0  0  0  0  0  0  0  0  0  0  0
    2.6600   -5.6401    1.9549 C   0  0  2  0  0  0  0  0  0  0  0  0
    2.4832   -4.0882    1.8898 C   0  0  0  0  0  0  0  0  0  0  0  0
    3.7942   -3.4231    1.7182 N   0  0  0  0  0  0  0  0  0  0  0  0
    4.4447   -3.6562    3.0127 C   0  0  0  0  0  0  0  0  0  0  0  0
    4.7449   -5.1574    3.2372 C   0  0  2  0  0  0  0  0  0  0  0  0
    5.5084   -5.3504    4.5566 C   0  0  0  0  0  0  0  0  0  0  0  0
    5.5543   -5.6345    1.9935 C   0  0  0  0  0  0  0  0  0  0  0  0
    4.8370   -5.3346    0.7494 N   0  0  0  0  0  0  0  0  0  0  0  0
    3.5841   -6.0977    0.7789 C   0  0  0  0  0  0  0  0  0  0  0  0
    4.6265   -3.8840    0.5532 C   0  0  1  0  0  0  0  0  0  0  0  0
    3.9380   -3.6309   -0.8181 C   0  0  0  0  0  0  0  0  0  0  0  0
    4.8050   -3.0995   -1.7087 C   0  0  0  0  0  0  0  0  0  0  0  0
    4.6113   -2.5175   -3.3761 S   0  0  0  0  0  0  0  0  0  0  0  0
    2.9932   -3.1691   -3.7941 C   0  0  0  0  0  0  0  0  0  0  0  0
    2.0018   -2.8249   -2.7045 C   0  0  0  0  0  0  0  0  0  0  0  0
    2.2195   -3.8058   -1.2036 S   0  0  0  0  0  0  0  0  0  0  0  0
    6.0410   -2.8004   -1.0756 C   0  0  0  0  0  0  0  0  0  0  0  0
    7.0328   -2.2554   -1.5898 O   0  0  0  0  0  0  0  0  0  0  0  0
    5.9059   -3.1332    0.2199 N   0  0  0  0  0  0  0  0  0  0  0  0
    6.9472   -2.6763    1.1558 C   0  0  0  0  0  0  0  0  0  0  0  0
    6.9481   -1.1887    1.4763 C   0  0  0  0  0  0  0  0  0  0  0  0
    6.2064   -0.5799    2.6666 C   0  0  0  0  0  0  0  0  0  0  0  0
    5.7298   -0.3189    1.2664 C   0  0  0  0  0  0  0  0  0  0  0  0
    3.4076   -5.9127    3.2630 C   0  0  0  0  0  0  0  0  0  0  0  0
    2.9767   -6.5831    4.2073 O   0  0  0  0  0  0  0  0  0  0  0  0
    0.6890   -6.0659    2.7760 H   0  0  0  0  0  0  0  0  0  0  0  0
    1.4783   -7.4605    2.0296 H   0  0  0  0  0  0  0  0  0  0  0  0
    0.7599   -6.2278    1.0060 H   0  0  0  0  0  0  0  0  0  0  0  0
    1.8160   -3.8062    1.1262 H   0  0  0  0  0  0  0  0  0  0  0  0
    1.9959   -3.6980    2.8076 H   0  0  0  0  0  0  0  0  0  0  0  0
    5.3712   -3.1436    3.0875 H   0  0  0  0  0  0  0  0  0  0  0  0
    3.7804   -3.2383    3.7847 H   0  0  0  0  0  0  0  0  0  0  0  0
    5.7098   -6.4096    4.7325 H   0  0  0  0  0  0  0  0  0  0  0  0
    4.9281   -4.9672    5.4033 H   0  0  0  0  0  0  0  0  0  0  0  0
    6.4652   -4.8201    4.5617 H   0  0  0  0  0  0  0  0  0  0  0  0
    6.5413   -5.1768    1.9465 H   0  0  0  0  0  0  0  0  0  0  0  0
    5.7217   -6.7131    2.0426 H   0  0  0  0  0  0  0  0  0  0  0  0
    3.8731   -7.1416    0.8920 H   0  0  0  0  0  0  0  0  0  0  0  0
    3.1049   -6.0208   -0.1964 H   0  0  0  0  0  0  0  0  0  0  0  0
    2.6610   -2.6978   -4.7131 H   0  0  0  0  0  0  0  0  0  0  0  0
    3.0166   -4.2359   -3.9653 H   0  0  0  0  0  0  0  0  0  0  0  0
    2.0842   -1.7680   -2.5016 H   0  0  0  0  0  0  0  0  0  0  0  0
    1.0232   -3.0309   -3.1153 H   0  0  0  0  0  0  0  0  0  0  0  0
    7.0015   -3.2193    2.0748 H   0  0  0  0  0  0  0  0  0  0  0  0
    7.9139   -2.9190    0.6997 H   0  0  0  0  0  0  0  0  0  0  0  0
    7.9303   -0.7591    1.2345 H   0  0  0  0  0  0  0  0  0  0  0  0
    5.5246   -1.1523    3.2908 H   0  0  0  0  0  0  0  0  0  0  0  0
    6.6890    0.2414    3.1938 H   0  0  0  0  0  0  0  0  0  0  0  0
    5.8904    0.6632    0.8250 H   0  0  0  0  0  0  0  0  0  0  0  0
    4.8116   -0.8088    0.9422 H   0  0  0  0  0  0  0  0  0  0  0  0
  2  1  1  1
  1 27  1  0
  1 28  1  0
  1 29  1  0
  2 10  1  0
  2 25  1  0
  2  3  1  0
  3  4  1  0
  3 30  1  0
  3 31  1  0
  4 11  1  0
  4  5  1  0
  5  6  1  0
  5 32  1  0
  5 33  1  0
  6  7  1  1
  6  8  1  0
  6 25  1  0
  7 34  1  0
  7 35  1  0
  7 36  1  0
  8  9  1  0
  8 37  1  0
  8 38  1  0
  9 10  1  0
  9 11  1  0
 10 39  1  0
 10 40  1  0
 11 20  1  6
 11 12  1  0
 12 17  1  0
 12 13  2  0
 13 14  1  0
 13 18  1  0
 14 15  1  0
 15 16  1  0
 15 41  1  0
 15 42  1  0
 16 17  1  0
 16 43  1  0
 16 44  1  0
 18 19  2  0
 18 20  1  0
 20 21  1  0
 21 22  1  0
 21 45  1  0
 21 46  1  0
 22 24  1  0
 22 23  1  0
 22 47  1  0
 23 24  1  0
 23 48  1  0
 23 49  1  0
 24 50  1  0
 24 51  1  0
 25 26  2  0
M  END
>  <i_m_ct_stereo_status>  (333) 
1

>  <s_m_source_file>  (333) 
/var/tmp/pbs.5076255.sched01/tmp0q3ly_rt/135fqi89qhj.sdf

>  <i_m_source_file_index>  (333) 
6

>  <i_lp_mmshare_version>  (333) 
48012

>  <i_f3d_flags>  (333) 
0

>  <s_epik_input>  (333) 
Tz1DMVtDQF0oW0NIMl0yKShbQ0gzXSlbQ0gyXU4zW0NIMl1bQ0BAXTEoW0NIM10pW0NIMl1OMltDQF0zNEM1PUMoU1tDSDJdW0NIMl1TNSlDKD1PKU40W0NIMl1bQ0hdNltDSDJdW0NIMl02

>  <s_epik_cmdline>  (333) 
J2VwaWtfcHl0aG9uJywgJy1waHQnLCAnMi4wJywgJy1waCcsICc3LjAnLCAnLXRuJywgJzgnLCAnLW1hJywgJzIwMCcsICctaW1hZScsICc8aW5maWxlLm1hZT4nLCAnLW9tYWUnLCAnPG91dGZpbGUubWFlPic=

>  <r_lp_tautomer_probability>  (333) 
1

>  <r_epik_Ionization_Penalty>  (333) 
3.51424e-08

>  <r_epik_Ionization_Penalty_Charging>  (333) 
0

>  <r_epik_Ionization_Penalty_Neutral>  (333) 
3.51424e-08

>  <r_epik_State_Penalty>  (333) 
-0

>  <r_epik_Charging_Adjusted_Penalty>  (333) 
0

>  <i_epik_Tot_Q>  (333) 
0

>  <i_epik_Tot_abs_Q>  (333) 
0

>  <s_lp_Force_Field>  (333) 
OPLS3e

>  <r_lp_Energy>  (333) 
5.41981

>  <b_lp_Chiralities_Consistent>  (333) 
1

>  <s_lp_Variant>  (333) 
90:0-1

>  <s_i_glide_gridfile>  (333) 
pfpi4k_grid

>  <i_i_glide_lignum>  (333) 
6

>  <i_i_glide_rotatable_bonds>  (333) 
2

>  <r_i_docking_score>  (333) 
-2.85312

>  <r_i_glide_ligand_efficiency>  (333) 
-0.109735

>  <r_i_glide_ligand_efficiency_sa>  (333) 
-0.325091

>  <r_i_glide_ligand_efficiency_ln>  (333) 
-0.670046

>  <r_i_glide_gscore>  (333) 
-2.85312

>  <r_i_glide_lipo>  (333) 
-0.536966

>  <r_i_glide_hbond>  (333) 
-0.16

>  <r_i_glide_metal>  (333) 
-0

>  <r_i_glide_rewards>  (333) 
-0.863953

>  <r_i_glide_evdw>  (333) 
-20.6481

>  <r_i_glide_ecoul>  (333) 
-3.42037

>  <r_i_glide_erotb>  (333) 
0.254587

>  <r_i_glide_esite>  (333) 
-0.00132896

>  <r_i_glide_emodel>  (333) 
-25.2973

>  <r_i_glide_energy>  (333) 
-24.0685

>  <r_i_glide_einternal>  (333) 
3.58343

>  <r_i_glide_intrahb_reward>  (333) 
-0

>  <i_i_glide_confnum>  (333) 
2

>  <i_i_glide_posenum>  (333) 
1

>  <r_i_glide_eff_state_penalty>  (333) 
0

>  <ligand_id>  (333) 
90

>  <original_smiles>  (333) 
CC12CN3CC(C)(CN(C1)C31C3=C(SCCS3)C(=O)N1CC1CC1)C2=O

>  <smiles>  (333) 
[H]C([H])([H])C12C(=O)C3(C([H])([H])[H])C([H])([H])N(C4(C5=C(SC([H])([H])C([H])([H])S5)C(=O)N4C([H])([H])C4([H])C([H])([H])C4([H])[H])N(C1([H])[H])C3([H])[H])C2([H])[H]

$$$$
90:0:1
     RDKit          3D

 51 56  0  0  1  0  0  0  0  0999 V2000
    4.7605   -0.8997   -1.5765 C   0  0  0  0  0  0  0  0  0  0  0  0
    4.6517   -1.7843   -0.3172 C   0  0  2  0  0  0  0  0  0  0  0  0
    3.1785   -2.0673    0.0829 C   0  0  0  0  0  0  0  0  0  0  0  0
    3.0957   -2.7810    1.3744 N   0  0  0  0  0  0  0  0  0  0  0  0
    3.6425   -4.1065    1.0662 C   0  0  0  0  0  0  0  0  0  0  0  0
    5.1570   -4.0277    0.6929 C   0  0  2  0  0  0  0  0  0  0  0  0
    5.7759   -5.4144    0.4388 C   0  0  0  0  0  0  0  0  0  0  0  0
    5.8694   -3.2622    1.8416 C   0  0  0  0  0  0  0  0  0  0  0  0
    5.2294   -1.9752    2.1046 N   0  0  0  0  0  0  0  0  0  0  0  0
    5.3959   -1.1602    0.9000 C   0  0  0  0  0  0  0  0  0  0  0  0
    3.8136   -2.1242    2.5200 C   0  0  1  0  0  0  0  0  0  0  0  0
    3.2430   -0.7117    2.8835 C   0  0  0  0  0  0  0  0  0  0  0  0
    3.0307   -0.5991    4.1923 C   0  0  0  0  0  0  0  0  0  0  0  0
    2.3838    0.7233    5.1914 S   0  0  0  0  0  0  0  0  0  0  0  0
    2.1936    2.0930    4.0143 C   0  0  0  0  0  0  0  0  0  0  0  0
    1.5525    1.5851    2.7205 C   0  0  0  0  0  0  0  0  0  0  0  0
    2.7704    0.6105    1.7870 S   0  0  0  0  0  0  0  0  0  0  0  0
    3.3311   -1.8190    4.8698 C   0  0  0  0  0  0  0  0  0  0  0  0
    3.2851   -2.0108    6.0824 O   0  0  0  0  0  0  0  0  0  0  0  0
    3.6410   -2.7231    3.9134 N   0  0  0  0  0  0  0  0  0  0  0  0
    3.8136   -4.1310    4.3292 C   0  0  0  0  0  0  0  0  0  0  0  0
    2.5256   -4.8434    4.6907 C   0  0  0  0  0  0  0  0  0  0  0  0
    2.0447   -4.9237    6.1194 C   0  0  0  0  0  0  0  0  0  0  0  0
    2.5719   -6.1591    5.4338 C   0  0  0  0  0  0  0  0  0  0  0  0
    5.2763   -3.1504   -0.5599 C   0  0  0  0  0  0  0  0  0  0  0  0
    5.8116   -3.4908   -1.6206 O   0  0  0  0  0  0  0  0  0  0  0  0
    4.2586   -1.3692   -2.4201 H   0  0  0  0  0  0  0  0  0  0  0  0
    5.8007   -0.7383   -1.8480 H   0  0  0  0  0  0  0  0  0  0  0  0
    4.3061    0.0753   -1.4238 H   0  0  0  0  0  0  0  0  0  0  0  0
    2.6188   -1.1544    0.0611 H   0  0  0  0  0  0  0  0  0  0  0  0
    2.6771   -2.6563   -0.6942 H   0  0  0  0  0  0  0  0  0  0  0  0
    3.4390   -4.8078    1.8687 H   0  0  0  0  0  0  0  0  0  0  0  0
    3.0758   -4.5322    0.2324 H   0  0  0  0  0  0  0  0  0  0  0  0
    6.8234   -5.3185    0.1450 H   0  0  0  0  0  0  0  0  0  0  0  0
    5.2491   -5.9178   -0.3710 H   0  0  0  0  0  0  0  0  0  0  0  0
    5.7307   -6.0544    1.3191 H   0  0  0  0  0  0  0  0  0  0  0  0
    5.9158   -3.8334    2.7626 H   0  0  0  0  0  0  0  0  0  0  0  0
    6.9211   -3.0883    1.5993 H   0  0  0  0  0  0  0  0  0  0  0  0
    6.4654   -1.0699    0.7096 H   0  0  0  0  0  0  0  0  0  0  0  0
    5.0953   -0.1363    1.0936 H   0  0  0  0  0  0  0  0  0  0  0  0
    1.6358    2.9102    4.4691 H   0  0  0  0  0  0  0  0  0  0  0  0
    3.1797    2.4784    3.7537 H   0  0  0  0  0  0  0  0  0  0  0  0
    0.6621    0.9921    2.9461 H   0  0  0  0  0  0  0  0  0  0  0  0
    1.2117    2.4166    2.1093 H   0  0  0  0  0  0  0  0  0  0  0  0
    4.3400   -4.7873    3.6481 H   0  0  0  0  0  0  0  0  0  0  0  0
    4.4580   -4.1330    5.2151 H   0  0  0  0  0  0  0  0  0  0  0  0
    1.7608   -4.7785    3.9205 H   0  0  0  0  0  0  0  0  0  0  0  0
    2.6696   -4.4740    6.8878 H   0  0  0  0  0  0  0  0  0  0  0  0
    0.9737   -4.8530    6.2828 H   0  0  0  0  0  0  0  0  0  0  0  0
    1.8450   -6.9208    5.1671 H   0  0  0  0  0  0  0  0  0  0  0  0
    3.5457   -6.5309    5.7496 H   0  0  0  0  0  0  0  0  0  0  0  0
  2  1  1  6
  1 27  1  0
  1 28  1  0
  1 29  1  0
  2 10  1  0
  2 25  1  0
  2  3  1  0
  3  4  1  0
  3 30  1  0
  3 31  1  0
  4 11  1  0
  4  5  1  0
  5  6  1  0
  5 32  1  0
  5 33  1  0
  6  7  1  6
  6  8  1  0
  6 25  1  0
  7 34  1  0
  7 35  1  0
  7 36  1  0
  8  9  1  0
  8 37  1  0
  8 38  1  0
  9 10  1  0
  9 11  1  0
 10 39  1  0
 10 40  1  0
 11 20  1  1
 11 12  1  0
 12 17  1  0
 12 13  2  0
 13 14  1  0
 13 18  1  0
 14 15  1  0
 15 16  1  0
 15 41  1  0
 15 42  1  0
 16 17  1  0
 16 43  1  0
 16 44  1  0
 18 19  2  0
 18 20  1  0
 20 21  1  0
 21 22  1  0
 21 45  1  0
 21 46  1  0
 22 24  1  0
 22 23  1  0
 22 47  1  0
 23 24  1  0
 23 48  1  0
 23 49  1  0
 24 50  1  0
 24 51  1  0
 25 26  2  0
M  END
>  <i_m_ct_stereo_status>  (334) 
1

>  <s_m_source_file>  (334) 
/var/tmp/pbs.5076255.sched01/tmp0q3ly_rt/135fqi89qhj.sdf

>  <i_m_source_file_index>  (334) 
6

>  <i_lp_mmshare_version>  (334) 
48012

>  <i_f3d_flags>  (334) 
0

>  <s_epik_input>  (334) 
Tz1DMVtDQF0oW0NIMl0yKShbQ0gzXSlbQ0gyXU4zW0NIMl1bQ0BAXTEoW0NIM10pW0NIMl1OMltDQF0zNEM1PUMoU1tDSDJdW0NIMl1TNSlDKD1PKU40W0NIMl1bQ0hdNltDSDJdW0NIMl02

>  <s_epik_cmdline>  (334) 
J2VwaWtfcHl0aG9uJywgJy1waHQnLCAnMi4wJywgJy1waCcsICc3LjAnLCAnLXRuJywgJzgnLCAnLW1hJywgJzIwMCcsICctaW1hZScsICc8aW5maWxlLm1hZT4nLCAnLW9tYWUnLCAnPG91dGZpbGUubWFlPic=

>  <r_lp_tautomer_probability>  (334) 
1

>  <r_epik_Ionization_Penalty>  (334) 
3.51424e-08

>  <r_epik_Ionization_Penalty_Charging>  (334) 
0

>  <r_epik_Ionization_Penalty_Neutral>  (334) 
3.51424e-08

>  <r_epik_State_Penalty>  (334) 
-0

>  <r_epik_Charging_Adjusted_Penalty>  (334) 
0

>  <i_epik_Tot_Q>  (334) 
0

>  <i_epik_Tot_abs_Q>  (334) 
0

>  <s_lp_Force_Field>  (334) 
OPLS3e

>  <r_lp_Energy>  (334) 
5.41981

>  <b_lp_Chiralities_Consistent>  (334) 
1

>  <s_lp_Variant>  (334) 
90:0-1

>  <s_i_glide_gridfile>  (334) 
pfpi4k_grid

>  <i_i_glide_lignum>  (334) 
6

>  <i_i_glide_rotatable_bonds>  (334) 
2

>  <r_i_docking_score>  (334) 
-2.12109

>  <r_i_glide_ligand_efficiency>  (334) 
-0.0815805

>  <r_i_glide_ligand_efficiency_sa>  (334) 
-0.241682

>  <r_i_glide_ligand_efficiency_ln>  (334) 
-0.498132

>  <r_i_glide_gscore>  (334) 
-2.12109

>  <r_i_glide_lipo>  (334) 
-0.386844

>  <r_i_glide_hbond>  (334) 
0

>  <r_i_glide_metal>  (334) 
-0

>  <r_i_glide_rewards>  (334) 
-0.788705

>  <r_i_glide_evdw>  (334) 
-20.5817

>  <r_i_glide_ecoul>  (334) 
-1.1395

>  <r_i_glide_erotb>  (334) 
0.254587

>  <r_i_glide_esite>  (334) 
-0.000120181

>  <r_i_glide_emodel>  (334) 
-24.5389

>  <r_i_glide_energy>  (334) 
-21.7212

>  <r_i_glide_einternal>  (334) 
0.00479824

>  <r_i_glide_intrahb_reward>  (334) 
-0

>  <i_i_glide_confnum>  (334) 
3

>  <i_i_glide_posenum>  (334) 
32

>  <r_i_glide_eff_state_penalty>  (334) 
0

>  <ligand_id>  (334) 
90

>  <original_smiles>  (334) 
CC12CN3CC(C)(CN(C1)C31C3=C(SCCS3)C(=O)N1CC1CC1)C2=O

>  <smiles>  (334) 
[H]C([H])([H])C12C(=O)C3(C([H])([H])[H])C([H])([H])N(C4(C5=C(SC([H])([H])C([H])([H])S5)C(=O)N4C([H])([H])C4([H])C([H])([H])C4([H])[H])N(C1([H])[H])C3([H])[H])C2([H])[H]

$$$$
90:0:2
     RDKit          3D

 51 56  0  0  1  0  0  0  0  0999 V2000
    4.4833   -7.4453    2.8404 C   0  0  0  0  0  0  0  0  0  0  0  0
    4.0004   -6.0074    3.0747 C   0  0  2  0  0  0  0  0  0  0  0  0
    2.8768   -5.6148    2.0663 C   0  0  0  0  0  0  0  0  0  0  0  0
    2.5229   -4.1665    2.2214 N   0  0  0  0  0  0  0  0  0  0  0  0
    1.9040   -4.0723    3.5585 C   0  0  0  0  0  0  0  0  0  0  0  0
    2.9360   -4.3889    4.6861 C   0  0  2  0  0  0  0  0  0  0  0  0
    2.3407   -4.2294    6.0867 C   0  0  0  0  0  0  0  0  0  0  0  0
    4.1658   -3.4642    4.4682 C   0  0  0  0  0  0  0  0  0  0  0  0
    4.6908   -3.5970    3.0971 N   0  0  0  0  0  0  0  0  0  0  0  0
    5.1693   -4.9859    2.9492 C   0  0  0  0  0  0  0  0  0  0  0  0
    3.6847   -3.2115    2.0571 C   0  0  1  0  0  0  0  0  0  0  0  0
    4.3533   -3.2783    0.6687 C   0  0  0  0  0  0  0  0  0  0  0  0
    4.5122   -2.0739    0.1445 C   0  0  0  0  0  0  0  0  0  0  0  0
    5.1948   -1.4855   -1.4003 S   0  0  0  0  0  0  0  0  0  0  0  0
    5.8206   -3.0040   -2.1697 C   0  0  0  0  0  0  0  0  0  0  0  0
    4.7969   -4.1235   -2.0061 C   0  0  0  0  0  0  0  0  0  0  0  0
    4.8077   -4.7261   -0.2896 S   0  0  0  0  0  0  0  0  0  0  0  0
    3.9857   -1.0651    1.0230 C   0  0  0  0  0  0  0  0  0  0  0  0
    4.0711    0.1433    0.8795 O   0  0  0  0  0  0  0  0  0  0  0  0
    3.3806   -1.7336    2.0333 N   0  0  0  0  0  0  0  0  0  0  0  0
    2.5862   -0.9226    2.9879 C   0  0  0  0  0  0  0  0  0  0  0  0
    1.2716   -0.4062    2.4264 C   0  0  0  0  0  0  0  0  0  0  0  0
    1.1739    0.9617    1.7945 C   0  0  0  0  0  0  0  0  0  0  0  0
    0.5287    0.7022    3.1326 C   0  0  0  0  0  0  0  0  0  0  0  0
    3.4142   -5.8246    4.4649 C   0  0  0  0  0  0  0  0  0  0  0  0
    3.3189   -6.7372    5.3154 O   0  0  0  0  0  0  0  0  0  0  0  0
    3.6613   -8.1548    2.9672 H   0  0  0  0  0  0  0  0  0  0  0  0
    5.2640   -7.7183    3.5550 H   0  0  0  0  0  0  0  0  0  0  0  0
    4.8954   -7.5927    1.8394 H   0  0  0  0  0  0  0  0  0  0  0  0
    3.1132   -5.8826    1.0610 H   0  0  0  0  0  0  0  0  0  0  0  0
    1.9677   -6.1985    2.2808 H   0  0  0  0  0  0  0  0  0  0  0  0
    1.4161   -3.1159    3.6801 H   0  0  0  0  0  0  0  0  0  0  0  0
    1.0762   -4.7805    3.5953 H   0  0  0  0  0  0  0  0  0  0  0  0
    3.0726   -4.5021    6.8561 H   0  0  0  0  0  0  0  0  0  0  0  0
    1.4778   -4.8905    6.2157 H   0  0  0  0  0  0  0  0  0  0  0  0
    2.0084   -3.2080    6.2881 H   0  0  0  0  0  0  0  0  0  0  0  0
    3.9547   -2.4237    4.6575 H   0  0  0  0  0  0  0  0  0  0  0  0
    4.9712   -3.7154    5.1584 H   0  0  0  0  0  0  0  0  0  0  0  0
    5.9229   -5.1484    3.7163 H   0  0  0  0  0  0  0  0  0  0  0  0
    5.7216   -5.0838    2.0302 H   0  0  0  0  0  0  0  0  0  0  0  0
    6.0979   -2.8194   -3.2103 H   0  0  0  0  0  0  0  0  0  0  0  0
    6.7265   -3.3142   -1.6544 H   0  0  0  0  0  0  0  0  0  0  0  0
    3.8071   -3.7762   -2.3149 H   0  0  0  0  0  0  0  0  0  0  0  0
    5.0154   -4.9502   -2.6789 H   0  0  0  0  0  0  0  0  0  0  0  0
    2.3539   -1.3866    3.9414 H   0  0  0  0  0  0  0  0  0  0  0  0
    3.1898   -0.0590    3.2748 H   0  0  0  0  0  0  0  0  0  0  0  0
    0.6499   -1.1864    1.9963 H   0  0  0  0  0  0  0  0  0  0  0  0
    2.0670    1.5834    1.7815 H   0  0  0  0  0  0  0  0  0  0  0  0
    0.5313    1.0503    0.9215 H   0  0  0  0  0  0  0  0  0  0  0  0
   -0.5570    0.6596    3.1469 H   0  0  0  0  0  0  0  0  0  0  0  0
    0.9961    1.1538    4.0063 H   0  0  0  0  0  0  0  0  0  0  0  0
  2  1  1  6
  1 27  1  0
  1 28  1  0
  1 29  1  0
  2 10  1  0
  2 25  1  0
  2  3  1  0
  3  4  1  0
  3 30  1  0
  3 31  1  0
  4 11  1  0
  4  5  1  0
  5  6  1  0
  5 32  1  0
  5 33  1  0
  6  7  1  1
  6  8  1  0
  6 25  1  0
  7 34  1  0
  7 35  1  0
  7 36  1  0
  8  9  1  0
  8 37  1  0
  8 38  1  0
  9 10  1  0
  9 11  1  0
 10 39  1  0
 10 40  1  0
 11 20  1  1
 11 12  1  0
 12 17  1  0
 12 13  2  0
 13 14  1  0
 13 18  1  0
 14 15  1  0
 15 16  1  0
 15 41  1  0
 15 42  1  0
 16 17  1  0
 16 43  1  0
 16 44  1  0
 18 19  2  0
 18 20  1  0
 20 21  1  0
 21 22  1  0
 21 45  1  0
 21 46  1  0
 22 24  1  0
 22 23  1  0
 22 47  1  0
 23 24  1  0
 23 48  1  0
 23 49  1  0
 24 50  1  0
 24 51  1  0
 25 26  2  0
M  END
>  <i_m_ct_stereo_status>  (335) 
1

>  <s_m_source_file>  (335) 
/var/tmp/pbs.5076255.sched01/tmp0q3ly_rt/135fqi89qhj.sdf

>  <i_m_source_file_index>  (335) 
6

>  <i_lp_mmshare_version>  (335) 
48012

>  <i_f3d_flags>  (335) 
0

>  <s_epik_input>  (335) 
Tz1DMVtDQF0oW0NIMl0yKShbQ0gzXSlbQ0gyXU4zW0NIMl1bQ0BAXTEoW0NIM10pW0NIMl1OMltDQF0zNEM1PUMoU1tDSDJdW0NIMl1TNSlDKD1PKU40W0NIMl1bQ0hdNltDSDJdW0NIMl02

>  <s_epik_cmdline>  (335) 
J2VwaWtfcHl0aG9uJywgJy1waHQnLCAnMi4wJywgJy1waCcsICc3LjAnLCAnLXRuJywgJzgnLCAnLW1hJywgJzIwMCcsICctaW1hZScsICc8aW5maWxlLm1hZT4nLCAnLW9tYWUnLCAnPG91dGZpbGUubWFlPic=

>  <r_lp_tautomer_probability>  (335) 
1

>  <r_epik_Ionization_Penalty>  (335) 
3.51424e-08

>  <r_epik_Ionization_Penalty_Charging>  (335) 
0

>  <r_epik_Ionization_Penalty_Neutral>  (335) 
3.51424e-08

>  <r_epik_State_Penalty>  (335) 
-0

>  <r_epik_Charging_Adjusted_Penalty>  (335) 
0

>  <i_epik_Tot_Q>  (335) 
0

>  <i_epik_Tot_abs_Q>  (335) 
0

>  <s_lp_Force_Field>  (335) 
OPLS3e

>  <r_lp_Energy>  (335) 
5.41981

>  <b_lp_Chiralities_Consistent>  (335) 
1

>  <s_lp_Variant>  (335) 
90:0-1

>  <s_i_glide_gridfile>  (335) 
pfpi4k_grid

>  <i_i_glide_lignum>  (335) 
6

>  <i_i_glide_rotatable_bonds>  (335) 
2

>  <r_i_docking_score>  (335) 
-1.93264

>  <r_i_glide_ligand_efficiency>  (335) 
-0.0743323

>  <r_i_glide_ligand_efficiency_sa>  (335) 
-0.220209

>  <r_i_glide_ligand_efficiency_ln>  (335) 
-0.453874

>  <r_i_glide_gscore>  (335) 
-1.93264

>  <r_i_glide_lipo>  (335) 
-0.161122

>  <r_i_glide_hbond>  (335) 
0

>  <r_i_glide_metal>  (335) 
-0

>  <r_i_glide_rewards>  (335) 
-0.741407

>  <r_i_glide_evdw>  (335) 
-23.8783

>  <r_i_glide_ecoul>  (335) 
-0.505189

>  <r_i_glide_erotb>  (335) 
0.254587

>  <r_i_glide_esite>  (335) 
-0.0150045

>  <r_i_glide_emodel>  (335) 
-26.8495

>  <r_i_glide_energy>  (335) 
-24.3835

>  <r_i_glide_einternal>  (335) 
0.0203147

>  <r_i_glide_intrahb_reward>  (335) 
-0

>  <i_i_glide_confnum>  (335) 
1

>  <i_i_glide_posenum>  (335) 
27

>  <r_i_glide_eff_state_penalty>  (335) 
0

>  <ligand_id>  (335) 
90

>  <original_smiles>  (335) 
CC12CN3CC(C)(CN(C1)C31C3=C(SCCS3)C(=O)N1CC1CC1)C2=O

>  <smiles>  (335) 
[H]C([H])([H])C12C(=O)C3(C([H])([H])[H])C([H])([H])N(C4(C5=C(SC([H])([H])C([H])([H])S5)C(=O)N4C([H])([H])C4([H])C([H])([H])C4([H])[H])N(C1([H])[H])C3([H])[H])C2([H])[H]

$$$$
91:0:0
     RDKit          3D

 38 43  0  0  1  0  0  0  0  0999 V2000
    2.9021   -2.2243   -3.8424 C   0  0  0  0  0  0  0  0  0  0  0  0
    3.0151   -2.7248   -2.5719 C   0  0  0  0  0  0  0  0  0  0  0  0
    3.7309   -1.8573   -1.6706 C   0  0  0  0  0  0  0  0  0  0  0  0
    4.0063   -2.1236   -0.1990 C   0  0  2  0  0  0  0  0  0  0  0  0
    3.8774   -3.6188    0.1523 C   0  0  0  0  0  0  0  0  0  0  0  0
    3.9612   -3.8347    1.6590 C   0  0  1  0  0  0  0  0  0  0  0  0
    5.2316   -3.1867    2.2665 C   0  0  0  0  0  0  0  0  0  0  0  0
    4.6365   -2.1816    3.2434 C   0  0  2  0  0  0  0  0  0  0  0  0
    3.4732   -3.0442    3.7865 C   0  0  0  0  0  0  0  0  0  0  0  0
    2.7698   -3.1740    2.4284 C   0  0  1  0  0  0  0  0  0  0  0  0
    2.6288   -1.7000    2.0141 C   0  0  1  0  0  0  0  0  0  0  0  0
    1.4452   -0.7726    2.1905 C   0  0  0  0  0  0  0  0  0  0  0  0
    2.1940    0.4956    1.6765 C   0  0  0  0  0  0  0  0  0  0  0  0
    3.5526   -0.1659    1.3890 C   0  0  1  0  0  0  0  0  0  0  0  0
    3.8111   -1.0156    2.6549 C   0  0  2  0  0  0  0  0  0  0  0  0
    3.0861   -1.3261    0.6562 N   0  0  1  0  0  0  0  0  0  0  0  0
    4.1398   -0.7144   -2.3151 C   0  0  0  0  0  0  0  0  0  0  0  0
    3.6467   -0.6638   -3.9877 S   0  0  0  0  0  0  0  0  0  0  0  0
    2.3999   -2.6750   -4.6841 H   0  0  0  0  0  0  0  0  0  0  0  0
    2.6025   -3.6838   -2.2932 H   0  0  0  0  0  0  0  0  0  0  0  0
    5.0250   -1.7848   -0.0158 H   0  0  0  0  0  0  0  0  0  0  0  0
    2.9136   -4.0175   -0.1707 H   0  0  0  0  0  0  0  0  0  0  0  0
    4.6490   -4.1896   -0.3647 H   0  0  0  0  0  0  0  0  0  0  0  0
    3.9739   -4.9063    1.8672 H   0  0  0  0  0  0  0  0  0  0  0  0
    5.8034   -3.9398    2.8166 H   0  0  0  0  0  0  0  0  0  0  0  0
    5.9346   -2.7216    1.5777 H   0  0  0  0  0  0  0  0  0  0  0  0
    5.3325   -1.8725    4.0242 H   0  0  0  0  0  0  0  0  0  0  0  0
    3.7887   -3.9995    4.2183 H   0  0  0  0  0  0  0  0  0  0  0  0
    2.8630   -2.5244    4.5257 H   0  0  0  0  0  0  0  0  0  0  0  0
    1.8406   -3.7432    2.4264 H   0  0  0  0  0  0  0  0  0  0  0  0
    0.6091   -1.0424    1.5514 H   0  0  0  0  0  0  0  0  0  0  0  0
    1.0998   -0.6857    3.2212 H   0  0  0  0  0  0  0  0  0  0  0  0
    1.7205    0.9153    0.7952 H   0  0  0  0  0  0  0  0  0  0  0  0
    2.2573    1.2799    2.4352 H   0  0  0  0  0  0  0  0  0  0  0  0
    4.3699    0.4377    0.9826 H   0  0  0  0  0  0  0  0  0  0  0  0
    3.5232   -0.3903    3.5118 H   0  0  0  0  0  0  0  0  0  0  0  0
    4.6837    0.1317   -1.9162 H   0  0  0  0  0  0  0  0  0  0  0  0
    2.2690   -1.0721    0.0968 H   0  0  0  0  0  0  0  0  0  0  0  0
  1 18  1  0
  1  2  2  0
  1 19  1  0
  2  3  1  0
  2 20  1  0
  3  4  1  0
  3 17  2  0
  4 16  1  0
  4  5  1  0
  4 21  1  1
  5  6  1  0
  5 22  1  0
  5 23  1  0
  6 10  1  0
  6  7  1  0
  6 24  1  6
  7  8  1  0
  7 25  1  0
  7 26  1  0
  8 15  1  0
  8  9  1  0
  8 27  1  1
  9 10  1  0
  9 28  1  0
  9 29  1  0
 10 11  1  0
 10 30  1  1
 11 15  1  0
 11 16  1  0
 11 12  1  1
 12 13  1  0
 12 31  1  0
 12 32  1  0
 13 14  1  0
 13 33  1  0
 13 34  1  0
 14 15  1  0
 14 16  1  0
 14 35  1  6
 15 36  1  1
 16 38  1  6
 17 18  1  0
 17 37  1  0
M  CHG  1  16   1
M  END
>  <i_m_ct_stereo_status>  (336) 
1

>  <s_m_source_file>  (336) 
/var/tmp/pbs.5076255.sched01/tmp0q3ly_rt/135fqi89qhj.sdf

>  <i_m_source_file_index>  (336) 
7

>  <i_lp_mmshare_version>  (336) 
48012

>  <i_f3d_flags>  (336) 
0

>  <s_epik_input>  (336) 
W2NIXTFzW2NIXVtjSF1jMVtDQEhdKFtDSDJdW0NAQEhdMltDQEBIXTNbQ0BAXTQ1NilONltDQEBIXShbQ0gyXVtDSDJdNClbQ0BASF01W0NASF0oW0NIMl0yKVtDSDJdMw==

>  <s_epik_cmdline>  (336) 
J2VwaWtfcHl0aG9uJywgJy1waHQnLCAnMi4wJywgJy1waCcsICc3LjAnLCAnLXRuJywgJzgnLCAnLW1hJywgJzIwMCcsICctaW1hZScsICc8aW5maWxlLm1hZT4nLCAnLW9tYWUnLCAnPG91dGZpbGUubWFlPic=

>  <r_lp_tautomer_probability>  (336) 
1

>  <r_epik_Ionization_Penalty>  (336) 
0.00011258

>  <r_epik_Ionization_Penalty_Charging>  (336) 
0.00011258

>  <r_epik_Ionization_Penalty_Neutral>  (336) 
0

>  <r_epik_State_Penalty>  (336) 
-0

>  <r_epik_Charging_Adjusted_Penalty>  (336) 
0.00011258

>  <i_epik_Tot_Q>  (336) 
1

>  <i_epik_Tot_abs_Q>  (336) 
1

>  <s_lp_Force_Field>  (336) 
OPLS3e

>  <r_lp_Energy>  (336) 
104.062

>  <b_lp_Chiralities_Consistent>  (336) 
1

>  <s_lp_Variant>  (336) 
91:0-1

>  <s_i_glide_gridfile>  (336) 
pfpi4k_grid

>  <i_i_glide_lignum>  (336) 
7

>  <i_i_glide_rotatable_bonds>  (336) 
1

>  <r_i_docking_score>  (336) 
-4.50804

>  <r_i_glide_ligand_efficiency>  (336) 
-0.250446

>  <r_i_glide_ligand_efficiency_sa>  (336) 
-0.656355

>  <r_i_glide_ligand_efficiency_ln>  (336) 
-1.15877

>  <r_i_glide_gscore>  (336) 
-4.50804

>  <r_i_glide_lipo>  (336) 
-0.515241

>  <r_i_glide_hbond>  (336) 
-0.2

>  <r_i_glide_metal>  (336) 
-0

>  <r_i_glide_rewards>  (336) 
-1.64725

>  <r_i_glide_evdw>  (336) 
-23.8059

>  <r_i_glide_ecoul>  (336) 
-7.60586

>  <r_i_glide_erotb>  (336) 
0.264544

>  <r_i_glide_esite>  (336) 
-0.0789077

>  <r_i_glide_emodel>  (336) 
-40.7389

>  <r_i_glide_energy>  (336) 
-31.4118

>  <r_i_glide_einternal>  (336) 
0.521206

>  <r_i_glide_intrahb_reward>  (336) 
-0

>  <i_i_glide_confnum>  (336) 
2

>  <i_i_glide_posenum>  (336) 
40

>  <r_i_glide_eff_state_penalty>  (336) 
0

>  <ligand_id>  (336) 
91

>  <original_smiles>  (336) 
c1cc(C2CC3CC4CC3C35CCC(C43)N25)cs1

>  <smiles>  (336) 
[H]c1sc([H])c(C2([H])C([H])([H])C3([H])C([H])([H])C4([H])C([H])([H])C3([H])C35C([H])([H])C([H])([H])C([H])(C43[H])[N+]25[H])c1[H]

$$$$
91:0:1
     RDKit          3D

 38 43  0  0  1  0  0  0  0  0999 V2000
    2.7338   -1.7278   -3.8568 C   0  0  0  0  0  0  0  0  0  0  0  0
    2.7929   -2.4716   -2.7124 C   0  0  0  0  0  0  0  0  0  0  0  0
    3.7625   -1.9885   -1.7632 C   0  0  0  0  0  0  0  0  0  0  0  0
    4.0540   -2.5853   -0.3978 C   0  0  2  0  0  0  0  0  0  0  0  0
    3.7609   -4.0963   -0.3584 C   0  0  0  0  0  0  0  0  0  0  0  0
    3.8651   -4.6391    1.0605 C   0  0  1  0  0  0  0  0  0  0  0  0
    5.2188   -4.2753    1.7189 C   0  0  0  0  0  0  0  0  0  0  0  0
    4.7699   -3.4412    2.9128 C   0  0  2  0  0  0  0  0  0  0  0  0
    3.5353   -4.2729    3.3268 C   0  0  0  0  0  0  0  0  0  0  0  0
    2.7825   -4.0324    2.0119 C   0  0  1  0  0  0  0  0  0  0  0  0
    2.7950   -2.4976    1.9168 C   0  0  1  0  0  0  0  0  0  0  0  0
    1.7302   -1.5017    2.3345 C   0  0  0  0  0  0  0  0  0  0  0  0
    2.6088   -0.2422    2.0563 C   0  0  0  0  0  0  0  0  0  0  0  0
    3.8756   -0.9710    1.5771 C   0  0  1  0  0  0  0  0  0  0  0  0
    4.0662   -2.0953    2.6260 C   0  0  2  0  0  0  0  0  0  0  0  0
    3.2554   -1.8936    0.6449 N   0  0  1  0  0  0  0  0  0  0  0  0
    4.3950   -0.8652   -2.2399 C   0  0  0  0  0  0  0  0  0  0  0  0
    3.8174   -0.3796   -3.8153 S   0  0  0  0  0  0  0  0  0  0  0  0
    2.0748   -1.8423   -4.7010 H   0  0  0  0  0  0  0  0  0  0  0  0
    2.1549   -3.3266   -2.5465 H   0  0  0  0  0  0  0  0  0  0  0  0
    5.1097   -2.4014   -0.2010 H   0  0  0  0  0  0  0  0  0  0  0  0
    2.7472   -4.3112   -0.7053 H   0  0  0  0  0  0  0  0  0  0  0  0
    4.4442   -4.6204   -1.0267 H   0  0  0  0  0  0  0  0  0  0  0  0
    3.7558   -5.7243    1.0364 H   0  0  0  0  0  0  0  0  0  0  0  0
    5.7139   -5.1863    2.0682 H   0  0  0  0  0  0  0  0  0  0  0  0
    5.9478   -3.7510    1.1036 H   0  0  0  0  0  0  0  0  0  0  0  0
    5.5172   -3.3826    3.7030 H   0  0  0  0  0  0  0  0  0  0  0  0
    3.7491   -5.3266    3.5283 H   0  0  0  0  0  0  0  0  0  0  0  0
    3.0109   -3.8624    4.1896 H   0  0  0  0  0  0  0  0  0  0  0  0
    1.7979   -4.4911    1.9439 H   0  0  0  0  0  0  0  0  0  0  0  0
    0.8477   -1.5313    1.6952 H   0  0  0  0  0  0  0  0  0  0  0  0
    1.4288   -1.6022    3.3808 H   0  0  0  0  0  0  0  0  0  0  0  0
    2.1742    0.4066    1.2951 H   0  0  0  0  0  0  0  0  0  0  0  0
    2.7767    0.3500    2.9607 H   0  0  0  0  0  0  0  0  0  0  0  0
    4.7463   -0.3868    1.2694 H   0  0  0  0  0  0  0  0  0  0  0  0
    3.8766   -1.6370    3.6097 H   0  0  0  0  0  0  0  0  0  0  0  0
    5.1613   -0.2701   -1.7691 H   0  0  0  0  0  0  0  0  0  0  0  0
    2.4513   -1.4510    0.1978 H   0  0  0  0  0  0  0  0  0  0  0  0
  1 18  1  0
  1  2  2  0
  1 19  1  0
  2  3  1  0
  2 20  1  0
  3  4  1  0
  3 17  2  0
  4 16  1  0
  4  5  1  0
  4 21  1  1
  5  6  1  0
  5 22  1  0
  5 23  1  0
  6 10  1  0
  6  7  1  0
  6 24  1  6
  7  8  1  0
  7 25  1  0
  7 26  1  0
  8 15  1  0
  8  9  1  0
  8 27  1  1
  9 10  1  0
  9 28  1  0
  9 29  1  0
 10 11  1  0
 10 30  1  1
 11 15  1  0
 11 16  1  0
 11 12  1  1
 12 13  1  0
 12 31  1  0
 12 32  1  0
 13 14  1  0
 13 33  1  0
 13 34  1  0
 14 15  1  0
 14 16  1  0
 14 35  1  6
 15 36  1  1
 16 38  1  6
 17 18  1  0
 17 37  1  0
M  CHG  1  16   1
M  END
>  <i_m_ct_stereo_status>  (337) 
1

>  <s_m_source_file>  (337) 
/var/tmp/pbs.5076255.sched01/tmp0q3ly_rt/135fqi89qhj.sdf

>  <i_m_source_file_index>  (337) 
7

>  <i_lp_mmshare_version>  (337) 
48012

>  <i_f3d_flags>  (337) 
0

>  <s_epik_input>  (337) 
W2NIXTFzW2NIXVtjSF1jMVtDQEhdKFtDSDJdW0NAQEhdMltDQEBIXTNbQ0BAXTQ1NilONltDQEBIXShbQ0gyXVtDSDJdNClbQ0BASF01W0NASF0oW0NIMl0yKVtDSDJdMw==

>  <s_epik_cmdline>  (337) 
J2VwaWtfcHl0aG9uJywgJy1waHQnLCAnMi4wJywgJy1waCcsICc3LjAnLCAnLXRuJywgJzgnLCAnLW1hJywgJzIwMCcsICctaW1hZScsICc8aW5maWxlLm1hZT4nLCAnLW9tYWUnLCAnPG91dGZpbGUubWFlPic=

>  <r_lp_tautomer_probability>  (337) 
1

>  <r_epik_Ionization_Penalty>  (337) 
0.00011258

>  <r_epik_Ionization_Penalty_Charging>  (337) 
0.00011258

>  <r_epik_Ionization_Penalty_Neutral>  (337) 
0

>  <r_epik_State_Penalty>  (337) 
-0

>  <r_epik_Charging_Adjusted_Penalty>  (337) 
0.00011258

>  <i_epik_Tot_Q>  (337) 
1

>  <i_epik_Tot_abs_Q>  (337) 
1

>  <s_lp_Force_Field>  (337) 
OPLS3e

>  <r_lp_Energy>  (337) 
104.062

>  <b_lp_Chiralities_Consistent>  (337) 
1

>  <s_lp_Variant>  (337) 
91:0-1

>  <s_i_glide_gridfile>  (337) 
pfpi4k_grid

>  <i_i_glide_lignum>  (337) 
7

>  <i_i_glide_rotatable_bonds>  (337) 
1

>  <r_i_docking_score>  (337) 
-4.20479

>  <r_i_glide_ligand_efficiency>  (337) 
-0.233599

>  <r_i_glide_ligand_efficiency_sa>  (337) 
-0.612203

>  <r_i_glide_ligand_efficiency_ln>  (337) 
-1.08082

>  <r_i_glide_gscore>  (337) 
-4.20479

>  <r_i_glide_lipo>  (337) 
-0.47025

>  <r_i_glide_hbond>  (337) 
-0.192882

>  <r_i_glide_metal>  (337) 
-0

>  <r_i_glide_rewards>  (337) 
-1.64725

>  <r_i_glide_evdw>  (337) 
-21.7616

>  <r_i_glide_ecoul>  (337) 
-6.78563

>  <r_i_glide_erotb>  (337) 
0.264544

>  <r_i_glide_esite>  (337) 
-0.0530189

>  <r_i_glide_emodel>  (337) 
-37.3268

>  <r_i_glide_energy>  (337) 
-28.5472

>  <r_i_glide_einternal>  (337) 
0.313706

>  <r_i_glide_intrahb_reward>  (337) 
-0

>  <i_i_glide_confnum>  (337) 
2

>  <i_i_glide_posenum>  (337) 
1

>  <r_i_glide_eff_state_penalty>  (337) 
0

>  <ligand_id>  (337) 
91

>  <original_smiles>  (337) 
c1cc(C2CC3CC4CC3C35CCC(C43)N25)cs1

>  <smiles>  (337) 
[H]c1sc([H])c(C2([H])C([H])([H])C3([H])C([H])([H])C4([H])C([H])([H])C3([H])C35C([H])([H])C([H])([H])C([H])(C43[H])[N+]25[H])c1[H]

$$$$
91:0:2
     RDKit          3D

 38 43  0  0  1  0  0  0  0  0999 V2000
    6.3130   -6.4499    1.0111 C   0  0  0  0  0  0  0  0  0  0  0  0
    6.2997   -5.2069    0.4327 C   0  0  0  0  0  0  0  0  0  0  0  0
    5.0411   -4.8577   -0.1264 C   0  0  0  0  0  0  0  0  0  0  0  0
    4.7960   -3.5613   -0.8389 C   0  0  2  0  0  0  0  0  0  0  0  0
    3.7162   -2.7635   -0.1383 C   0  0  0  0  0  0  0  0  0  0  0  0
    3.3749   -1.5987   -1.0087 C   0  0  1  0  0  0  0  0  0  0  0  0
    4.5872   -0.7660   -1.3750 C   0  0  0  0  0  0  0  0  0  0  0  0
    4.4921   -0.7853   -2.8724 C   0  0  2  0  0  0  0  0  0  0  0  0
    2.9926   -0.7252   -3.1321 C   0  0  0  0  0  0  0  0  0  0  0  0
    2.6767   -1.9959   -2.3604 C   0  0  1  0  0  0  0  0  0  0  0  0
    3.5478   -2.9552   -3.0615 C   0  0  1  0  0  0  0  0  0  0  0  0
    3.1575   -3.8414   -4.1995 C   0  0  0  0  0  0  0  0  0  0  0  0
    4.6164   -4.3950   -4.3845 C   0  0  0  0  0  0  0  0  0  0  0  0
    5.3154   -3.5223   -3.3360 C   0  0  1  0  0  0  0  0  0  0  0  0
    4.6989   -2.1389   -3.5289 C   0  0  2  0  0  0  0  0  0  0  0  0
    4.4188   -3.8172   -2.2495 N   0  0  1  0  0  0  0  0  0  0  0  0
    4.0863   -5.8349    0.0896 C   0  0  0  0  0  0  0  0  0  0  0  0
    4.7514   -7.2079    0.9193 S   0  0  0  0  0  0  0  0  0  0  0  0
    7.1560   -6.9877    1.4287 H   0  0  0  0  0  0  0  0  0  0  0  0
    7.1673   -4.5670    0.3592 H   0  0  0  0  0  0  0  0  0  0  0  0
    5.7322   -3.0151   -0.8467 H   0  0  0  0  0  0  0  0  0  0  0  0
    2.7965   -3.3230   -0.0003 H   0  0  0  0  0  0  0  0  0  0  0  0
    4.0463   -2.4235    0.8424 H   0  0  0  0  0  0  0  0  0  0  0  0
    2.7362   -0.9327   -0.4441 H   0  0  0  0  0  0  0  0  0  0  0  0
    4.3245    0.1832   -0.9609 H   0  0  0  0  0  0  0  0  0  0  0  0
    5.5847   -1.0046   -0.9973 H   0  0  0  0  0  0  0  0  0  0  0  0
    4.9527    0.0613   -3.3449 H   0  0  0  0  0  0  0  0  0  0  0  0
    2.4665    0.1260   -2.7100 H   0  0  0  0  0  0  0  0  0  0  0  0
    2.7070   -0.7308   -4.1911 H   0  0  0  0  0  0  0  0  0  0  0  0
    1.6357   -2.3128   -2.3860 H   0  0  0  0  0  0  0  0  0  0  0  0
    2.4115   -4.6014   -3.9980 H   0  0  0  0  0  0  0  0  0  0  0  0
    2.7846   -3.2669   -5.0420 H   0  0  0  0  0  0  0  0  0  0  0  0
    4.6321   -5.4575   -4.1611 H   0  0  0  0  0  0  0  0  0  0  0  0
    5.0397   -4.2916   -5.3757 H   0  0  0  0  0  0  0  0  0  0  0  0
    6.4019   -3.5681   -3.1913 H   0  0  0  0  0  0  0  0  0  0  0  0
    4.6061   -1.9713   -4.5999 H   0  0  0  0  0  0  0  0  0  0  0  0
    3.0521   -5.8621   -0.2216 H   0  0  0  0  0  0  0  0  0  0  0  0
    4.0246   -4.7379   -2.3473 H   0  0  0  0  0  0  0  0  0  0  0  0
  1 18  1  0
  1  2  2  0
  1 19  1  0
  2  3  1  0
  2 20  1  0
  3  4  1  0
  3 17  2  0
  4 16  1  0
  4  5  1  0
  4 21  1  6
  5  6  1  0
  5 22  1  0
  5 23  1  0
  6 10  1  0
  6  7  1  0
  6 24  1  1
  7  8  1  0
  7 25  1  0
  7 26  1  0
  8 15  1  0
  8  9  1  0
  8 27  1  6
  9 10  1  0
  9 28  1  0
  9 29  1  0
 10 11  1  0
 10 30  1  1
 11 15  1  0
 11 16  1  0
 11 12  1  6
 12 13  1  0
 12 31  1  0
 12 32  1  0
 13 14  1  0
 13 33  1  0
 13 34  1  0
 14 15  1  0
 14 16  1  0
 14 35  1  1
 15 36  1  6
 16 38  1  1
 17 18  1  0
 17 37  1  0
M  CHG  1  16   1
M  END
>  <i_m_ct_stereo_status>  (338) 
1

>  <s_m_source_file>  (338) 
/var/tmp/pbs.5076255.sched01/tmp0q3ly_rt/135fqi89qhj.sdf

>  <i_m_source_file_index>  (338) 
7

>  <i_lp_mmshare_version>  (338) 
48012

>  <i_f3d_flags>  (338) 
0

>  <s_epik_input>  (338) 
W2NIXTFzW2NIXVtjSF1jMVtDQEhdKFtDSDJdW0NAQEhdMltDQEBIXTNbQ0BAXTQ1NilONltDQEBIXShbQ0gyXVtDSDJdNClbQ0BASF01W0NASF0oW0NIMl0yKVtDSDJdMw==

>  <s_epik_cmdline>  (338) 
J2VwaWtfcHl0aG9uJywgJy1waHQnLCAnMi4wJywgJy1waCcsICc3LjAnLCAnLXRuJywgJzgnLCAnLW1hJywgJzIwMCcsICctaW1hZScsICc8aW5maWxlLm1hZT4nLCAnLW9tYWUnLCAnPG91dGZpbGUubWFlPic=

>  <r_lp_tautomer_probability>  (338) 
1

>  <r_epik_Ionization_Penalty>  (338) 
0.00011258

>  <r_epik_Ionization_Penalty_Charging>  (338) 
0.00011258

>  <r_epik_Ionization_Penalty_Neutral>  (338) 
0

>  <r_epik_State_Penalty>  (338) 
-0

>  <r_epik_Charging_Adjusted_Penalty>  (338) 
0.00011258

>  <i_epik_Tot_Q>  (338) 
1

>  <i_epik_Tot_abs_Q>  (338) 
1

>  <s_lp_Force_Field>  (338) 
OPLS3e

>  <r_lp_Energy>  (338) 
104.062

>  <b_lp_Chiralities_Consistent>  (338) 
1

>  <s_lp_Variant>  (338) 
91:0-1

>  <s_i_glide_gridfile>  (338) 
pfpi4k_grid

>  <i_i_glide_lignum>  (338) 
7

>  <i_i_glide_rotatable_bonds>  (338) 
1

>  <r_i_docking_score>  (338) 
-2.97946

>  <r_i_glide_ligand_efficiency>  (338) 
-0.165525

>  <r_i_glide_ligand_efficiency_sa>  (338) 
-0.433799

>  <r_i_glide_ligand_efficiency_ln>  (338) 
-0.765854

>  <r_i_glide_gscore>  (338) 
-2.97946

>  <r_i_glide_lipo>  (338) 
-0.661527

>  <r_i_glide_hbond>  (338) 
0

>  <r_i_glide_metal>  (338) 
-0

>  <r_i_glide_rewards>  (338) 
-1.64725

>  <r_i_glide_evdw>  (338) 
0.53768

>  <r_i_glide_ecoul>  (338) 
-6.20709

>  <r_i_glide_erotb>  (338) 
0.264544

>  <r_i_glide_esite>  (338) 
-0.0310412

>  <r_i_glide_emodel>  (338) 
-10.921

>  <r_i_glide_energy>  (338) 
-5.66941

>  <r_i_glide_einternal>  (338) 
0.309576

>  <r_i_glide_intrahb_reward>  (338) 
-0

>  <i_i_glide_confnum>  (338) 
3

>  <i_i_glide_posenum>  (338) 
4

>  <r_i_glide_eff_state_penalty>  (338) 
0

>  <ligand_id>  (338) 
91

>  <original_smiles>  (338) 
c1cc(C2CC3CC4CC3C35CCC(C43)N25)cs1

>  <smiles>  (338) 
[H]c1sc([H])c(C2([H])C([H])([H])C3([H])C([H])([H])C4([H])C([H])([H])C3([H])C35C([H])([H])C([H])([H])C([H])(C43[H])[N+]25[H])c1[H]

$$$$
92:0:0
     RDKit          3D

 34 36  0  0  1  0  0  0  0  0999 V2000
    3.7267    0.2511   -4.2560 C   0  0  0  0  0  0  0  0  0  0  0  0
    3.9641   -1.0205   -3.6015 N   0  0  0  0  0  0  0  0  0  0  0  0
    4.3402   -1.2644   -2.2936 C   0  0  0  0  0  0  0  0  0  0  0  0
    4.4647   -2.6250   -2.1443 C   0  0  0  0  0  0  0  0  0  0  0  0
    4.8184   -3.4527   -0.9276 C   0  0  2  0  0  0  0  0  0  0  0  0
    3.5450   -3.7484   -0.0960 C   0  0  0  0  0  0  0  0  0  0  0  0
    3.8193   -4.2931    1.3225 C   0  0  1  0  0  0  0  0  0  0  0  0
    4.4030   -5.7309    1.3517 C   0  0  0  0  0  0  0  0  0  0  0  0
    5.7610   -5.7990    0.7539 N   0  0  0  0  0  0  0  0  0  0  0  0
    6.7068   -4.7814    1.2665 C   0  0  0  0  0  0  0  0  0  0  0  0
    6.0887   -3.3653    1.2232 C   0  0  2  0  0  0  0  0  0  0  0  0
    4.7808   -3.3244    2.0160 C   0  0  0  0  0  0  0  0  0  0  0  0
    5.8865   -2.8379   -0.1292 N   0  0  0  0  0  0  0  0  0  0  0  0
    4.1056   -3.1151   -3.4370 C   0  0  0  0  0  0  0  0  0  0  0  0
    3.8213   -2.1554   -4.3044 N   0  0  0  0  0  0  0  0  0  0  0  0
    3.8171    1.0593   -3.5306 H   0  0  0  0  0  0  0  0  0  0  0  0
    2.7255    0.2766   -4.6883 H   0  0  0  0  0  0  0  0  0  0  0  0
    4.4560    0.4101   -5.0488 H   0  0  0  0  0  0  0  0  0  0  0  0
    4.4815   -0.4588   -1.5879 H   0  0  0  0  0  0  0  0  0  0  0  0
    5.2204   -4.4021   -1.2724 H   0  0  0  0  0  0  0  0  0  0  0  0
    2.9734   -2.8248    0.0128 H   0  0  0  0  0  0  0  0  0  0  0  0
    2.9013   -4.4338   -0.6494 H   0  0  0  0  0  0  0  0  0  0  0  0
    2.8737   -4.3027    1.8701 H   0  0  0  0  0  0  0  0  0  0  0  0
    4.4668   -6.0762    2.3861 H   0  0  0  0  0  0  0  0  0  0  0  0
    3.7470   -6.4273    0.8273 H   0  0  0  0  0  0  0  0  0  0  0  0
    6.1486   -6.7228    0.8869 H   0  0  0  0  0  0  0  0  0  0  0  0
    6.9386   -5.0387    2.3019 H   0  0  0  0  0  0  0  0  0  0  0  0
    7.6520   -4.8289    0.7221 H   0  0  0  0  0  0  0  0  0  0  0  0
    6.7960   -2.6858    1.6947 H   0  0  0  0  0  0  0  0  0  0  0  0
    4.3704   -2.3152    2.0522 H   0  0  0  0  0  0  0  0  0  0  0  0
    4.9489   -3.6311    3.0495 H   0  0  0  0  0  0  0  0  0  0  0  0
    5.7170   -1.8465   -0.0793 H   0  0  0  0  0  0  0  0  0  0  0  0
    4.0393   -4.1405   -3.7741 H   0  0  0  0  0  0  0  0  0  0  0  0
    5.6670   -5.6259   -0.2372 H   0  0  0  0  0  0  0  0  0  0  0  0
  1  2  1  0
  1 16  1  0
  1 17  1  0
  1 18  1  0
  2 15  1  0
  2  3  1  0
  3  4  2  0
  3 19  1  0
  4  5  1  0
  4 14  1  0
  5 13  1  0
  5  6  1  0
  5 20  1  6
  6  7  1  0
  6 21  1  0
  6 22  1  0
  7 12  1  0
  7  8  1  0
  7 23  1  1
  8  9  1  0
  8 24  1  0
  8 25  1  0
  9 10  1  0
  9 26  1  0
  9 34  1  0
 10 11  1  0
 10 27  1  0
 10 28  1  0
 11 12  1  0
 11 13  1  0
 11 29  1  1
 12 30  1  0
 12 31  1  0
 13 32  1  0
 14 15  2  0
 14 33  1  0
M  CHG  1   9   1
M  END
>  <i_m_ct_stereo_status>  (339) 
1

>  <s_m_source_file>  (339) 
/var/tmp/pbs.5076255.sched01/tmp0q3ly_rt/135fqi89qhj.sdf

>  <i_m_source_file_index>  (339) 
8

>  <i_lp_mmshare_version>  (339) 
48012

>  <i_f3d_flags>  (339) 
0

>  <s_epik_input>  (339) 
W0NIM11uMVtjSF1jKFtjSF1uMSlbQ0BIXShbQ0gyXVtDSF0yMylbTkhdW0NAQEhdKFtDSDJdMylbQ0gyXVtOSF1bQ0gyXTI=

>  <s_epik_cmdline>  (339) 
J2VwaWtfcHl0aG9uJywgJy1waHQnLCAnMi4wJywgJy1waCcsICc3LjAnLCAnLXRuJywgJzgnLCAnLW1hJywgJzIwMCcsICctaW1hZScsICc8aW5maWxlLm1hZT4nLCAnLW9tYWUnLCAnPG91dGZpbGUubWFlPic=

>  <r_lp_tautomer_probability>  (339) 
1

>  <r_epik_Ionization_Penalty>  (339) 
0.0579255

>  <r_epik_Ionization_Penalty_Charging>  (339) 
0.00149158

>  <r_epik_Ionization_Penalty_Neutral>  (339) 
0.0564339

>  <r_epik_State_Penalty>  (339) 
0.277129

>  <r_epik_Charging_Adjusted_Penalty>  (339) 
0.27862

>  <i_epik_Tot_Q>  (339) 
1

>  <i_epik_Tot_abs_Q>  (339) 
1

>  <s_lp_Force_Field>  (339) 
OPLS3e

>  <r_lp_Energy>  (339) 
21.9565

>  <b_lp_Chiralities_Consistent>  (339) 
1

>  <s_lp_Variant>  (339) 
92:0-1

>  <s_i_glide_gridfile>  (339) 
pfpi4k_grid

>  <i_i_glide_lignum>  (339) 
8

>  <i_i_glide_rotatable_bonds>  (339) 
1

>  <r_i_docking_score>  (339) 
-4.67774

>  <r_i_glide_ligand_efficiency>  (339) 
-0.311849

>  <r_i_glide_ligand_efficiency_sa>  (339) 
-0.769086

>  <r_i_glide_ligand_efficiency_ln>  (339) 
-1.26151

>  <r_i_glide_gscore>  (339) 
-4.67774

>  <r_i_glide_lipo>  (339) 
-0.609731

>  <r_i_glide_hbond>  (339) 
-0.32

>  <r_i_glide_metal>  (339) 
-0

>  <r_i_glide_rewards>  (339) 
-2.32257

>  <r_i_glide_evdw>  (339) 
-20.1755

>  <r_i_glide_ecoul>  (339) 
-5.34178

>  <r_i_glide_erotb>  (339) 
0.38461

>  <r_i_glide_esite>  (339) 
0

>  <r_i_glide_emodel>  (339) 
-32.7371

>  <r_i_glide_energy>  (339) 
-25.5173

>  <r_i_glide_einternal>  (339) 
0.0203331

>  <r_i_glide_intrahb_reward>  (339) 
-0

>  <i_i_glide_confnum>  (339) 
3

>  <i_i_glide_posenum>  (339) 
26

>  <r_i_glide_eff_state_penalty>  (339) 
0

>  <ligand_id>  (339) 
92

>  <original_smiles>  (339) 
Cn1cc(C2CC3CNCC(C3)N2)cn1

>  <smiles>  (339) 
[H]c1nn(C([H])([H])[H])c([H])c1C1([H])N([H])C2([H])C([H])([H])C([H])(C1([H])[H])C([H])([H])[N+]([H])([H])C2([H])[H]

$$$$
92:0:1
     RDKit          3D

 34 36  0  0  1  0  0  0  0  0999 V2000
    3.8716    0.8844   -4.3178 C   0  0  0  0  0  0  0  0  0  0  0  0
    3.8359   -0.4554   -3.7633 N   0  0  0  0  0  0  0  0  0  0  0  0
    4.1850   -0.9076   -2.5094 C   0  0  0  0  0  0  0  0  0  0  0  0
    4.0058   -2.2677   -2.4837 C   0  0  0  0  0  0  0  0  0  0  0  0
    4.2013   -3.2651   -1.3659 C   0  0  2  0  0  0  0  0  0  0  0  0
    2.9319   -3.3060   -0.4741 C   0  0  0  0  0  0  0  0  0  0  0  0
    3.1290   -4.0222    0.8785 C   0  0  1  0  0  0  0  0  0  0  0  0
    3.3398   -5.5563    0.7628 C   0  0  0  0  0  0  0  0  0  0  0  0
    4.6071   -5.9009    0.0698 N   0  0  0  0  0  0  0  0  0  0  0  0
    5.7951   -5.1911    0.5984 C   0  0  0  0  0  0  0  0  0  0  0  0
    5.5530   -3.6674    0.6975 C   0  0  2  0  0  0  0  0  0  0  0  0
    4.3307   -3.3808    1.5748 C   0  0  0  0  0  0  0  0  0  0  0  0
    5.4273   -2.9897   -0.6012 N   0  0  0  0  0  0  0  0  0  0  0  0
    3.5097   -2.5407   -3.7902 C   0  0  0  0  0  0  0  0  0  0  0  0
    3.4490   -1.4658   -4.5550 N   0  0  0  0  0  0  0  0  0  0  0  0
    4.1966    1.5868   -3.5507 H   0  0  0  0  0  0  0  0  0  0  0  0
    2.8946    1.1724   -4.7090 H   0  0  0  0  0  0  0  0  0  0  0  0
    4.5945    0.9273   -5.1283 H   0  0  0  0  0  0  0  0  0  0  0  0
    4.5278   -0.2244   -1.7448 H   0  0  0  0  0  0  0  0  0  0  0  0
    4.3378   -4.2520   -1.8071 H   0  0  0  0  0  0  0  0  0  0  0  0
    2.6187   -2.2822   -0.2584 H   0  0  0  0  0  0  0  0  0  0  0  0
    2.1108   -3.7581   -1.0334 H   0  0  0  0  0  0  0  0  0  0  0  0
    2.2361   -3.8487    1.4851 H   0  0  0  0  0  0  0  0  0  0  0  0
    3.3656   -5.9955    1.7617 H   0  0  0  0  0  0  0  0  0  0  0  0
    2.5078   -6.0237    0.2361 H   0  0  0  0  0  0  0  0  0  0  0  0
    4.7580   -6.9007    0.1097 H   0  0  0  0  0  0  0  0  0  0  0  0
    6.0016   -5.5841    1.5957 H   0  0  0  0  0  0  0  0  0  0  0  0
    6.6786   -5.4167    0.0040 H   0  0  0  0  0  0  0  0  0  0  0  0
    6.4261   -3.2276    1.1769 H   0  0  0  0  0  0  0  0  0  0  0  0
    4.1824   -2.3089    1.7089 H   0  0  0  0  0  0  0  0  0  0  0  0
    4.4646   -3.8050    2.5726 H   0  0  0  0  0  0  0  0  0  0  0  0
    5.5038   -1.9934   -0.4676 H   0  0  0  0  0  0  0  0  0  0  0  0
    3.1990   -3.4867   -4.2129 H   0  0  0  0  0  0  0  0  0  0  0  0
    4.5027   -5.6335   -0.8993 H   0  0  0  0  0  0  0  0  0  0  0  0
  1  2  1  0
  1 16  1  0
  1 17  1  0
  1 18  1  0
  2 15  1  0
  2  3  1  0
  3  4  2  0
  3 19  1  0
  4  5  1  0
  4 14  1  0
  5 13  1  0
  5  6  1  0
  5 20  1  6
  6  7  1  0
  6 21  1  0
  6 22  1  0
  7 12  1  0
  7  8  1  0
  7 23  1  1
  8  9  1  0
  8 24  1  0
  8 25  1  0
  9 10  1  0
  9 26  1  0
  9 34  1  0
 10 11  1  0
 10 27  1  0
 10 28  1  0
 11 12  1  0
 11 13  1  0
 11 29  1  1
 12 30  1  0
 12 31  1  0
 13 32  1  0
 14 15  2  0
 14 33  1  0
M  CHG  1   9   1
M  END
>  <i_m_ct_stereo_status>  (340) 
1

>  <s_m_source_file>  (340) 
/var/tmp/pbs.5076255.sched01/tmp0q3ly_rt/135fqi89qhj.sdf

>  <i_m_source_file_index>  (340) 
8

>  <i_lp_mmshare_version>  (340) 
48012

>  <i_f3d_flags>  (340) 
0

>  <s_epik_input>  (340) 
W0NIM11uMVtjSF1jKFtjSF1uMSlbQ0BIXShbQ0gyXVtDSF0yMylbTkhdW0NAQEhdKFtDSDJdMylbQ0gyXVtOSF1bQ0gyXTI=

>  <s_epik_cmdline>  (340) 
J2VwaWtfcHl0aG9uJywgJy1waHQnLCAnMi4wJywgJy1waCcsICc3LjAnLCAnLXRuJywgJzgnLCAnLW1hJywgJzIwMCcsICctaW1hZScsICc8aW5maWxlLm1hZT4nLCAnLW9tYWUnLCAnPG91dGZpbGUubWFlPic=

>  <r_lp_tautomer_probability>  (340) 
1

>  <r_epik_Ionization_Penalty>  (340) 
0.0579255

>  <r_epik_Ionization_Penalty_Charging>  (340) 
0.00149158

>  <r_epik_Ionization_Penalty_Neutral>  (340) 
0.0564339

>  <r_epik_State_Penalty>  (340) 
0.277129

>  <r_epik_Charging_Adjusted_Penalty>  (340) 
0.27862

>  <i_epik_Tot_Q>  (340) 
1

>  <i_epik_Tot_abs_Q>  (340) 
1

>  <s_lp_Force_Field>  (340) 
OPLS3e

>  <r_lp_Energy>  (340) 
21.9565

>  <b_lp_Chiralities_Consistent>  (340) 
1

>  <s_lp_Variant>  (340) 
92:0-1

>  <s_i_glide_gridfile>  (340) 
pfpi4k_grid

>  <i_i_glide_lignum>  (340) 
8

>  <i_i_glide_rotatable_bonds>  (340) 
1

>  <r_i_docking_score>  (340) 
-4.43053

>  <r_i_glide_ligand_efficiency>  (340) 
-0.295368

>  <r_i_glide_ligand_efficiency_sa>  (340) 
-0.728441

>  <r_i_glide_ligand_efficiency_ln>  (340) 
-1.19484

>  <r_i_glide_gscore>  (340) 
-4.43053

>  <r_i_glide_lipo>  (340) 
-0.370823

>  <r_i_glide_hbond>  (340) 
-0.32

>  <r_i_glide_metal>  (340) 
-0

>  <r_i_glide_rewards>  (340) 
-2.35303

>  <r_i_glide_evdw>  (340) 
-19.9689

>  <r_i_glide_ecoul>  (340) 
-5.15229

>  <r_i_glide_erotb>  (340) 
0.38461

>  <r_i_glide_esite>  (340) 
0

>  <r_i_glide_emodel>  (340) 
-31.9449

>  <r_i_glide_energy>  (340) 
-25.1212

>  <r_i_glide_einternal>  (340) 
0.0283756

>  <r_i_glide_intrahb_reward>  (340) 
-0

>  <i_i_glide_confnum>  (340) 
1

>  <i_i_glide_posenum>  (340) 
20

>  <r_i_glide_eff_state_penalty>  (340) 
0

>  <ligand_id>  (340) 
92

>  <original_smiles>  (340) 
Cn1cc(C2CC3CNCC(C3)N2)cn1

>  <smiles>  (340) 
[H]c1nn(C([H])([H])[H])c([H])c1C1([H])N([H])C2([H])C([H])([H])C([H])(C1([H])[H])C([H])([H])[N+]([H])([H])C2([H])[H]

$$$$
92:0:2
     RDKit          3D

 34 36  0  0  1  0  0  0  0  0999 V2000
    3.2190   -0.2090   -5.0820 C   0  0  0  0  0  0  0  0  0  0  0  0
    3.3073   -1.0383   -3.8928 N   0  0  0  0  0  0  0  0  0  0  0  0
    3.8205   -0.7319   -2.6484 C   0  0  0  0  0  0  0  0  0  0  0  0
    3.6695   -1.8339   -1.8395 C   0  0  0  0  0  0  0  0  0  0  0  0
    4.0245   -2.0100   -0.3797 C   0  0  2  0  0  0  0  0  0  0  0  0
    5.3936   -1.3405   -0.0820 C   0  0  0  0  0  0  0  0  0  0  0  0
    6.0299   -1.7606    1.2598 C   0  0  1  0  0  0  0  0  0  0  0  0
    5.2682   -1.2297    2.5034 C   0  0  0  0  0  0  0  0  0  0  0  0
    3.9126   -1.8212    2.6373 N   0  0  0  0  0  0  0  0  0  0  0  0
    3.8856   -3.2975    2.5333 C   0  0  0  0  0  0  0  0  0  0  0  0
    4.6464   -3.7894    1.2816 C   0  0  2  0  0  0  0  0  0  0  0  0
    6.0924   -3.2920    1.2928 C   0  0  0  0  0  0  0  0  0  0  0  0
    3.9952   -3.4294    0.0165 N   0  0  0  0  0  0  0  0  0  0  0  0
    3.0203   -2.7663   -2.7038 C   0  0  0  0  0  0  0  0  0  0  0  0
    2.8354   -2.2960   -3.9229 N   0  0  0  0  0  0  0  0  0  0  0  0
    3.5830    0.8001   -4.8821 H   0  0  0  0  0  0  0  0  0  0  0  0
    2.1847   -0.1479   -5.4242 H   0  0  0  0  0  0  0  0  0  0  0  0
    3.8067   -0.6549   -5.8839 H   0  0  0  0  0  0  0  0  0  0  0  0
    4.2269    0.2469   -2.4419 H   0  0  0  0  0  0  0  0  0  0  0  0
    3.2626   -1.5213    0.2260 H   0  0  0  0  0  0  0  0  0  0  0  0
    6.0912   -1.6275   -0.8734 H   0  0  0  0  0  0  0  0  0  0  0  0
    5.2896   -0.2541   -0.1314 H   0  0  0  0  0  0  0  0  0  0  0  0
    7.0497   -1.3634    1.2822 H   0  0  0  0  0  0  0  0  0  0  0  0
    5.8243   -1.4750    3.4066 H   0  0  0  0  0  0  0  0  0  0  0  0
    5.1867   -0.1440    2.4696 H   0  0  0  0  0  0  0  0  0  0  0  0
    3.4990   -1.5341    3.5155 H   0  0  0  0  0  0  0  0  0  0  0  0
    4.3656   -3.7096    3.4231 H   0  0  0  0  0  0  0  0  0  0  0  0
    2.8563   -3.6619    2.5478 H   0  0  0  0  0  0  0  0  0  0  0  0
    4.6551   -4.8771    1.3072 H   0  0  0  0  0  0  0  0  0  0  0  0
    6.6514   -3.6896    0.4442 H   0  0  0  0  0  0  0  0  0  0  0  0
    6.6039   -3.6396    2.1903 H   0  0  0  0  0  0  0  0  0  0  0  0
    4.3535   -3.9961   -0.7390 H   0  0  0  0  0  0  0  0  0  0  0  0
    2.6752   -3.7631   -2.4853 H   0  0  0  0  0  0  0  0  0  0  0  0
    3.3401   -1.4736    1.8791 H   0  0  0  0  0  0  0  0  0  0  0  0
  1  2  1  0
  1 16  1  0
  1 17  1  0
  1 18  1  0
  2 15  1  0
  2  3  1  0
  3  4  2  0
  3 19  1  0
  4  5  1  0
  4 14  1  0
  5 13  1  0
  5  6  1  0
  5 20  1  1
  6  7  1  0
  6 21  1  0
  6 22  1  0
  7 12  1  0
  7  8  1  0
  7 23  1  6
  8  9  1  0
  8 24  1  0
  8 25  1  0
  9 10  1  0
  9 26  1  0
  9 34  1  0
 10 11  1  0
 10 27  1  0
 10 28  1  0
 11 12  1  0
 11 13  1  0
 11 29  1  1
 12 30  1  0
 12 31  1  0
 13 32  1  0
 14 15  2  0
 14 33  1  0
M  CHG  1   9   1
M  END
>  <i_m_ct_stereo_status>  (341) 
1

>  <s_m_source_file>  (341) 
/var/tmp/pbs.5076255.sched01/tmp0q3ly_rt/135fqi89qhj.sdf

>  <i_m_source_file_index>  (341) 
8

>  <i_lp_mmshare_version>  (341) 
48012

>  <i_f3d_flags>  (341) 
0

>  <s_epik_input>  (341) 
W0NIM11uMVtjSF1jKFtjSF1uMSlbQ0BIXShbQ0gyXVtDSF0yMylbTkhdW0NAQEhdKFtDSDJdMylbQ0gyXVtOSF1bQ0gyXTI=

>  <s_epik_cmdline>  (341) 
J2VwaWtfcHl0aG9uJywgJy1waHQnLCAnMi4wJywgJy1waCcsICc3LjAnLCAnLXRuJywgJzgnLCAnLW1hJywgJzIwMCcsICctaW1hZScsICc8aW5maWxlLm1hZT4nLCAnLW9tYWUnLCAnPG91dGZpbGUubWFlPic=

>  <r_lp_tautomer_probability>  (341) 
1

>  <r_epik_Ionization_Penalty>  (341) 
0.0579255

>  <r_epik_Ionization_Penalty_Charging>  (341) 
0.00149158

>  <r_epik_Ionization_Penalty_Neutral>  (341) 
0.0564339

>  <r_epik_State_Penalty>  (341) 
0.277129

>  <r_epik_Charging_Adjusted_Penalty>  (341) 
0.27862

>  <i_epik_Tot_Q>  (341) 
1

>  <i_epik_Tot_abs_Q>  (341) 
1

>  <s_lp_Force_Field>  (341) 
OPLS3e

>  <r_lp_Energy>  (341) 
21.9565

>  <b_lp_Chiralities_Consistent>  (341) 
1

>  <s_lp_Variant>  (341) 
92:0-1

>  <s_i_glide_gridfile>  (341) 
pfpi4k_grid

>  <i_i_glide_lignum>  (341) 
8

>  <i_i_glide_rotatable_bonds>  (341) 
1

>  <r_i_docking_score>  (341) 
-3.80464

>  <r_i_glide_ligand_efficiency>  (341) 
-0.253642

>  <r_i_glide_ligand_efficiency_sa>  (341) 
-0.625536

>  <r_i_glide_ligand_efficiency_ln>  (341) 
-1.02605

>  <r_i_glide_gscore>  (341) 
-3.80464

>  <r_i_glide_lipo>  (341) 
-0.531611

>  <r_i_glide_hbond>  (341) 
0

>  <r_i_glide_metal>  (341) 
-0

>  <r_i_glide_rewards>  (341) 
-2.22972

>  <r_i_glide_evdw>  (341) 
-21.0347

>  <r_i_glide_ecoul>  (341) 
-2.50761

>  <r_i_glide_erotb>  (341) 
0.38461

>  <r_i_glide_esite>  (341) 
-3.84429e-05

>  <r_i_glide_emodel>  (341) 
-29.1444

>  <r_i_glide_energy>  (341) 
-23.5423

>  <r_i_glide_einternal>  (341) 
0.380366

>  <r_i_glide_intrahb_reward>  (341) 
-0

>  <i_i_glide_confnum>  (341) 
4

>  <i_i_glide_posenum>  (341) 
21

>  <r_i_glide_eff_state_penalty>  (341) 
0

>  <ligand_id>  (341) 
92

>  <original_smiles>  (341) 
Cn1cc(C2CC3CNCC(C3)N2)cn1

>  <smiles>  (341) 
[H]c1nn(C([H])([H])[H])c([H])c1C1([H])N([H])C2([H])C([H])([H])C([H])(C1([H])[H])C([H])([H])[N+]([H])([H])C2([H])[H]

$$$$
92:1:0
     RDKit          3D

 34 36  0  0  1  0  0  0  0  0999 V2000
    3.6992    0.4883   -4.4691 C   0  0  0  0  0  0  0  0  0  0  0  0
    3.7521   -0.7520   -3.7168 N   0  0  0  0  0  0  0  0  0  0  0  0
    4.0667   -0.9616   -2.3917 C   0  0  0  0  0  0  0  0  0  0  0  0
    3.9503   -2.3039   -2.1312 C   0  0  0  0  0  0  0  0  0  0  0  0
    4.1663   -3.0356   -0.8290 C   0  0  2  0  0  0  0  0  0  0  0  0
    5.1462   -2.2447    0.0787 C   0  0  0  0  0  0  0  0  0  0  0  0
    5.7613   -3.0642    1.2327 C   0  0  1  0  0  0  0  0  0  0  0  0
    4.7567   -3.4536    2.3446 C   0  0  0  0  0  0  0  0  0  0  0  0
    3.7015   -4.3375    1.8505 N   0  0  0  0  0  0  0  0  0  0  0  0
    4.2471   -5.5239    1.1888 C   0  0  0  0  0  0  0  0  0  0  0  0
    5.2470   -5.1458    0.0665 C   0  0  2  0  0  0  0  0  0  0  0  0
    6.3977   -4.3249    0.6472 C   0  0  0  0  0  0  0  0  0  0  0  0
    4.6209   -4.4298   -1.0791 N   0  0  0  0  0  0  0  0  0  0  0  0
    3.5282   -2.8349   -3.3820 C   0  0  0  0  0  0  0  0  0  0  0  0
    3.4457   -1.9128   -4.3223 N   0  0  0  0  0  0  0  0  0  0  0  0
    4.1853    1.2917   -3.9166 H   0  0  0  0  0  0  0  0  0  0  0  0
    2.6622    0.7702   -4.6608 H   0  0  0  0  0  0  0  0  0  0  0  0
    4.2061    0.3667   -5.4250 H   0  0  0  0  0  0  0  0  0  0  0  0
    4.3312   -0.1368   -1.7501 H   0  0  0  0  0  0  0  0  0  0  0  0
    3.2066   -3.1118   -0.3234 H   0  0  0  0  0  0  0  0  0  0  0  0
    5.9831   -1.8922   -0.5294 H   0  0  0  0  0  0  0  0  0  0  0  0
    4.6499   -1.3542    0.4694 H   0  0  0  0  0  0  0  0  0  0  0  0
    6.5467   -2.4555    1.6860 H   0  0  0  0  0  0  0  0  0  0  0  0
    5.2817   -3.9440    3.1642 H   0  0  0  0  0  0  0  0  0  0  0  0
    4.2905   -2.5608    2.7576 H   0  0  0  0  0  0  0  0  0  0  0  0
    3.1433   -3.8209    1.1852 H   0  0  0  0  0  0  0  0  0  0  0  0
    4.7683   -6.1191    1.9414 H   0  0  0  0  0  0  0  0  0  0  0  0
    3.4371   -6.1493    0.8091 H   0  0  0  0  0  0  0  0  0  0  0  0
    5.6493   -6.0710   -0.3363 H   0  0  0  0  0  0  0  0  0  0  0  0
    7.1422   -4.0845   -0.1161 H   0  0  0  0  0  0  0  0  0  0  0  0
    6.9084   -4.8866    1.4293 H   0  0  0  0  0  0  0  0  0  0  0  0
    3.8455   -4.9825   -1.4245 H   0  0  0  0  0  0  0  0  0  0  0  0
    3.2820   -3.8557   -3.6455 H   0  0  0  0  0  0  0  0  0  0  0  0
    5.3316   -4.3823   -1.7999 H   0  0  0  0  0  0  0  0  0  0  0  0
  1  2  1  0
  1 16  1  0
  1 17  1  0
  1 18  1  0
  2 15  1  0
  2  3  1  0
  3  4  2  0
  3 19  1  0
  4  5  1  0
  4 14  1  0
  5 13  1  0
  5  6  1  0
  5 20  1  1
  6  7  1  0
  6 21  1  0
  6 22  1  0
  7 12  1  0
  7  8  1  0
  7 23  1  1
  8  9  1  0
  8 24  1  0
  8 25  1  0
  9 10  1  0
  9 26  1  0
 10 11  1  0
 10 27  1  0
 10 28  1  0
 11 12  1  0
 11 13  1  0
 11 29  1  6
 12 30  1  0
 12 31  1  0
 13 32  1  0
 13 34  1  0
 14 15  2  0
 14 33  1  0
M  CHG  1  13   1
M  END
>  <i_m_ct_stereo_status>  (342) 
1

>  <s_m_source_file>  (342) 
/var/tmp/pbs.5076255.sched01/tmp0q3ly_rt/135fqi89qhj.sdf

>  <i_m_source_file_index>  (342) 
9

>  <i_lp_mmshare_version>  (342) 
48012

>  <i_f3d_flags>  (342) 
0

>  <s_epik_input>  (342) 
W0NIM11uMVtjSF1jKFtjSF1uMSlbQ0BIXShbQ0gyXVtDSF0yMylbTkhdW0NAQEhdKFtDSDJdMylbQ0gyXVtOSF1bQ0gyXTI=

>  <s_epik_cmdline>  (342) 
J2VwaWtfcHl0aG9uJywgJy1waHQnLCAnMi4wJywgJy1waCcsICc3LjAnLCAnLXRuJywgJzgnLCAnLW1hJywgJzIwMCcsICctaW1hZScsICc8aW5maWxlLm1hZT4nLCAnLW9tYWUnLCAnPG91dGZpbGUubWFlPic=

>  <r_epik_Ionization_Penalty>  (342) 
0.123099

>  <r_epik_Ionization_Penalty_Charging>  (342) 
0.0218119

>  <r_epik_Ionization_Penalty_Neutral>  (342) 
0.101287

>  <r_epik_State_Penalty>  (342) 
0.674651

>  <r_epik_Charging_Adjusted_Penalty>  (342) 
0.696463

>  <i_epik_Tot_Q>  (342) 
1

>  <i_epik_Tot_abs_Q>  (342) 
1

>  <s_lp_Force_Field>  (342) 
OPLS3e

>  <r_lp_Energy>  (342) 
21.1039

>  <b_lp_Chiralities_Consistent>  (342) 
1

>  <s_lp_Variant>  (342) 
92:0-2

>  <s_i_glide_gridfile>  (342) 
pfpi4k_grid

>  <i_i_glide_lignum>  (342) 
9

>  <i_i_glide_rotatable_bonds>  (342) 
1

>  <r_i_docking_score>  (342) 
-4.90418

>  <r_i_glide_ligand_efficiency>  (342) 
-0.326945

>  <r_i_glide_ligand_efficiency_sa>  (342) 
-0.806316

>  <r_i_glide_ligand_efficiency_ln>  (342) 
-1.32258

>  <r_i_glide_gscore>  (342) 
-4.90418

>  <r_i_glide_lipo>  (342) 
-0.53433

>  <r_i_glide_hbond>  (342) 
-0.32

>  <r_i_glide_metal>  (342) 
-0

>  <r_i_glide_rewards>  (342) 
-2.31942

>  <r_i_glide_evdw>  (342) 
-20.2853

>  <r_i_glide_ecoul>  (342) 
-7.15762

>  <r_i_glide_erotb>  (342) 
0.38461

>  <r_i_glide_esite>  (342) 
-0.0271239

>  <r_i_glide_emodel>  (342) 
-35.1566

>  <r_i_glide_energy>  (342) 
-27.4429

>  <r_i_glide_einternal>  (342) 
1.72342

>  <r_i_glide_intrahb_reward>  (342) 
-0

>  <i_i_glide_confnum>  (342) 
1

>  <i_i_glide_posenum>  (342) 
1

>  <r_i_glide_eff_state_penalty>  (342) 
0

>  <ligand_id>  (342) 
92

>  <original_smiles>  (342) 
Cn1cc(C2CC3CNCC(C3)N2)cn1

>  <smiles>  (342) 
[H]c1nn(C([H])([H])[H])c([H])c1C1([H])C([H])([H])C2([H])C([H])([H])N([H])C([H])([H])C([H])(C2([H])[H])[N+]1([H])[H]

$$$$
92:1:1
     RDKit          3D

 34 36  0  0  1  0  0  0  0  0999 V2000
    3.9299    0.9620   -4.6040 C   0  0  0  0  0  0  0  0  0  0  0  0
    3.8247   -0.3385   -3.9768 N   0  0  0  0  0  0  0  0  0  0  0  0
    3.9808   -0.6856   -2.6577 C   0  0  0  0  0  0  0  0  0  0  0  0
    3.7341   -2.0302   -2.5321 C   0  0  0  0  0  0  0  0  0  0  0  0
    3.7346   -2.9008   -1.2901 C   0  0  2  0  0  0  0  0  0  0  0  0
    4.1227   -2.0621   -0.0408 C   0  0  0  0  0  0  0  0  0  0  0  0
    4.5522   -2.8927    1.1853 C   0  0  1  0  0  0  0  0  0  0  0  0
    3.4033   -3.6816    1.8584 C   0  0  0  0  0  0  0  0  0  0  0  0
    2.8344   -4.6920    0.9683 N   0  0  0  0  0  0  0  0  0  0  0  0
    3.8673   -5.5919    0.4452 C   0  0  0  0  0  0  0  0  0  0  0  0
    5.0224   -4.8155   -0.2466 C   0  0  2  0  0  0  0  0  0  0  0  0
    5.6624   -3.8524    0.7552 C   0  0  0  0  0  0  0  0  0  0  0  0
    4.6135   -4.0901   -1.4774 N   0  0  0  0  0  0  0  0  0  0  0  0
    3.4196   -2.4134   -3.8611 C   0  0  0  0  0  0  0  0  0  0  0  0
    3.5291   -1.4124   -4.7169 N   0  0  0  0  0  0  0  0  0  0  0  0
    4.4018    1.6665   -3.9183 H   0  0  0  0  0  0  0  0  0  0  0  0
    2.9444    1.3437   -4.8697 H   0  0  0  0  0  0  0  0  0  0  0  0
    4.5383    0.9026   -5.5027 H   0  0  0  0  0  0  0  0  0  0  0  0
    4.2246    0.0641   -1.9188 H   0  0  0  0  0  0  0  0  0  0  0  0
    2.7255   -3.2753   -1.1527 H   0  0  0  0  0  0  0  0  0  0  0  0
    4.9838   -1.4297   -0.2799 H   0  0  0  0  0  0  0  0  0  0  0  0
    3.3000   -1.3871    0.2181 H   0  0  0  0  0  0  0  0  0  0  0  0
    4.9624   -2.1978    1.9217 H   0  0  0  0  0  0  0  0  0  0  0  0
    3.7691   -4.1607    2.7657 H   0  0  0  0  0  0  0  0  0  0  0  0
    2.6102   -2.9991    2.1574 H   0  0  0  0  0  0  0  0  0  0  0  0
    2.4217   -4.2121    0.1805 H   0  0  0  0  0  0  0  0  0  0  0  0
    4.2738   -6.1670    1.2809 H   0  0  0  0  0  0  0  0  0  0  0  0
    3.4153   -6.3140   -0.2385 H   0  0  0  0  0  0  0  0  0  0  0  0
    5.7700   -5.5432   -0.5497 H   0  0  0  0  0  0  0  0  0  0  0  0
    6.5056   -3.3214    0.3058 H   0  0  0  0  0  0  0  0  0  0  0  0
    6.0460   -4.3984    1.6169 H   0  0  0  0  0  0  0  0  0  0  0  0
    4.1247   -4.7537   -2.0706 H   0  0  0  0  0  0  0  0  0  0  0  0
    3.1134   -3.3812   -4.2373 H   0  0  0  0  0  0  0  0  0  0  0  0
    5.4580   -3.7738   -1.9314 H   0  0  0  0  0  0  0  0  0  0  0  0
  1  2  1  0
  1 16  1  0
  1 17  1  0
  1 18  1  0
  2 15  1  0
  2  3  1  0
  3  4  2  0
  3 19  1  0
  4  5  1  0
  4 14  1  0
  5 13  1  0
  5  6  1  0
  5 20  1  1
  6  7  1  0
  6 21  1  0
  6 22  1  0
  7 12  1  0
  7  8  1  0
  7 23  1  1
  8  9  1  0
  8 24  1  0
  8 25  1  0
  9 10  1  0
  9 26  1  0
 10 11  1  0
 10 27  1  0
 10 28  1  0
 11 12  1  0
 11 13  1  0
 11 29  1  6
 12 30  1  0
 12 31  1  0
 13 32  1  0
 13 34  1  0
 14 15  2  0
 14 33  1  0
M  CHG  1  13   1
M  END
>  <i_m_ct_stereo_status>  (343) 
1

>  <s_m_source_file>  (343) 
/var/tmp/pbs.5076255.sched01/tmp0q3ly_rt/135fqi89qhj.sdf

>  <i_m_source_file_index>  (343) 
9

>  <i_lp_mmshare_version>  (343) 
48012

>  <i_f3d_flags>  (343) 
0

>  <s_epik_input>  (343) 
W0NIM11uMVtjSF1jKFtjSF1uMSlbQ0BIXShbQ0gyXVtDSF0yMylbTkhdW0NAQEhdKFtDSDJdMylbQ0gyXVtOSF1bQ0gyXTI=

>  <s_epik_cmdline>  (343) 
J2VwaWtfcHl0aG9uJywgJy1waHQnLCAnMi4wJywgJy1waCcsICc3LjAnLCAnLXRuJywgJzgnLCAnLW1hJywgJzIwMCcsICctaW1hZScsICc8aW5maWxlLm1hZT4nLCAnLW9tYWUnLCAnPG91dGZpbGUubWFlPic=

>  <r_epik_Ionization_Penalty>  (343) 
0.123099

>  <r_epik_Ionization_Penalty_Charging>  (343) 
0.0218119

>  <r_epik_Ionization_Penalty_Neutral>  (343) 
0.101287

>  <r_epik_State_Penalty>  (343) 
0.674651

>  <r_epik_Charging_Adjusted_Penalty>  (343) 
0.696463

>  <i_epik_Tot_Q>  (343) 
1

>  <i_epik_Tot_abs_Q>  (343) 
1

>  <s_lp_Force_Field>  (343) 
OPLS3e

>  <r_lp_Energy>  (343) 
21.1039

>  <b_lp_Chiralities_Consistent>  (343) 
1

>  <s_lp_Variant>  (343) 
92:0-2

>  <s_i_glide_gridfile>  (343) 
pfpi4k_grid

>  <i_i_glide_lignum>  (343) 
9

>  <i_i_glide_rotatable_bonds>  (343) 
1

>  <r_i_docking_score>  (343) 
-4.84527

>  <r_i_glide_ligand_efficiency>  (343) 
-0.323018

>  <r_i_glide_ligand_efficiency_sa>  (343) 
-0.796631

>  <r_i_glide_ligand_efficiency_ln>  (343) 
-1.30669

>  <r_i_glide_gscore>  (343) 
-4.84527

>  <r_i_glide_lipo>  (343) 
-0.380094

>  <r_i_glide_hbond>  (343) 
-0.32

>  <r_i_glide_metal>  (343) 
-0

>  <r_i_glide_rewards>  (343) 
-2.38265

>  <r_i_glide_evdw>  (343) 
-18.2566

>  <r_i_glide_ecoul>  (343) 
-8.00969

>  <r_i_glide_erotb>  (343) 
0.38461

>  <r_i_glide_esite>  (343) 
-0.0328506

>  <r_i_glide_emodel>  (343) 
-34.0902

>  <r_i_glide_energy>  (343) 
-26.2663

>  <r_i_glide_einternal>  (343) 
1.08296

>  <r_i_glide_intrahb_reward>  (343) 
-0

>  <i_i_glide_confnum>  (343) 
2

>  <i_i_glide_posenum>  (343) 
3

>  <r_i_glide_eff_state_penalty>  (343) 
0

>  <ligand_id>  (343) 
92

>  <original_smiles>  (343) 
Cn1cc(C2CC3CNCC(C3)N2)cn1

>  <smiles>  (343) 
[H]c1nn(C([H])([H])[H])c([H])c1C1([H])C([H])([H])C2([H])C([H])([H])N([H])C([H])([H])C([H])(C2([H])[H])[N+]1([H])[H]

$$$$
92:1:2
     RDKit          3D

 34 36  0  0  1  0  0  0  0  0999 V2000
    2.6056   -0.1840   -4.8786 C   0  0  0  0  0  0  0  0  0  0  0  0
    3.1616   -0.8595   -3.7284 N   0  0  0  0  0  0  0  0  0  0  0  0
    2.7717   -2.0355   -3.1137 C   0  0  0  0  0  0  0  0  0  0  0  0
    3.6207   -2.2569   -2.0550 C   0  0  0  0  0  0  0  0  0  0  0  0
    3.6045   -3.3696   -1.0320 C   0  0  2  0  0  0  0  0  0  0  0  0
    3.4017   -2.7960    0.3971 C   0  0  0  0  0  0  0  0  0  0  0  0
    3.7810   -3.7705    1.5356 C   0  0  1  0  0  0  0  0  0  0  0  0
    2.8347   -4.9873    1.6813 C   0  0  0  0  0  0  0  0  0  0  0  0
    2.8567   -5.8517    0.5019 N   0  0  0  0  0  0  0  0  0  0  0  0
    4.2195   -6.2736    0.1698 C   0  0  0  0  0  0  0  0  0  0  0  0
    5.1751   -5.0636    0.0036 C   0  0  2  0  0  0  0  0  0  0  0  0
    5.2125   -4.2579    1.3013 C   0  0  0  0  0  0  0  0  0  0  0  0
    4.8374   -4.1924   -1.1514 N   0  0  0  0  0  0  0  0  0  0  0  0
    4.4927   -1.1320   -2.1143 C   0  0  0  0  0  0  0  0  0  0  0  0
    4.2113   -0.3047   -3.1094 N   0  0  0  0  0  0  0  0  0  0  0  0
    1.6229   -0.5914   -5.1179 H   0  0  0  0  0  0  0  0  0  0  0  0
    3.2674   -0.3169   -5.7356 H   0  0  0  0  0  0  0  0  0  0  0  0
    2.4935    0.8858   -4.6876 H   0  0  0  0  0  0  0  0  0  0  0  0
    1.9086   -2.5888   -3.4517 H   0  0  0  0  0  0  0  0  0  0  0  0
    2.7739   -4.0349   -1.2574 H   0  0  0  0  0  0  0  0  0  0  0  0
    4.0270   -1.9069    0.5255 H   0  0  0  0  0  0  0  0  0  0  0  0
    2.3707   -2.4521    0.5102 H   0  0  0  0  0  0  0  0  0  0  0  0
    3.7563   -3.2118    2.4739 H   0  0  0  0  0  0  0  0  0  0  0  0
    3.1180   -5.5736    2.5560 H   0  0  0  0  0  0  0  0  0  0  0  0
    1.8166   -4.6465    1.8517 H   0  0  0  0  0  0  0  0  0  0  0  0
    2.5066   -5.3383   -0.2956 H   0  0  0  0  0  0  0  0  0  0  0  0
    4.5846   -6.9165    0.9739 H   0  0  0  0  0  0  0  0  0  0  0  0
    4.2131   -6.8895   -0.7287 H   0  0  0  0  0  0  0  0  0  0  0  0
    6.1754   -5.4522   -0.1853 H   0  0  0  0  0  0  0  0  0  0  0  0
    5.9176   -3.4259    1.2402 H   0  0  0  0  0  0  0  0  0  0  0  0
    5.5360   -4.8893    2.1314 H   0  0  0  0  0  0  0  0  0  0  0  0
    4.7570   -4.7684   -1.9795 H   0  0  0  0  0  0  0  0  0  0  0  0
    5.3040   -0.8715   -1.4490 H   0  0  0  0  0  0  0  0  0  0  0  0
    5.6088   -3.5470   -1.2488 H   0  0  0  0  0  0  0  0  0  0  0  0
  1  2  1  0
  1 16  1  0
  1 17  1  0
  1 18  1  0
  2 15  1  0
  2  3  1  0
  3  4  2  0
  3 19  1  0
  4  5  1  0
  4 14  1  0
  5 13  1  0
  5  6  1  0
  5 20  1  6
  6  7  1  0
  6 21  1  0
  6 22  1  0
  7 12  1  0
  7  8  1  0
  7 23  1  1
  8  9  1  0
  8 24  1  0
  8 25  1  0
  9 10  1  0
  9 26  1  0
 10 11  1  0
 10 27  1  0
 10 28  1  0
 11 12  1  0
 11 13  1  0
 11 29  1  6
 12 30  1  0
 12 31  1  0
 13 32  1  0
 13 34  1  0
 14 15  2  0
 14 33  1  0
M  CHG  1  13   1
M  END
>  <i_m_ct_stereo_status>  (344) 
1

>  <s_m_source_file>  (344) 
/var/tmp/pbs.5076255.sched01/tmp0q3ly_rt/135fqi89qhj.sdf

>  <i_m_source_file_index>  (344) 
9

>  <i_lp_mmshare_version>  (344) 
48012

>  <i_f3d_flags>  (344) 
0

>  <s_epik_input>  (344) 
W0NIM11uMVtjSF1jKFtjSF1uMSlbQ0BIXShbQ0gyXVtDSF0yMylbTkhdW0NAQEhdKFtDSDJdMylbQ0gyXVtOSF1bQ0gyXTI=

>  <s_epik_cmdline>  (344) 
J2VwaWtfcHl0aG9uJywgJy1waHQnLCAnMi4wJywgJy1waCcsICc3LjAnLCAnLXRuJywgJzgnLCAnLW1hJywgJzIwMCcsICctaW1hZScsICc8aW5maWxlLm1hZT4nLCAnLW9tYWUnLCAnPG91dGZpbGUubWFlPic=

>  <r_epik_Ionization_Penalty>  (344) 
0.123099

>  <r_epik_Ionization_Penalty_Charging>  (344) 
0.0218119

>  <r_epik_Ionization_Penalty_Neutral>  (344) 
0.101287

>  <r_epik_State_Penalty>  (344) 
0.674651

>  <r_epik_Charging_Adjusted_Penalty>  (344) 
0.696463

>  <i_epik_Tot_Q>  (344) 
1

>  <i_epik_Tot_abs_Q>  (344) 
1

>  <s_lp_Force_Field>  (344) 
OPLS3e

>  <r_lp_Energy>  (344) 
21.1039

>  <b_lp_Chiralities_Consistent>  (344) 
1

>  <s_lp_Variant>  (344) 
92:0-2

>  <s_i_glide_gridfile>  (344) 
pfpi4k_grid

>  <i_i_glide_lignum>  (344) 
9

>  <i_i_glide_rotatable_bonds>  (344) 
1

>  <r_i_docking_score>  (344) 
-4.05502

>  <r_i_glide_ligand_efficiency>  (344) 
-0.270334

>  <r_i_glide_ligand_efficiency_sa>  (344) 
-0.666702

>  <r_i_glide_ligand_efficiency_ln>  (344) 
-1.09357

>  <r_i_glide_gscore>  (344) 
-4.05502

>  <r_i_glide_lipo>  (344) 
-0.309031

>  <r_i_glide_hbond>  (344) 
0

>  <r_i_glide_metal>  (344) 
-0

>  <r_i_glide_rewards>  (344) 
-2.3078

>  <r_i_glide_evdw>  (344) 
-19.7484

>  <r_i_glide_ecoul>  (344) 
-5.46561

>  <r_i_glide_erotb>  (344) 
0.38461

>  <r_i_glide_esite>  (344) 
-0.0155368

>  <r_i_glide_emodel>  (344) 
-32.2456

>  <r_i_glide_energy>  (344) 
-25.214

>  <r_i_glide_einternal>  (344) 
0.120087

>  <r_i_glide_intrahb_reward>  (344) 
-0

>  <i_i_glide_confnum>  (344) 
2

>  <i_i_glide_posenum>  (344) 
28

>  <r_i_glide_eff_state_penalty>  (344) 
0

>  <ligand_id>  (344) 
92

>  <original_smiles>  (344) 
Cn1cc(C2CC3CNCC(C3)N2)cn1

>  <smiles>  (344) 
[H]c1nn(C([H])([H])[H])c([H])c1C1([H])C([H])([H])C2([H])C([H])([H])N([H])C([H])([H])C([H])(C2([H])[H])[N+]1([H])[H]

$$$$
92:2:0
     RDKit          3D

 35 37  0  0  1  0  0  0  0  0999 V2000
    5.2043   -3.6283   -1.1710 C   0  0  0  0  0  0  0  0  0  0  0  0
    4.8827   -2.6428   -0.1612 N   0  0  0  0  0  0  0  0  0  0  0  0
    3.7630   -1.8429   -0.0533 C   0  0  0  0  0  0  0  0  0  0  0  0
    3.8861   -1.1069    1.0940 C   0  0  0  0  0  0  0  0  0  0  0  0
    2.9546   -0.0600    1.6786 C   0  0  2  0  0  0  0  0  0  0  0  0
    3.4325    0.3663    3.0970 C   0  0  0  0  0  0  0  0  0  0  0  0
    2.4051    1.1546    3.9263 C   0  0  1  0  0  0  0  0  0  0  0  0
    2.1035    2.5826    3.3961 C   0  0  0  0  0  0  0  0  0  0  0  0
    1.4236    2.5444    2.0851 N   0  0  0  0  0  0  0  0  0  0  0  0
    0.2563    1.6508    2.0134 C   0  0  0  0  0  0  0  0  0  0  0  0
    0.5891    0.2411    2.5446 C   0  0  2  0  0  0  0  0  0  0  0  0
    1.1219    0.3265    3.9831 C   0  0  0  0  0  0  0  0  0  0  0  0
    1.5361   -0.5245    1.6841 N   0  0  0  0  0  0  0  0  0  0  0  0
    5.1571   -1.5244    1.6024 C   0  0  0  0  0  0  0  0  0  0  0  0
    5.7458   -2.4332    0.8502 N   0  0  0  0  0  0  0  0  0  0  0  0
    4.5137   -3.5396   -2.0089 H   0  0  0  0  0  0  0  0  0  0  0  0
    5.1151   -4.6300   -0.7478 H   0  0  0  0  0  0  0  0  0  0  0  0
    6.2237   -3.4804   -1.5302 H   0  0  0  0  0  0  0  0  0  0  0  0
    2.9811   -1.8677   -0.8039 H   0  0  0  0  0  0  0  0  0  0  0  0
    2.9861    0.8122    1.0321 H   0  0  0  0  0  0  0  0  0  0  0  0
    3.6819   -0.5253    3.6734 H   0  0  0  0  0  0  0  0  0  0  0  0
    4.3580    0.9337    3.0173 H   0  0  0  0  0  0  0  0  0  0  0  0
    2.8044    1.2460    4.9396 H   0  0  0  0  0  0  0  0  0  0  0  0
    1.4549    3.0962    4.1079 H   0  0  0  0  0  0  0  0  0  0  0  0
    3.0229    3.1671    3.3242 H   0  0  0  0  0  0  0  0  0  0  0  0
    1.0993    3.4719    1.7715 H   0  0  0  0  0  0  0  0  0  0  0  0
   -0.5279    2.0848    2.6282 H   0  0  0  0  0  0  0  0  0  0  0  0
   -0.1356    1.6163    0.9967 H   0  0  0  0  0  0  0  0  0  0  0  0
   -0.3427   -0.3118    2.5771 H   0  0  0  0  0  0  0  0  0  0  0  0
    1.3000   -0.6665    4.4065 H   0  0  0  0  0  0  0  0  0  0  0  0
    0.3908    0.8068    4.6306 H   0  0  0  0  0  0  0  0  0  0  0  0
    1.1929   -0.5638    0.7066 H   0  0  0  0  0  0  0  0  0  0  0  0
    5.6798   -1.1881    2.4853 H   0  0  0  0  0  0  0  0  0  0  0  0
    2.0938    2.2459    1.3933 H   0  0  0  0  0  0  0  0  0  0  0  0
    1.5578   -1.4714    2.0227 H   0  0  0  0  0  0  0  0  0  0  0  0
  1  2  1  0
  1 16  1  0
  1 17  1  0
  1 18  1  0
  2 15  1  0
  2  3  1  0
  3  4  2  0
  3 19  1  0
  4  5  1  0
  4 14  1  0
  5 13  1  0
  5  6  1  0
  5 20  1  6
  6  7  1  0
  6 21  1  0
  6 22  1  0
  7 12  1  0
  7  8  1  0
  7 23  1  1
  8  9  1  0
  8 24  1  0
  8 25  1  0
  9 10  1  0
  9 26  1  0
  9 34  1  0
 10 11  1  0
 10 27  1  0
 10 28  1  0
 11 12  1  0
 11 13  1  0
 11 29  1  1
 12 30  1  0
 12 31  1  0
 13 32  1  0
 13 35  1  0
 14 15  2  0
 14 33  1  0
M  CHG  2   9   1  13   1
M  END
>  <i_m_ct_stereo_status>  (345) 
1

>  <s_m_source_file>  (345) 
/var/tmp/pbs.5076255.sched01/tmp0q3ly_rt/135fqi89qhj.sdf

>  <i_m_source_file_index>  (345) 
10

>  <i_lp_mmshare_version>  (345) 
48012

>  <i_f3d_flags>  (345) 
0

>  <s_epik_input>  (345) 
W0NIM11uMVtjSF1jKFtjSF1uMSlbQ0BIXShbQ0gyXVtDSF0yMylbTkhdW0NAQEhdKFtDSDJdMylbQ0gyXVtOSF1bQ0gyXTI=

>  <s_epik_cmdline>  (345) 
J2VwaWtfcHl0aG9uJywgJy1waHQnLCAnMi4wJywgJy1waCcsICc3LjAnLCAnLXRuJywgJzgnLCAnLW1hJywgJzIwMCcsICctaW1hZScsICc8aW5maWxlLm1hZT4nLCAnLW9tYWUnLCAnPG91dGZpbGUubWFlPic=

>  <r_lp_tautomer_probability>  (345) 
1

>  <r_epik_Ionization_Penalty>  (345) 
2.52037

>  <r_epik_Ionization_Penalty_Charging>  (345) 
2.52037

>  <r_epik_Ionization_Penalty_Neutral>  (345) 
8.08952e-07

>  <r_epik_State_Penalty>  (345) 
1.73661

>  <r_epik_Charging_Adjusted_Penalty>  (345) 
4.25697

>  <i_epik_Tot_Q>  (345) 
2

>  <i_epik_Tot_abs_Q>  (345) 
2

>  <s_lp_Force_Field>  (345) 
OPLS3e

>  <r_lp_Energy>  (345) 
26.7358

>  <b_lp_Chiralities_Consistent>  (345) 
1

>  <s_lp_Variant>  (345) 
92:0-3

>  <s_i_glide_gridfile>  (345) 
pfpi4k_grid

>  <i_i_glide_lignum>  (345) 
10

>  <i_i_glide_rotatable_bonds>  (345) 
1

>  <r_i_docking_score>  (345) 
-5.00039

>  <r_i_glide_ligand_efficiency>  (345) 
-0.33336

>  <r_i_glide_ligand_efficiency_sa>  (345) 
-0.822136

>  <r_i_glide_ligand_efficiency_ln>  (345) 
-1.34852

>  <r_i_glide_gscore>  (345) 
-5.00039

>  <r_i_glide_lipo>  (345) 
-0.140346

>  <r_i_glide_hbond>  (345) 
-0.387661

>  <r_i_glide_metal>  (345) 
-0

>  <r_i_glide_rewards>  (345) 
-1.98884

>  <r_i_glide_evdw>  (345) 
-12.6435

>  <r_i_glide_ecoul>  (345) 
-13.5875

>  <r_i_glide_erotb>  (345) 
0.381498

>  <r_i_glide_esite>  (345) 
-0.194739

>  <r_i_glide_emodel>  (345) 
-38.036

>  <r_i_glide_energy>  (345) 
-26.231

>  <r_i_glide_einternal>  (345) 
1.42907

>  <r_i_glide_intrahb_reward>  (345) 
-0

>  <i_i_glide_confnum>  (345) 
2

>  <i_i_glide_posenum>  (345) 
7

>  <r_i_glide_eff_state_penalty>  (345) 
0

>  <ligand_id>  (345) 
92

>  <original_smiles>  (345) 
Cn1cc(C2CC3CNCC(C3)N2)cn1

>  <smiles>  (345) 
[H]c1nn(C([H])([H])[H])c([H])c1C1([H])C([H])([H])C2([H])C([H])([H])C([H])(C([H])([H])[N+]([H])([H])C2([H])[H])[N+]1([H])[H]

$$$$
92:2:1
     RDKit          3D

 35 37  0  0  1  0  0  0  0  0999 V2000
    6.3366   -2.8028   -1.8603 C   0  0  0  0  0  0  0  0  0  0  0  0
    5.8570   -2.0219   -0.7383 N   0  0  0  0  0  0  0  0  0  0  0  0
    4.6148   -1.4533   -0.5370 C   0  0  0  0  0  0  0  0  0  0  0  0
    4.6272   -0.8517    0.6933 C   0  0  0  0  0  0  0  0  0  0  0  0
    3.5375   -0.0671    1.3944 C   0  0  2  0  0  0  0  0  0  0  0  0
    3.9257    0.2027    2.8822 C   0  0  0  0  0  0  0  0  0  0  0  0
    2.7772    0.6899    3.7809 C   0  0  1  0  0  0  0  0  0  0  0  0
    2.2578    2.1130    3.4545 C   0  0  0  0  0  0  0  0  0  0  0  0
    1.6020    2.1832    2.1247 N   0  0  0  0  0  0  0  0  0  0  0  0
    0.5932    1.1193    1.8971 C   0  0  0  0  0  0  0  0  0  0  0  0
    1.1539   -0.2922    2.2171 C   0  0  2  0  0  0  0  0  0  0  0  0
    1.6468   -0.3291    3.6740 C   0  0  0  0  0  0  0  0  0  0  0  0
    2.2150   -0.7497    1.2815 N   0  0  0  0  0  0  0  0  0  0  0  0
    5.9573   -1.1110    1.1560 C   0  0  0  0  0  0  0  0  0  0  0  0
    6.6896   -1.7963    0.2926 N   0  0  0  0  0  0  0  0  0  0  0  0
    5.6346   -2.7270   -2.6884 H   0  0  0  0  0  0  0  0  0  0  0  0
    6.4237   -3.8495   -1.5638 H   0  0  0  0  0  0  0  0  0  0  0  0
    7.3155   -2.4436   -2.1848 H   0  0  0  0  0  0  0  0  0  0  0  0
    3.8436   -1.5235   -1.2911 H   0  0  0  0  0  0  0  0  0  0  0  0
    3.4413    0.8897    0.8881 H   0  0  0  0  0  0  0  0  0  0  0  0
    4.3182   -0.7191    3.3250 H   0  0  0  0  0  0  0  0  0  0  0  0
    4.7397    0.9154    2.9369 H   0  0  0  0  0  0  0  0  0  0  0  0
    3.1534    0.6937    4.8045 H   0  0  0  0  0  0  0  0  0  0  0  0
    1.5355    2.4093    4.2131 H   0  0  0  0  0  0  0  0  0  0  0  0
    3.0688    2.8396    3.4963 H   0  0  0  0  0  0  0  0  0  0  0  0
    1.1610    3.0893    1.9678 H   0  0  0  0  0  0  0  0  0  0  0  0
   -0.2582    1.3263    2.5469 H   0  0  0  0  0  0  0  0  0  0  0  0
    0.2213    1.1774    0.8792 H   0  0  0  0  0  0  0  0  0  0  0  0
    0.3328   -1.0047    2.1348 H   0  0  0  0  0  0  0  0  0  0  0  0
    1.9862   -1.3326    3.9551 H   0  0  0  0  0  0  0  0  0  0  0  0
    0.8456   -0.0723    4.3664 H   0  0  0  0  0  0  0  0  0  0  0  0
    1.8329   -0.6816    0.3269 H   0  0  0  0  0  0  0  0  0  0  0  0
    6.4211   -0.8028    2.0826 H   0  0  0  0  0  0  0  0  0  0  0  0
    2.3214    2.0812    1.4274 H   0  0  0  0  0  0  0  0  0  0  0  0
    2.3793   -1.7249    1.4731 H   0  0  0  0  0  0  0  0  0  0  0  0
  1  2  1  0
  1 16  1  0
  1 17  1  0
  1 18  1  0
  2 15  1  0
  2  3  1  0
  3  4  2  0
  3 19  1  0
  4  5  1  0
  4 14  1  0
  5 13  1  0
  5  6  1  0
  5 20  1  6
  6  7  1  0
  6 21  1  0
  6 22  1  0
  7 12  1  0
  7  8  1  0
  7 23  1  1
  8  9  1  0
  8 24  1  0
  8 25  1  0
  9 10  1  0
  9 26  1  0
  9 34  1  0
 10 11  1  0
 10 27  1  0
 10 28  1  0
 11 12  1  0
 11 13  1  0
 11 29  1  1
 12 30  1  0
 12 31  1  0
 13 32  1  0
 13 35  1  0
 14 15  2  0
 14 33  1  0
M  CHG  2   9   1  13   1
M  END
>  <i_m_ct_stereo_status>  (346) 
1

>  <s_m_source_file>  (346) 
/var/tmp/pbs.5076255.sched01/tmp0q3ly_rt/135fqi89qhj.sdf

>  <i_m_source_file_index>  (346) 
10

>  <i_lp_mmshare_version>  (346) 
48012

>  <i_f3d_flags>  (346) 
0

>  <s_epik_input>  (346) 
W0NIM11uMVtjSF1jKFtjSF1uMSlbQ0BIXShbQ0gyXVtDSF0yMylbTkhdW0NAQEhdKFtDSDJdMylbQ0gyXVtOSF1bQ0gyXTI=

>  <s_epik_cmdline>  (346) 
J2VwaWtfcHl0aG9uJywgJy1waHQnLCAnMi4wJywgJy1waCcsICc3LjAnLCAnLXRuJywgJzgnLCAnLW1hJywgJzIwMCcsICctaW1hZScsICc8aW5maWxlLm1hZT4nLCAnLW9tYWUnLCAnPG91dGZpbGUubWFlPic=

>  <r_lp_tautomer_probability>  (346) 
1

>  <r_epik_Ionization_Penalty>  (346) 
2.52037

>  <r_epik_Ionization_Penalty_Charging>  (346) 
2.52037

>  <r_epik_Ionization_Penalty_Neutral>  (346) 
8.08952e-07

>  <r_epik_State_Penalty>  (346) 
1.73661

>  <r_epik_Charging_Adjusted_Penalty>  (346) 
4.25697

>  <i_epik_Tot_Q>  (346) 
2

>  <i_epik_Tot_abs_Q>  (346) 
2

>  <s_lp_Force_Field>  (346) 
OPLS3e

>  <r_lp_Energy>  (346) 
26.7358

>  <b_lp_Chiralities_Consistent>  (346) 
1

>  <s_lp_Variant>  (346) 
92:0-3

>  <s_i_glide_gridfile>  (346) 
pfpi4k_grid

>  <i_i_glide_lignum>  (346) 
10

>  <i_i_glide_rotatable_bonds>  (346) 
1

>  <r_i_docking_score>  (346) 
-4.96377

>  <r_i_glide_ligand_efficiency>  (346) 
-0.330918

>  <r_i_glide_ligand_efficiency_sa>  (346) 
-0.816114

>  <r_i_glide_ligand_efficiency_ln>  (346) 
-1.33865

>  <r_i_glide_gscore>  (346) 
-4.96377

>  <r_i_glide_lipo>  (346) 
-0.236548

>  <r_i_glide_hbond>  (346) 
-0.394282

>  <r_i_glide_metal>  (346) 
-0

>  <r_i_glide_rewards>  (346) 
-1.98884

>  <r_i_glide_evdw>  (346) 
-14.7467

>  <r_i_glide_ecoul>  (346) 
-12.0437

>  <r_i_glide_erotb>  (346) 
0.381498

>  <r_i_glide_esite>  (346) 
-0.181713

>  <r_i_glide_emodel>  (346) 
-38.5089

>  <r_i_glide_energy>  (346) 
-26.7904

>  <r_i_glide_einternal>  (346) 
1.46818

>  <r_i_glide_intrahb_reward>  (346) 
-0

>  <i_i_glide_confnum>  (346) 
2

>  <i_i_glide_posenum>  (346) 
13

>  <r_i_glide_eff_state_penalty>  (346) 
0

>  <ligand_id>  (346) 
92

>  <original_smiles>  (346) 
Cn1cc(C2CC3CNCC(C3)N2)cn1

>  <smiles>  (346) 
[H]c1nn(C([H])([H])[H])c([H])c1C1([H])C([H])([H])C2([H])C([H])([H])C([H])(C([H])([H])[N+]([H])([H])C2([H])[H])[N+]1([H])[H]

$$$$
92:2:2
     RDKit          3D

 35 37  0  0  1  0  0  0  0  0999 V2000
    2.5992    0.2828   -4.9039 C   0  0  0  0  0  0  0  0  0  0  0  0
    3.2510   -0.6802   -4.0436 N   0  0  0  0  0  0  0  0  0  0  0  0
    3.0145   -0.9653   -2.7199 C   0  0  0  0  0  0  0  0  0  0  0  0
    3.8679   -1.9637   -2.3250 C   0  0  0  0  0  0  0  0  0  0  0  0
    4.0278   -2.5918   -0.9590 C   0  0  2  0  0  0  0  0  0  0  0  0
    5.1927   -1.9092   -0.1883 C   0  0  0  0  0  0  0  0  0  0  0  0
    5.6774   -2.6905    1.0527 C   0  0  1  0  0  0  0  0  0  0  0  0
    4.6600   -2.7294    2.2201 C   0  0  0  0  0  0  0  0  0  0  0  0
    3.4371   -3.4973    1.8754 N   0  0  0  0  0  0  0  0  0  0  0  0
    3.7095   -4.8384    1.2955 C   0  0  0  0  0  0  0  0  0  0  0  0
    4.7255   -4.7731    0.1289 C   0  0  2  0  0  0  0  0  0  0  0  0
    6.0273   -4.1157    0.6115 C   0  0  0  0  0  0  0  0  0  0  0  0
    4.2033   -4.0694   -1.0755 N   0  0  0  0  0  0  0  0  0  0  0  0
    4.5901   -2.2303   -3.5207 C   0  0  0  0  0  0  0  0  0  0  0  0
    4.2113   -1.4666   -4.5367 N   0  0  0  0  0  0  0  0  0  0  0  0
    1.9614    0.9431   -4.3255 H   0  0  0  0  0  0  0  0  0  0  0  0
    1.9563   -0.2476   -5.6046 H   0  0  0  0  0  0  0  0  0  0  0  0
    3.3346    0.8685   -5.4579 H   0  0  0  0  0  0  0  0  0  0  0  0
    2.2608   -0.4004   -2.2011 H   0  0  0  0  0  0  0  0  0  0  0  0
    3.1054   -2.4346   -0.4000 H   0  0  0  0  0  0  0  0  0  0  0  0
    6.0517   -1.8013   -0.8575 H   0  0  0  0  0  0  0  0  0  0  0  0
    4.9035   -0.8930    0.0875 H   0  0  0  0  0  0  0  0  0  0  0  0
    6.5859   -2.2077    1.4173 H   0  0  0  0  0  0  0  0  0  0  0  0
    5.1232   -3.1928    3.0909 H   0  0  0  0  0  0  0  0  0  0  0  0
    4.3776   -1.7215    2.5241 H   0  0  0  0  0  0  0  0  0  0  0  0
    2.8596   -3.5976    2.6970 H   0  0  0  0  0  0  0  0  0  0  0  0
    4.1259   -5.4684    2.0836 H   0  0  0  0  0  0  0  0  0  0  0  0
    2.7804   -5.3197    0.9833 H   0  0  0  0  0  0  0  0  0  0  0  0
    4.9514   -5.7865   -0.2005 H   0  0  0  0  0  0  0  0  0  0  0  0
    6.7926   -4.1167   -0.1691 H   0  0  0  0  0  0  0  0  0  0  0  0
    6.4454   -4.6780    1.4474 H   0  0  0  0  0  0  0  0  0  0  0  0
    3.3327   -4.4955   -1.3768 H   0  0  0  0  0  0  0  0  0  0  0  0
    5.3897   -2.9426   -3.6830 H   0  0  0  0  0  0  0  0  0  0  0  0
    2.9125   -2.9575    1.2013 H   0  0  0  0  0  0  0  0  0  0  0  0
    4.8812   -4.2290   -1.8030 H   0  0  0  0  0  0  0  0  0  0  0  0
  1  2  1  0
  1 16  1  0
  1 17  1  0
  1 18  1  0
  2 15  1  0
  2  3  1  0
  3  4  2  0
  3 19  1  0
  4  5  1  0
  4 14  1  0
  5 13  1  0
  5  6  1  0
  5 20  1  1
  6  7  1  0
  6 21  1  0
  6 22  1  0
  7 12  1  0
  7  8  1  0
  7 23  1  1
  8  9  1  0
  8 24  1  0
  8 25  1  0
  9 10  1  0
  9 26  1  0
  9 34  1  0
 10 11  1  0
 10 27  1  0
 10 28  1  0
 11 12  1  0
 11 13  1  0
 11 29  1  6
 12 30  1  0
 12 31  1  0
 13 32  1  0
 13 35  1  0
 14 15  2  0
 14 33  1  0
M  CHG  2   9   1  13   1
M  END
>  <i_m_ct_stereo_status>  (347) 
1

>  <s_m_source_file>  (347) 
/var/tmp/pbs.5076255.sched01/tmp0q3ly_rt/135fqi89qhj.sdf

>  <i_m_source_file_index>  (347) 
10

>  <i_lp_mmshare_version>  (347) 
48012

>  <i_f3d_flags>  (347) 
0

>  <s_epik_input>  (347) 
W0NIM11uMVtjSF1jKFtjSF1uMSlbQ0BIXShbQ0gyXVtDSF0yMylbTkhdW0NAQEhdKFtDSDJdMylbQ0gyXVtOSF1bQ0gyXTI=

>  <s_epik_cmdline>  (347) 
J2VwaWtfcHl0aG9uJywgJy1waHQnLCAnMi4wJywgJy1waCcsICc3LjAnLCAnLXRuJywgJzgnLCAnLW1hJywgJzIwMCcsICctaW1hZScsICc8aW5maWxlLm1hZT4nLCAnLW9tYWUnLCAnPG91dGZpbGUubWFlPic=

>  <r_lp_tautomer_probability>  (347) 
1

>  <r_epik_Ionization_Penalty>  (347) 
2.52037

>  <r_epik_Ionization_Penalty_Charging>  (347) 
2.52037

>  <r_epik_Ionization_Penalty_Neutral>  (347) 
8.08952e-07

>  <r_epik_State_Penalty>  (347) 
1.73661

>  <r_epik_Charging_Adjusted_Penalty>  (347) 
4.25697

>  <i_epik_Tot_Q>  (347) 
2

>  <i_epik_Tot_abs_Q>  (347) 
2

>  <s_lp_Force_Field>  (347) 
OPLS3e

>  <r_lp_Energy>  (347) 
26.7358

>  <b_lp_Chiralities_Consistent>  (347) 
1

>  <s_lp_Variant>  (347) 
92:0-3

>  <s_i_glide_gridfile>  (347) 
pfpi4k_grid

>  <i_i_glide_lignum>  (347) 
10

>  <i_i_glide_rotatable_bonds>  (347) 
1

>  <r_i_docking_score>  (347) 
-4.93106

>  <r_i_glide_ligand_efficiency>  (347) 
-0.328737

>  <r_i_glide_ligand_efficiency_sa>  (347) 
-0.810736

>  <r_i_glide_ligand_efficiency_ln>  (347) 
-1.32983

>  <r_i_glide_gscore>  (347) 
-4.93106

>  <r_i_glide_lipo>  (347) 
-0.303865

>  <r_i_glide_hbond>  (347) 
-0.32

>  <r_i_glide_metal>  (347) 
-0

>  <r_i_glide_rewards>  (347) 
-2.29399

>  <r_i_glide_evdw>  (347) 
-13.9114

>  <r_i_glide_ecoul>  (347) 
-11.1164

>  <r_i_glide_erotb>  (347) 
0.381498

>  <r_i_glide_esite>  (347) 
-0.0316739

>  <r_i_glide_emodel>  (347) 
-37.1032

>  <r_i_glide_energy>  (347) 
-25.0278

>  <r_i_glide_einternal>  (347) 
0.896174

>  <r_i_glide_intrahb_reward>  (347) 
-0

>  <i_i_glide_confnum>  (347) 
4

>  <i_i_glide_posenum>  (347) 
5

>  <r_i_glide_eff_state_penalty>  (347) 
0

>  <ligand_id>  (347) 
92

>  <original_smiles>  (347) 
Cn1cc(C2CC3CNCC(C3)N2)cn1

>  <smiles>  (347) 
[H]c1nn(C([H])([H])[H])c([H])c1C1([H])C([H])([H])C2([H])C([H])([H])C([H])(C([H])([H])[N+]([H])([H])C2([H])[H])[N+]1([H])[H]

$$$$
93:0:0
     RDKit          3D

 56 59  0  0  1  0  0  0  0  0999 V2000
    3.9771   -0.8872   -3.5459 C   0  0  0  0  0  0  0  0  0  0  0  0
    3.3121   -1.5059   -2.3151 C   0  0  2  0  0  0  0  0  0  0  0  0
    3.9646   -1.0513   -1.1148 O   0  0  0  0  0  0  0  0  0  0  0  0
    3.9102   -2.0927   -0.1818 C   0  0  2  0  0  0  0  0  0  0  0  0
    2.6171   -2.1935    0.3790 O   0  0  0  0  0  0  0  0  0  0  0  0
    4.9033   -1.9075    0.9917 C   0  0  1  0  0  0  0  0  0  0  0  0
    4.6640   -0.5849    1.7460 C   0  0  0  0  0  0  0  0  0  0  0  0
    3.7547   -0.7104    2.9709 C   0  0  0  0  0  0  0  0  0  0  0  0
    4.2792   -1.7798    3.9549 C   0  0  1  0  0  0  0  0  0  0  0  0
    3.5228   -1.7500    5.3272 C   0  0  1  0  0  0  0  0  0  0  0  0
    3.4697   -0.3625    6.0028 C   0  0  0  0  0  0  0  0  0  0  0  0
    2.1415   -2.4123    5.2408 C   0  0  0  0  0  0  0  0  0  0  0  0
    1.1248   -1.9077    5.7235 O   0  0  0  0  0  0  0  0  0  0  0  0
    2.0972   -3.7776    4.5686 C   0  0  0  0  0  0  0  0  0  0  0  0
    2.8415   -3.7517    3.2191 C   0  0  0  0  0  0  0  0  0  0  0  0
    4.2999   -3.2078    3.2981 C   0  0  2  0  0  0  0  0  0  0  0  0
    5.1203   -4.1507    4.2304 C   0  0  0  0  0  0  0  0  0  0  0  0
    5.0075   -3.1964    1.8832 C   0  0  1  0  0  0  0  0  0  0  0  0
    4.9569   -4.5452    1.0786 C   0  0  0  0  0  0  0  0  0  0  0  0
    4.0391   -4.5752   -0.1701 C   0  0  0  0  0  0  0  0  0  0  0  0
    4.2502   -3.3212   -1.0481 C   0  0  2  0  0  0  0  0  0  0  0  0
    5.7138   -3.2893   -1.5742 C   0  0  0  0  0  0  0  0  0  0  0  0
    3.3521   -3.0520   -2.2639 C   0  0  1  0  0  0  0  0  0  0  0  0
    2.0391   -3.5468   -2.1122 O   0  0  0  0  0  0  0  0  0  0  0  0
    3.4446   -1.1611   -4.4571 H   0  0  0  0  0  0  0  0  0  0  0  0
    5.0066   -1.2231   -3.6440 H   0  0  0  0  0  0  0  0  0  0  0  0
    3.9807    0.2017   -3.4705 H   0  0  0  0  0  0  0  0  0  0  0  0
    2.2770   -1.1668   -2.3261 H   0  0  0  0  0  0  0  0  0  0  0  0
    1.9844   -1.7580   -0.2028 H   0  0  0  0  0  0  0  0  0  0  0  0
    5.8726   -1.7660    0.5220 H   0  0  0  0  0  0  0  0  0  0  0  0
    5.6314   -0.2343    2.1078 H   0  0  0  0  0  0  0  0  0  0  0  0
    4.2943    0.1942    1.0753 H   0  0  0  0  0  0  0  0  0  0  0  0
    3.7177    0.2703    3.4466 H   0  0  0  0  0  0  0  0  0  0  0  0
    2.7304   -0.9259    2.6648 H   0  0  0  0  0  0  0  0  0  0  0  0
    5.3107   -1.5029    4.1839 H   0  0  0  0  0  0  0  0  0  0  0  0
    4.0900   -2.3700    6.0185 H   0  0  0  0  0  0  0  0  0  0  0  0
    3.1711   -0.4495    7.0495 H   0  0  0  0  0  0  0  0  0  0  0  0
    2.7529    0.3048    5.5217 H   0  0  0  0  0  0  0  0  0  0  0  0
    4.4451    0.1240    5.9853 H   0  0  0  0  0  0  0  0  0  0  0  0
    2.5499   -4.5097    5.2381 H   0  0  0  0  0  0  0  0  0  0  0  0
    1.0610   -4.0816    4.4183 H   0  0  0  0  0  0  0  0  0  0  0  0
    2.8167   -4.7517    2.7862 H   0  0  0  0  0  0  0  0  0  0  0  0
    2.2424   -3.1296    2.5607 H   0  0  0  0  0  0  0  0  0  0  0  0
    5.1665   -5.1700    3.8480 H   0  0  0  0  0  0  0  0  0  0  0  0
    4.7177   -4.2247    5.2413 H   0  0  0  0  0  0  0  0  0  0  0  0
    6.1453   -3.8047    4.3547 H   0  0  0  0  0  0  0  0  0  0  0  0
    6.0558   -3.1437    2.1790 H   0  0  0  0  0  0  0  0  0  0  0  0
    5.9673   -4.8125    0.7834 H   0  0  0  0  0  0  0  0  0  0  0  0
    4.6614   -5.3705    1.7210 H   0  0  0  0  0  0  0  0  0  0  0  0
    4.2670   -5.4786   -0.7385 H   0  0  0  0  0  0  0  0  0  0  0  0
    2.9981   -4.6844    0.1370 H   0  0  0  0  0  0  0  0  0  0  0  0
    5.8548   -4.0709   -2.3215 H   0  0  0  0  0  0  0  0  0  0  0  0
    6.4653   -3.4469   -0.8079 H   0  0  0  0  0  0  0  0  0  0  0  0
    5.9658   -2.3462   -2.0461 H   0  0  0  0  0  0  0  0  0  0  0  0
    3.7386   -3.4767   -3.1892 H   0  0  0  0  0  0  0  0  0  0  0  0
    2.0744   -4.4731   -2.3179 H   0  0  0  0  0  0  0  0  0  0  0  0
  1  2  1  0
  1 25  1  0
  1 26  1  0
  1 27  1  0
  2 23  1  0
  2  3  1  0
  2 28  1  1
  3  4  1  0
  4 21  1  0
  4  5  1  1
  4  6  1  0
  5 29  1  0
  6 18  1  0
  6  7  1  0
  6 30  1  6
  7  8  1  0
  7 31  1  0
  7 32  1  0
  8  9  1  0
  8 33  1  0
  8 34  1  0
  9 16  1  0
  9 10  1  0
  9 35  1  1
 10 11  1  0
 10 12  1  0
 10 36  1  1
 11 37  1  0
 11 38  1  0
 11 39  1  0
 12 13  2  0
 12 14  1  0
 14 15  1  0
 14 40  1  0
 14 41  1  0
 15 16  1  0
 15 42  1  0
 15 43  1  0
 16 17  1  1
 16 18  1  0
 17 44  1  0
 17 45  1  0
 17 46  1  0
 18 19  1  0
 18 47  1  1
 19 20  1  0
 19 48  1  0
 19 49  1  0
 20 21  1  0
 20 50  1  0
 20 51  1  0
 21 22  1  6
 21 23  1  0
 22 52  1  0
 22 53  1  0
 22 54  1  0
 23 24  1  0
 23 55  1  6
 24 56  1  0
M  END
>  <i_m_ct_stereo_status>  (348) 
1

>  <s_m_source_file>  (348) 
/var/tmp/pbs.5076255.sched01/tmp0q3ly_rt/135fqi89qhj.sdf

>  <i_m_source_file_index>  (348) 
11

>  <i_lp_mmshare_version>  (348) 
48012

>  <i_f3d_flags>  (348) 
0

>  <s_epik_input>  (348) 
W0NIM11bQ0BIXShPMSlbQ0BIXShbT0hdKVtDQF0yKFtDSDNdKVtDSDJdW0NIMl1bQ0BASF0oW0NASF0zW0NAQF0xMltPSF0pW0NAQF00KFtDSDNdKVtDQEBIXShbQ0gyXVtDSDJdMylbQ0BASF0oW0NIM10pQyg9TylbQ0gyXVtDSDJdNA==

>  <s_epik_cmdline>  (348) 
J2VwaWtfcHl0aG9uJywgJy1waHQnLCAnMi4wJywgJy1waCcsICc3LjAnLCAnLXRuJywgJzgnLCAnLW1hJywgJzIwMCcsICctaW1hZScsICc8aW5maWxlLm1hZT4nLCAnLW9tYWUnLCAnPG91dGZpbGUubWFlPic=

>  <r_lp_tautomer_probability>  (348) 
1

>  <r_epik_Ionization_Penalty>  (348) 
2.62805e-07

>  <r_epik_Ionization_Penalty_Charging>  (348) 
0

>  <r_epik_Ionization_Penalty_Neutral>  (348) 
2.62805e-07

>  <r_epik_State_Penalty>  (348) 
-0

>  <r_epik_Charging_Adjusted_Penalty>  (348) 
0

>  <i_epik_Tot_Q>  (348) 
0

>  <i_epik_Tot_abs_Q>  (348) 
0

>  <s_lp_Force_Field>  (348) 
OPLS3e

>  <r_lp_Energy>  (348) 
43.086

>  <b_lp_Chiralities_Consistent>  (348) 
1

>  <s_lp_Variant>  (348) 
93:0-1

>  <s_i_glide_gridfile>  (348) 
pfpi4k_grid

>  <i_i_glide_lignum>  (348) 
11

>  <i_i_glide_rotatable_bonds>  (348) 
2

>  <r_i_docking_score>  (348) 
-3.93773

>  <r_i_glide_ligand_efficiency>  (348) 
-0.164072

>  <r_i_glide_ligand_efficiency_sa>  (348) 
-0.473266

>  <r_i_glide_ligand_efficiency_ln>  (348) 
-0.942479

>  <r_i_glide_gscore>  (348) 
-3.93773

>  <r_i_glide_lipo>  (348) 
-0.634256

>  <r_i_glide_hbond>  (348) 
0

>  <r_i_glide_metal>  (348) 
-0

>  <r_i_glide_rewards>  (348) 
-1.11501

>  <r_i_glide_evdw>  (348) 
-20.9054

>  <r_i_glide_ecoul>  (348) 
-7.39012

>  <r_i_glide_erotb>  (348) 
0

>  <r_i_glide_esite>  (348) 
-0.0346771

>  <r_i_glide_emodel>  (348) 
-34.7417

>  <r_i_glide_energy>  (348) 
-28.2956

>  <r_i_glide_einternal>  (348) 
2.20747

>  <r_i_glide_intrahb_reward>  (348) 
-0

>  <i_i_glide_confnum>  (348) 
1

>  <i_i_glide_posenum>  (348) 
13

>  <r_i_glide_eff_state_penalty>  (348) 
0

>  <ligand_id>  (348) 
93

>  <original_smiles>  (348) 
CC1OC2(O)C3CCC4C(C)C(=O)CCC4(C)C3CCC2(C)C1O

>  <smiles>  (348) 
[H]OC1([H])C([H])(C([H])([H])[H])OC2(O[H])C3([H])C([H])([H])C([H])([H])C4([H])C([H])(C([H])([H])[H])C(=O)C([H])([H])C([H])([H])C4(C([H])([H])[H])C3([H])C([H])([H])C([H])([H])C12C([H])([H])[H]

$$$$
93:0:1
     RDKit          3D

 56 59  0  0  1  0  0  0  0  0999 V2000
    5.4036   -0.2614    1.6258 C   0  0  0  0  0  0  0  0  0  0  0  0
    4.3060   -1.2887    1.3070 C   0  0  2  0  0  0  0  0  0  0  0  0
    4.2656   -2.2459    2.3785 O   0  0  0  0  0  0  0  0  0  0  0  0
    3.9011   -3.4656    1.8156 C   0  0  2  0  0  0  0  0  0  0  0  0
    2.5344   -3.4486    1.4955 O   0  0  0  0  0  0  0  0  0  0  0  0
    4.1539   -4.6634    2.7624 C   0  0  1  0  0  0  0  0  0  0  0  0
    3.3880   -4.5356    4.0925 C   0  0  0  0  0  0  0  0  0  0  0  0
    2.0332   -5.2472    4.1152 C   0  0  0  0  0  0  0  0  0  0  0  0
    2.1701   -6.7416    3.7540 C   0  0  1  0  0  0  0  0  0  0  0  0
    0.8585   -7.5463    4.0238 C   0  0  1  0  0  0  0  0  0  0  0  0
    0.2736   -7.3735    5.4403 C   0  0  0  0  0  0  0  0  0  0  0  0
   -0.1936   -7.3057    2.9300 C   0  0  0  0  0  0  0  0  0  0  0  0
   -1.3706   -7.0457    3.1720 O   0  0  0  0  0  0  0  0  0  0  0  0
    0.3055   -7.4141    1.4936 C   0  0  0  0  0  0  0  0  0  0  0  0
    1.5799   -6.5769    1.2852 C   0  0  0  0  0  0  0  0  0  0  0  0
    2.7174   -6.9223    2.2887 C   0  0  2  0  0  0  0  0  0  0  0  0
    3.1323   -8.4171    2.1193 C   0  0  0  0  0  0  0  0  0  0  0  0
    4.0115   -6.0469    2.0216 C   0  0  1  0  0  0  0  0  0  0  0  0
    4.5616   -6.0541    0.5502 C   0  0  0  0  0  0  0  0  0  0  0  0
    4.3787   -4.7507   -0.2642 C   0  0  0  0  0  0  0  0  0  0  0  0
    4.7937   -3.5140    0.5584 C   0  0  2  0  0  0  0  0  0  0  0  0
    6.3077   -3.6149    0.9133 C   0  0  0  0  0  0  0  0  0  0  0  0
    4.5399   -2.1032    0.0036 C   0  0  1  0  0  0  0  0  0  0  0  0
    3.4211   -2.0491   -0.8751 O   0  0  0  0  0  0  0  0  0  0  0  0
    5.4319    0.5157    0.8657 H   0  0  0  0  0  0  0  0  0  0  0  0
    6.3911   -0.7203    1.6703 H   0  0  0  0  0  0  0  0  0  0  0  0
    5.2159    0.1948    2.5981 H   0  0  0  0  0  0  0  0  0  0  0  0
    3.3454   -0.7764    1.2549 H   0  0  0  0  0  0  0  0  0  0  0  0
    2.4248   -2.8595    0.7512 H   0  0  0  0  0  0  0  0  0  0  0  0
    5.2005   -4.5848    3.0515 H   0  0  0  0  0  0  0  0  0  0  0  0
    4.0021   -4.9934    4.8701 H   0  0  0  0  0  0  0  0  0  0  0  0
    3.2810   -3.4847    4.3782 H   0  0  0  0  0  0  0  0  0  0  0  0
    1.6281   -5.1262    5.1190 H   0  0  0  0  0  0  0  0  0  0  0  0
    1.3356   -4.7379    3.4546 H   0  0  0  0  0  0  0  0  0  0  0  0
    2.9130   -7.1544    4.4385 H   0  0  0  0  0  0  0  0  0  0  0  0
    1.1078   -8.6020    3.9527 H   0  0  0  0  0  0  0  0  0  0  0  0
   -0.4760   -8.1364    5.6428 H   0  0  0  0  0  0  0  0  0  0  0  0
   -0.2071   -6.4069    5.5746 H   0  0  0  0  0  0  0  0  0  0  0  0
    1.0494   -7.4725    6.1960 H   0  0  0  0  0  0  0  0  0  0  0  0
    0.4938   -8.4661    1.2947 H   0  0  0  0  0  0  0  0  0  0  0  0
   -0.4808   -7.1013    0.8076 H   0  0  0  0  0  0  0  0  0  0  0  0
    1.9153   -6.6533    0.2506 H   0  0  0  0  0  0  0  0  0  0  0  0
    1.3011   -5.5375    1.4072 H   0  0  0  0  0  0  0  0  0  0  0  0
    3.5030   -8.6390    1.1193 H   0  0  0  0  0  0  0  0  0  0  0  0
    2.3160   -9.1172    2.2933 H   0  0  0  0  0  0  0  0  0  0  0  0
    3.9156   -8.6987    2.8252 H   0  0  0  0  0  0  0  0  0  0  0  0
    4.7611   -6.6337    2.5491 H   0  0  0  0  0  0  0  0  0  0  0  0
    5.6203   -6.3220    0.5753 H   0  0  0  0  0  0  0  0  0  0  0  0
    4.1200   -6.8594   -0.0280 H   0  0  0  0  0  0  0  0  0  0  0  0
    4.9809   -4.8032   -1.1705 H   0  0  0  0  0  0  0  0  0  0  0  0
    3.3471   -4.6718   -0.6078 H   0  0  0  0  0  0  0  0  0  0  0  0
    6.9163   -3.4713    0.0206 H   0  0  0  0  0  0  0  0  0  0  0  0
    6.6046   -4.5688    1.3359 H   0  0  0  0  0  0  0  0  0  0  0  0
    6.6162   -2.8707    1.6427 H   0  0  0  0  0  0  0  0  0  0  0  0
    5.4029   -1.7226   -0.5477 H   0  0  0  0  0  0  0  0  0  0  0  0
    2.7210   -1.4957   -0.5274 H   0  0  0  0  0  0  0  0  0  0  0  0
  1  2  1  0
  1 25  1  0
  1 26  1  0
  1 27  1  0
  2 23  1  0
  2  3  1  0
  2 28  1  6
  3  4  1  0
  4 21  1  0
  4  5  1  6
  4  6  1  0
  5 29  1  0
  6 18  1  0
  6  7  1  0
  6 30  1  1
  7  8  1  0
  7 31  1  0
  7 32  1  0
  8  9  1  0
  8 33  1  0
  8 34  1  0
  9 16  1  0
  9 10  1  0
  9 35  1  1
 10 11  1  0
 10 12  1  0
 10 36  1  1
 11 37  1  0
 11 38  1  0
 11 39  1  0
 12 13  2  0
 12 14  1  0
 14 15  1  0
 14 40  1  0
 14 41  1  0
 15 16  1  0
 15 42  1  0
 15 43  1  0
 16 17  1  1
 16 18  1  0
 17 44  1  0
 17 45  1  0
 17 46  1  0
 18 19  1  0
 18 47  1  1
 19 20  1  0
 19 48  1  0
 19 49  1  0
 20 21  1  0
 20 50  1  0
 20 51  1  0
 21 22  1  1
 21 23  1  0
 22 52  1  0
 22 53  1  0
 22 54  1  0
 23 24  1  0
 23 55  1  6
 24 56  1  0
M  END
>  <i_m_ct_stereo_status>  (349) 
1

>  <s_m_source_file>  (349) 
/var/tmp/pbs.5076255.sched01/tmp0q3ly_rt/135fqi89qhj.sdf

>  <i_m_source_file_index>  (349) 
11

>  <i_lp_mmshare_version>  (349) 
48012

>  <i_f3d_flags>  (349) 
0

>  <s_epik_input>  (349) 
W0NIM11bQ0BIXShPMSlbQ0BIXShbT0hdKVtDQF0yKFtDSDNdKVtDSDJdW0NIMl1bQ0BASF0oW0NASF0zW0NAQF0xMltPSF0pW0NAQF00KFtDSDNdKVtDQEBIXShbQ0gyXVtDSDJdMylbQ0BASF0oW0NIM10pQyg9TylbQ0gyXVtDSDJdNA==

>  <s_epik_cmdline>  (349) 
J2VwaWtfcHl0aG9uJywgJy1waHQnLCAnMi4wJywgJy1waCcsICc3LjAnLCAnLXRuJywgJzgnLCAnLW1hJywgJzIwMCcsICctaW1hZScsICc8aW5maWxlLm1hZT4nLCAnLW9tYWUnLCAnPG91dGZpbGUubWFlPic=

>  <r_lp_tautomer_probability>  (349) 
1

>  <r_epik_Ionization_Penalty>  (349) 
2.62805e-07

>  <r_epik_Ionization_Penalty_Charging>  (349) 
0

>  <r_epik_Ionization_Penalty_Neutral>  (349) 
2.62805e-07

>  <r_epik_State_Penalty>  (349) 
-0

>  <r_epik_Charging_Adjusted_Penalty>  (349) 
0

>  <i_epik_Tot_Q>  (349) 
0

>  <i_epik_Tot_abs_Q>  (349) 
0

>  <s_lp_Force_Field>  (349) 
OPLS3e

>  <r_lp_Energy>  (349) 
43.086

>  <b_lp_Chiralities_Consistent>  (349) 
1

>  <s_lp_Variant>  (349) 
93:0-1

>  <s_i_glide_gridfile>  (349) 
pfpi4k_grid

>  <i_i_glide_lignum>  (349) 
11

>  <i_i_glide_rotatable_bonds>  (349) 
2

>  <r_i_docking_score>  (349) 
-3.46082

>  <r_i_glide_ligand_efficiency>  (349) 
-0.144201

>  <r_i_glide_ligand_efficiency_sa>  (349) 
-0.415947

>  <r_i_glide_ligand_efficiency_ln>  (349) 
-0.828333

>  <r_i_glide_gscore>  (349) 
-3.46082

>  <r_i_glide_lipo>  (349) 
-0.361643

>  <r_i_glide_hbond>  (349) 
-0.153718

>  <r_i_glide_metal>  (349) 
-0

>  <r_i_glide_rewards>  (349) 
-1.12216

>  <r_i_glide_evdw>  (349) 
-24.357

>  <r_i_glide_ecoul>  (349) 
-3.61901

>  <r_i_glide_erotb>  (349) 
0

>  <r_i_glide_esite>  (349) 
-0.0625933

>  <r_i_glide_emodel>  (349) 
-33.975

>  <r_i_glide_energy>  (349) 
-27.9761

>  <r_i_glide_einternal>  (349) 
1.23987

>  <r_i_glide_intrahb_reward>  (349) 
-0

>  <i_i_glide_confnum>  (349) 
2

>  <i_i_glide_posenum>  (349) 
14

>  <r_i_glide_eff_state_penalty>  (349) 
0

>  <ligand_id>  (349) 
93

>  <original_smiles>  (349) 
CC1OC2(O)C3CCC4C(C)C(=O)CCC4(C)C3CCC2(C)C1O

>  <smiles>  (349) 
[H]OC1([H])C([H])(C([H])([H])[H])OC2(O[H])C3([H])C([H])([H])C([H])([H])C4([H])C([H])(C([H])([H])[H])C(=O)C([H])([H])C([H])([H])C4(C([H])([H])[H])C3([H])C([H])([H])C([H])([H])C12C([H])([H])[H]

$$$$
93:0:2
     RDKit          3D

 56 59  0  0  1  0  0  0  0  0999 V2000
    3.8854   -0.7952   -2.8085 C   0  0  0  0  0  0  0  0  0  0  0  0
    3.8062   -2.1868   -2.1633 C   0  0  2  0  0  0  0  0  0  0  0  0
    3.4293   -2.0563   -0.7822 O   0  0  0  0  0  0  0  0  0  0  0  0
    4.0460   -3.0823   -0.0755 C   0  0  2  0  0  0  0  0  0  0  0  0
    3.3777   -4.3045   -0.3109 O   0  0  0  0  0  0  0  0  0  0  0  0
    4.0494   -2.8457    1.4555 C   0  0  1  0  0  0  0  0  0  0  0  0
    2.6264   -2.7122    2.0263 C   0  0  0  0  0  0  0  0  0  0  0  0
    2.0413   -4.0271    2.5529 C   0  0  0  0  0  0  0  0  0  0  0  0
    2.9414   -4.6735    3.6192 C   0  0  1  0  0  0  0  0  0  0  0  0
    2.2395   -5.8565    4.3552 C   0  0  1  0  0  0  0  0  0  0  0  0
    0.8513   -5.5188    4.9428 C   0  0  0  0  0  0  0  0  0  0  0  0
    2.2087   -7.1286    3.4916 C   0  0  0  0  0  0  0  0  0  0  0  0
    1.1895   -7.7985    3.3377 O   0  0  0  0  0  0  0  0  0  0  0  0
    3.5354   -7.5339    2.8528 C   0  0  0  0  0  0  0  0  0  0  0  0
    4.1774   -6.3387    2.1299 C   0  0  0  0  0  0  0  0  0  0  0  0
    4.3383   -5.0639    3.0157 C   0  0  2  0  0  0  0  0  0  0  0  0
    5.2908   -5.3938    4.2022 C   0  0  0  0  0  0  0  0  0  0  0  0
    4.9940   -3.8574    2.2129 C   0  0  1  0  0  0  0  0  0  0  0  0
    6.3210   -4.1993    1.4491 C   0  0  0  0  0  0  0  0  0  0  0  0
    6.2416   -4.2576   -0.0931 C   0  0  0  0  0  0  0  0  0  0  0  0
    5.4703   -3.0585   -0.6656 C   0  0  2  0  0  0  0  0  0  0  0  0
    6.2306   -1.7437   -0.2891 C   0  0  0  0  0  0  0  0  0  0  0  0
    5.1395   -2.9743   -2.1716 C   0  0  1  0  0  0  0  0  0  0  0  0
    5.0185   -4.2032   -2.8919 O   0  0  0  0  0  0  0  0  0  0  0  0
    4.1316   -0.8620   -3.8676 H   0  0  0  0  0  0  0  0  0  0  0  0
    4.6388   -0.1677   -2.3344 H   0  0  0  0  0  0  0  0  0  0  0  0
    2.9299   -0.2733   -2.7223 H   0  0  0  0  0  0  0  0  0  0  0  0
    3.0396   -2.7710   -2.6713 H   0  0  0  0  0  0  0  0  0  0  0  0
    3.3986   -4.5055   -1.2330 H   0  0  0  0  0  0  0  0  0  0  0  0
    4.4843   -1.8562    1.6040 H   0  0  0  0  0  0  0  0  0  0  0  0
    2.6636   -2.0112    2.8650 H   0  0  0  0  0  0  0  0  0  0  0  0
    1.9576   -2.2591    1.2868 H   0  0  0  0  0  0  0  0  0  0  0  0
    1.0636   -3.7862    2.9662 H   0  0  0  0  0  0  0  0  0  0  0  0
    1.8476   -4.7135    1.7322 H   0  0  0  0  0  0  0  0  0  0  0  0
    3.1118   -3.9075    4.3788 H   0  0  0  0  0  0  0  0  0  0  0  0
    2.8533   -6.1098    5.2148 H   0  0  0  0  0  0  0  0  0  0  0  0
    0.5342   -6.2850    5.6456 H   0  0  0  0  0  0  0  0  0  0  0  0
    0.0817   -5.4538    4.1761 H   0  0  0  0  0  0  0  0  0  0  0  0
    0.8721   -4.5734    5.4791 H   0  0  0  0  0  0  0  0  0  0  0  0
    4.1969   -7.9164    3.6290 H   0  0  0  0  0  0  0  0  0  0  0  0
    3.3653   -8.3521    2.1499 H   0  0  0  0  0  0  0  0  0  0  0  0
    5.1354   -6.6540    1.7146 H   0  0  0  0  0  0  0  0  0  0  0  0
    3.5494   -6.1259    1.2723 H   0  0  0  0  0  0  0  0  0  0  0  0
    6.2817   -5.6989    3.8650 H   0  0  0  0  0  0  0  0  0  0  0  0
    4.9262   -6.2041    4.8293 H   0  0  0  0  0  0  0  0  0  0  0  0
    5.4202   -4.5341    4.8606 H   0  0  0  0  0  0  0  0  0  0  0  0
    5.3446   -3.2326    3.0339 H   0  0  0  0  0  0  0  0  0  0  0  0
    7.0778   -3.4643    1.7244 H   0  0  0  0  0  0  0  0  0  0  0  0
    6.7519   -5.1339    1.7929 H   0  0  0  0  0  0  0  0  0  0  0  0
    7.2531   -4.2595   -0.4939 H   0  0  0  0  0  0  0  0  0  0  0  0
    5.7844   -5.1971   -0.3977 H   0  0  0  0  0  0  0  0  0  0  0  0
    7.1650   -1.7033   -0.8410 H   0  0  0  0  0  0  0  0  0  0  0  0
    6.5029   -1.6475    0.7581 H   0  0  0  0  0  0  0  0  0  0  0  0
    5.6647   -0.8424   -0.5177 H   0  0  0  0  0  0  0  0  0  0  0  0
    5.9184   -2.4185   -2.6944 H   0  0  0  0  0  0  0  0  0  0  0  0
    4.3402   -4.7713   -2.5341 H   0  0  0  0  0  0  0  0  0  0  0  0
  1  2  1  0
  1 25  1  0
  1 26  1  0
  1 27  1  0
  2 23  1  0
  2  3  1  0
  2 28  1  6
  3  4  1  0
  4 21  1  0
  4  5  1  1
  4  6  1  0
  5 29  1  0
  6 18  1  0
  6  7  1  0
  6 30  1  6
  7  8  1  0
  7 31  1  0
  7 32  1  0
  8  9  1  0
  8 33  1  0
  8 34  1  0
  9 16  1  0
  9 10  1  0
  9 35  1  1
 10 11  1  0
 10 12  1  0
 10 36  1  1
 11 37  1  0
 11 38  1  0
 11 39  1  0
 12 13  2  0
 12 14  1  0
 14 15  1  0
 14 40  1  0
 14 41  1  0
 15 16  1  0
 15 42  1  0
 15 43  1  0
 16 17  1  1
 16 18  1  0
 17 44  1  0
 17 45  1  0
 17 46  1  0
 18 19  1  0
 18 47  1  1
 19 20  1  0
 19 48  1  0
 19 49  1  0
 20 21  1  0
 20 50  1  0
 20 51  1  0
 21 22  1  1
 21 23  1  0
 22 52  1  0
 22 53  1  0
 22 54  1  0
 23 24  1  0
 23 55  1  6
 24 56  1  0
M  END
>  <i_m_ct_stereo_status>  (350) 
1

>  <s_m_source_file>  (350) 
/var/tmp/pbs.5076255.sched01/tmp0q3ly_rt/135fqi89qhj.sdf

>  <i_m_source_file_index>  (350) 
11

>  <i_lp_mmshare_version>  (350) 
48012

>  <i_f3d_flags>  (350) 
0

>  <s_epik_input>  (350) 
W0NIM11bQ0BIXShPMSlbQ0BIXShbT0hdKVtDQF0yKFtDSDNdKVtDSDJdW0NIMl1bQ0BASF0oW0NASF0zW0NAQF0xMltPSF0pW0NAQF00KFtDSDNdKVtDQEBIXShbQ0gyXVtDSDJdMylbQ0BASF0oW0NIM10pQyg9TylbQ0gyXVtDSDJdNA==

>  <s_epik_cmdline>  (350) 
J2VwaWtfcHl0aG9uJywgJy1waHQnLCAnMi4wJywgJy1waCcsICc3LjAnLCAnLXRuJywgJzgnLCAnLW1hJywgJzIwMCcsICctaW1hZScsICc8aW5maWxlLm1hZT4nLCAnLW9tYWUnLCAnPG91dGZpbGUubWFlPic=

>  <r_lp_tautomer_probability>  (350) 
1

>  <r_epik_Ionization_Penalty>  (350) 
2.62805e-07

>  <r_epik_Ionization_Penalty_Charging>  (350) 
0

>  <r_epik_Ionization_Penalty_Neutral>  (350) 
2.62805e-07

>  <r_epik_State_Penalty>  (350) 
-0

>  <r_epik_Charging_Adjusted_Penalty>  (350) 
0

>  <i_epik_Tot_Q>  (350) 
0

>  <i_epik_Tot_abs_Q>  (350) 
0

>  <s_lp_Force_Field>  (350) 
OPLS3e

>  <r_lp_Energy>  (350) 
43.086

>  <b_lp_Chiralities_Consistent>  (350) 
1

>  <s_lp_Variant>  (350) 
93:0-1

>  <s_i_glide_gridfile>  (350) 
pfpi4k_grid

>  <i_i_glide_lignum>  (350) 
11

>  <i_i_glide_rotatable_bonds>  (350) 
2

>  <r_i_docking_score>  (350) 
-3.27963

>  <r_i_glide_ligand_efficiency>  (350) 
-0.136651

>  <r_i_glide_ligand_efficiency_sa>  (350) 
-0.394171

>  <r_i_glide_ligand_efficiency_ln>  (350) 
-0.784967

>  <r_i_glide_gscore>  (350) 
-3.27963

>  <r_i_glide_lipo>  (350) 
-0.399461

>  <r_i_glide_hbond>  (350) 
0

>  <r_i_glide_metal>  (350) 
-0

>  <r_i_glide_rewards>  (350) 
-1.12531

>  <r_i_glide_evdw>  (350) 
-23.5258

>  <r_i_glide_ecoul>  (350) 
-3.84089

>  <r_i_glide_erotb>  (350) 
0

>  <r_i_glide_esite>  (350) 
-0.00243883

>  <r_i_glide_emodel>  (350) 
-33.7969

>  <r_i_glide_energy>  (350) 
-27.3667

>  <r_i_glide_einternal>  (350) 
0.141186

>  <r_i_glide_intrahb_reward>  (350) 
-0

>  <i_i_glide_confnum>  (350) 
2

>  <i_i_glide_posenum>  (350) 
6

>  <r_i_glide_eff_state_penalty>  (350) 
0

>  <ligand_id>  (350) 
93

>  <original_smiles>  (350) 
CC1OC2(O)C3CCC4C(C)C(=O)CCC4(C)C3CCC2(C)C1O

>  <smiles>  (350) 
[H]OC1([H])C([H])(C([H])([H])[H])OC2(O[H])C3([H])C([H])([H])C([H])([H])C4([H])C([H])(C([H])([H])[H])C(=O)C([H])([H])C([H])([H])C4(C([H])([H])[H])C3([H])C([H])([H])C([H])([H])C12C([H])([H])[H]

$$$$
94:0:0
     RDKit          3D

 34 37  0  0  1  0  0  0  0  0999 V2000
    4.1429   -3.9639   -0.7832 C   0  0  0  0  0  0  0  0  0  0  0  0
    3.5867   -5.0337    0.0910 C   0  0  0  0  0  0  0  0  0  0  0  0
    2.3236   -5.1869    0.4869 N   0  0  0  0  0  0  0  0  0  0  0  0
    2.4476   -6.3183    1.2397 C   0  0  0  0  0  0  0  0  0  0  0  0
    1.2883   -6.9329    1.8967 C   0  0  0  0  0  0  0  0  0  0  0  0
   -0.0303   -6.4623    1.6906 N   0  0  0  0  0  0  0  0  0  0  0  0
   -0.8152   -7.2615    2.4096 C   0  0  0  0  0  0  0  0  0  0  0  0
   -0.1239   -8.1873    3.0641 N   0  0  0  0  0  0  0  0  0  0  0  0
    1.1931   -7.9851    2.7837 C   0  0  0  0  0  0  0  0  0  0  0  0
    2.0258   -8.9657    3.5271 C   0  0  2  0  0  0  0  0  0  0  0  0
    2.4496  -10.1421    2.6291 C   0  0  0  0  0  0  0  0  0  0  0  0
    2.8717  -11.3520    3.4731 C   0  0  0  0  0  0  0  0  0  0  0  0
    1.7066  -11.8074    4.3631 C   0  0  0  0  0  0  0  0  0  0  0  0
    1.2856  -10.7225    5.2698 N   0  0  0  0  0  0  0  0  0  0  0  0
    0.9984   -9.4234    4.6086 C   0  0  2  0  0  0  0  0  0  0  0  0
   -0.4001   -9.2697    3.9564 C   0  0  0  0  0  0  0  0  0  0  0  0
    3.6599   -6.8523    1.3383 N   0  0  0  0  0  0  0  0  0  0  0  0
    4.4347   -5.9860    0.5507 O   0  0  0  0  0  0  0  0  0  0  0  0
    3.3515   -3.2939   -1.1106 H   0  0  0  0  0  0  0  0  0  0  0  0
    4.6145   -4.4077   -1.6591 H   0  0  0  0  0  0  0  0  0  0  0  0
    4.8902   -3.3928   -0.2346 H   0  0  0  0  0  0  0  0  0  0  0  0
   -1.8850   -7.1334    2.4924 H   0  0  0  0  0  0  0  0  0  0  0  0
    2.8987   -8.4839    3.9740 H   0  0  0  0  0  0  0  0  0  0  0  0
    1.5987  -10.4364    2.0158 H   0  0  0  0  0  0  0  0  0  0  0  0
    3.2443   -9.8522    1.9401 H   0  0  0  0  0  0  0  0  0  0  0  0
    3.1655  -12.1756    2.8198 H   0  0  0  0  0  0  0  0  0  0  0  0
    3.7523  -11.1055    4.0749 H   0  0  0  0  0  0  0  0  0  0  0  0
    0.8607  -12.1259    3.7538 H   0  0  0  0  0  0  0  0  0  0  0  0
    2.0177  -12.6611    4.9683 H   0  0  0  0  0  0  0  0  0  0  0  0
    0.4841  -11.0338    5.8018 H   0  0  0  0  0  0  0  0  0  0  0  0
    1.0312   -8.6739    5.4038 H   0  0  0  0  0  0  0  0  0  0  0  0
   -1.2058   -9.0105    4.6443 H   0  0  0  0  0  0  0  0  0  0  0  0
   -0.6794  -10.1357    3.3445 H   0  0  0  0  0  0  0  0  0  0  0  0
    2.0395  -10.5878    5.9257 H   0  0  0  0  0  0  0  0  0  0  0  0
  1  2  1  0
  1 19  1  0
  1 20  1  0
  1 21  1  0
  2 18  1  0
  2  3  2  0
  3  4  1  0
  4  5  1  0
  4 17  2  0
  5  9  2  0
  5  6  1  0
  6  7  2  0
  7  8  1  0
  7 22  1  0
  8 16  1  0
  8  9  1  0
  9 10  1  0
 10 15  1  0
 10 11  1  0
 10 23  1  1
 11 12  1  0
 11 24  1  0
 11 25  1  0
 12 13  1  0
 12 26  1  0
 12 27  1  0
 13 14  1  0
 13 28  1  0
 13 29  1  0
 14 15  1  0
 14 30  1  0
 14 34  1  0
 15 16  1  0
 15 31  1  1
 16 32  1  0
 16 33  1  0
 17 18  1  0
M  CHG  1  14   1
M  END
>  <i_m_ct_stereo_status>  (351) 
1

>  <s_m_source_file>  (351) 
/var/tmp/pbs.5076255.sched01/tmp0q3ly_rt/135fqi89qhj.sdf

>  <i_m_source_file_index>  (351) 
12

>  <i_lp_mmshare_version>  (351) 
48012

>  <i_f3d_flags>  (351) 
0

>  <s_epik_input>  (351) 
W0NIM11jMW5jKG5vMSktYyhuW2NIXTIpYyhuMjMpW0NASF00W0NAQEhdKFtDSDJdMylbTkhdW0NIMl1bQ0gyXVtDSDJdNA==

>  <s_epik_cmdline>  (351) 
J2VwaWtfcHl0aG9uJywgJy1waHQnLCAnMi4wJywgJy1waCcsICc3LjAnLCAnLXRuJywgJzgnLCAnLW1hJywgJzIwMCcsICctaW1hZScsICc8aW5maWxlLm1hZT4nLCAnLW9tYWUnLCAnPG91dGZpbGUubWFlPic=

>  <r_lp_tautomer_probability>  (351) 
1

>  <r_epik_Ionization_Penalty>  (351) 
0.00261921

>  <r_epik_Ionization_Penalty_Charging>  (351) 
0.00261921

>  <r_epik_Ionization_Penalty_Neutral>  (351) 
2.62459e-13

>  <r_epik_State_Penalty>  (351) 
-0

>  <r_epik_Charging_Adjusted_Penalty>  (351) 
0.00261921

>  <i_epik_Tot_Q>  (351) 
1

>  <i_epik_Tot_abs_Q>  (351) 
1

>  <s_lp_Force_Field>  (351) 
OPLS3e

>  <r_lp_Energy>  (351) 
23.8978

>  <b_lp_Chiralities_Consistent>  (351) 
1

>  <s_lp_Variant>  (351) 
94:0-1

>  <s_i_glide_gridfile>  (351) 
pfpi4k_grid

>  <i_i_glide_lignum>  (351) 
12

>  <i_i_glide_rotatable_bonds>  (351) 
1

>  <r_i_docking_score>  (351) 
-4.89802

>  <r_i_glide_ligand_efficiency>  (351) 
-0.272112

>  <r_i_glide_ligand_efficiency_sa>  (351) 
-0.713136

>  <r_i_glide_ligand_efficiency_ln>  (351) 
-1.25901

>  <r_i_glide_gscore>  (351) 
-4.89802

>  <r_i_glide_lipo>  (351) 
0

>  <r_i_glide_hbond>  (351) 
-0.305587

>  <r_i_glide_metal>  (351) 
-0

>  <r_i_glide_rewards>  (351) 
-2.25985

>  <r_i_glide_evdw>  (351) 
-18.6569

>  <r_i_glide_ecoul>  (351) 
-9.10498

>  <r_i_glide_erotb>  (351) 
0.201086

>  <r_i_glide_esite>  (351) 
-0.235077

>  <r_i_glide_emodel>  (351) 
-41.0304

>  <r_i_glide_energy>  (351) 
-27.7619

>  <r_i_glide_einternal>  (351) 
0.0691656

>  <r_i_glide_intrahb_reward>  (351) 
-0

>  <i_i_glide_confnum>  (351) 
2

>  <i_i_glide_posenum>  (351) 
11

>  <r_i_glide_eff_state_penalty>  (351) 
0

>  <ligand_id>  (351) 
94

>  <original_smiles>  (351) 
Cc1nc(-c2ncn3c2C2CCCNC2C3)no1

>  <smiles>  (351) 
[H]c1nc(-c2noc(C([H])([H])[H])n2)c2n1C([H])([H])C1([H])C2([H])C([H])([H])C([H])([H])C([H])([H])[N+]1([H])[H]

$$$$
94:0:1
     RDKit          3D

 34 37  0  0  1  0  0  0  0  0999 V2000
    0.3628   -2.7659    4.4473 C   0  0  0  0  0  0  0  0  0  0  0  0
    0.1535   -3.5685    5.6752 C   0  0  0  0  0  0  0  0  0  0  0  0
    0.5543   -4.8222    5.8749 N   0  0  0  0  0  0  0  0  0  0  0  0
    0.1405   -5.0048    7.1562 C   0  0  0  0  0  0  0  0  0  0  0  0
    0.3573   -6.2930    7.8252 C   0  0  0  0  0  0  0  0  0  0  0  0
    0.1970   -6.4606    9.2172 N   0  0  0  0  0  0  0  0  0  0  0  0
    0.4665   -7.7424    9.4651 C   0  0  0  0  0  0  0  0  0  0  0  0
    0.7669   -8.4093    8.3515 N   0  0  0  0  0  0  0  0  0  0  0  0
    0.7363   -7.5229    7.3173 C   0  0  0  0  0  0  0  0  0  0  0  0
    1.1123   -8.2024    6.0482 C   0  0  2  0  0  0  0  0  0  0  0  0
   -0.1207   -8.5726    5.1927 C   0  0  0  0  0  0  0  0  0  0  0  0
    0.2286   -9.6580    4.1654 C   0  0  0  0  0  0  0  0  0  0  0  0
    0.7272  -10.9237    4.8792 C   0  0  0  0  0  0  0  0  0  0  0  0
    1.9283  -10.6268    5.6801 N   0  0  0  0  0  0  0  0  0  0  0  0
    1.8012   -9.4761    6.6156 C   0  0  2  0  0  0  0  0  0  0  0  0
    1.1070   -9.7500    7.9771 C   0  0  0  0  0  0  0  0  0  0  0  0
   -0.5458   -4.0123    7.7164 N   0  0  0  0  0  0  0  0  0  0  0  0
   -0.5289   -3.0267    6.7162 O   0  0  0  0  0  0  0  0  0  0  0  0
    0.9355   -3.3473    3.7247 H   0  0  0  0  0  0  0  0  0  0  0  0
    0.9076   -1.8504    4.6781 H   0  0  0  0  0  0  0  0  0  0  0  0
   -0.5990   -2.5087    4.0098 H   0  0  0  0  0  0  0  0  0  0  0  0
    0.4608   -8.1763   10.4559 H   0  0  0  0  0  0  0  0  0  0  0  0
    1.8159   -7.5996    5.4679 H   0  0  0  0  0  0  0  0  0  0  0  0
   -0.9199   -8.9634    5.8259 H   0  0  0  0  0  0  0  0  0  0  0  0
   -0.5252   -7.6900    4.7013 H   0  0  0  0  0  0  0  0  0  0  0  0
   -0.6521   -9.9052    3.5735 H   0  0  0  0  0  0  0  0  0  0  0  0
    0.9813   -9.2925    3.4585 H   0  0  0  0  0  0  0  0  0  0  0  0
   -0.0326  -11.3293    5.5488 H   0  0  0  0  0  0  0  0  0  0  0  0
    0.9660  -11.7077    4.1524 H   0  0  0  0  0  0  0  0  0  0  0  0
    2.1337  -11.4508    6.2408 H   0  0  0  0  0  0  0  0  0  0  0  0
    2.8256   -9.2006    6.8697 H   0  0  0  0  0  0  0  0  0  0  0  0
    1.7316  -10.2233    8.7322 H   0  0  0  0  0  0  0  0  0  0  0  0
    0.1668  -10.2942    7.8450 H   0  0  0  0  0  0  0  0  0  0  0  0
    2.6849  -10.4389    5.0416 H   0  0  0  0  0  0  0  0  0  0  0  0
  1  2  1  0
  1 19  1  0
  1 20  1  0
  1 21  1  0
  2 18  1  0
  2  3  2  0
  3  4  1  0
  4  5  1  0
  4 17  2  0
  5  9  2  0
  5  6  1  0
  6  7  2  0
  7  8  1  0
  7 22  1  0
  8 16  1  0
  8  9  1  0
  9 10  1  0
 10 15  1  0
 10 11  1  0
 10 23  1  6
 11 12  1  0
 11 24  1  0
 11 25  1  0
 12 13  1  0
 12 26  1  0
 12 27  1  0
 13 14  1  0
 13 28  1  0
 13 29  1  0
 14 15  1  0
 14 30  1  0
 14 34  1  0
 15 16  1  0
 15 31  1  1
 16 32  1  0
 16 33  1  0
 17 18  1  0
M  CHG  1  14   1
M  END
>  <i_m_ct_stereo_status>  (352) 
1

>  <s_m_source_file>  (352) 
/var/tmp/pbs.5076255.sched01/tmp0q3ly_rt/135fqi89qhj.sdf

>  <i_m_source_file_index>  (352) 
12

>  <i_lp_mmshare_version>  (352) 
48012

>  <i_f3d_flags>  (352) 
0

>  <s_epik_input>  (352) 
W0NIM11jMW5jKG5vMSktYyhuW2NIXTIpYyhuMjMpW0NASF00W0NAQEhdKFtDSDJdMylbTkhdW0NIMl1bQ0gyXVtDSDJdNA==

>  <s_epik_cmdline>  (352) 
J2VwaWtfcHl0aG9uJywgJy1waHQnLCAnMi4wJywgJy1waCcsICc3LjAnLCAnLXRuJywgJzgnLCAnLW1hJywgJzIwMCcsICctaW1hZScsICc8aW5maWxlLm1hZT4nLCAnLW9tYWUnLCAnPG91dGZpbGUubWFlPic=

>  <r_lp_tautomer_probability>  (352) 
1

>  <r_epik_Ionization_Penalty>  (352) 
0.00261921

>  <r_epik_Ionization_Penalty_Charging>  (352) 
0.00261921

>  <r_epik_Ionization_Penalty_Neutral>  (352) 
2.62459e-13

>  <r_epik_State_Penalty>  (352) 
-0

>  <r_epik_Charging_Adjusted_Penalty>  (352) 
0.00261921

>  <i_epik_Tot_Q>  (352) 
1

>  <i_epik_Tot_abs_Q>  (352) 
1

>  <s_lp_Force_Field>  (352) 
OPLS3e

>  <r_lp_Energy>  (352) 
23.8978

>  <b_lp_Chiralities_Consistent>  (352) 
1

>  <s_lp_Variant>  (352) 
94:0-1

>  <s_i_glide_gridfile>  (352) 
pfpi4k_grid

>  <i_i_glide_lignum>  (352) 
12

>  <i_i_glide_rotatable_bonds>  (352) 
1

>  <r_i_docking_score>  (352) 
-4.27251

>  <r_i_glide_ligand_efficiency>  (352) 
-0.237362

>  <r_i_glide_ligand_efficiency_sa>  (352) 
-0.622064

>  <r_i_glide_ligand_efficiency_ln>  (352) 
-1.09823

>  <r_i_glide_gscore>  (352) 
-4.27251

>  <r_i_glide_lipo>  (352) 
-0.0441484

>  <r_i_glide_hbond>  (352) 
-0.36086

>  <r_i_glide_metal>  (352) 
-0

>  <r_i_glide_rewards>  (352) 
-1.72985

>  <r_i_glide_evdw>  (352) 
-14.5715

>  <r_i_glide_ecoul>  (352) 
-9.71635

>  <r_i_glide_erotb>  (352) 
0.287266

>  <r_i_glide_esite>  (352) 
-0.238894

>  <r_i_glide_emodel>  (352) 
-35.4945

>  <r_i_glide_energy>  (352) 
-24.2878

>  <r_i_glide_einternal>  (352) 
0.531919

>  <r_i_glide_intrahb_reward>  (352) 
-0

>  <i_i_glide_confnum>  (352) 
3

>  <i_i_glide_posenum>  (352) 
2

>  <r_i_glide_eff_state_penalty>  (352) 
0

>  <ligand_id>  (352) 
94

>  <original_smiles>  (352) 
Cc1nc(-c2ncn3c2C2CCCNC2C3)no1

>  <smiles>  (352) 
[H]c1nc(-c2noc(C([H])([H])[H])n2)c2n1C([H])([H])C1([H])C2([H])C([H])([H])C([H])([H])C([H])([H])[N+]1([H])[H]

$$$$
94:0:2
     RDKit          3D

 34 37  0  0  1  0  0  0  0  0999 V2000
    3.5310   -4.0359   -0.5391 C   0  0  0  0  0  0  0  0  0  0  0  0
    3.1291   -5.2413    0.2365 C   0  0  0  0  0  0  0  0  0  0  0  0
    3.9194   -6.2142    0.6949 N   0  0  0  0  0  0  0  0  0  0  0  0
    2.9976   -7.0232    1.2841 C   0  0  0  0  0  0  0  0  0  0  0  0
    3.3837   -8.2576    1.9858 C   0  0  0  0  0  0  0  0  0  0  0  0
    4.6315   -8.8656    1.7701 N   0  0  0  0  0  0  0  0  0  0  0  0
    4.6654   -9.9309    2.5693 C   0  0  0  0  0  0  0  0  0  0  0  0
    3.5465  -10.0472    3.2853 N   0  0  0  0  0  0  0  0  0  0  0  0
    2.7180   -9.0243    2.9215 C   0  0  0  0  0  0  0  0  0  0  0  0
    1.4340   -9.1135    3.6646 C   0  0  2  0  0  0  0  0  0  0  0  0
    1.3884   -8.1505    4.8720 C   0  0  0  0  0  0  0  0  0  0  0  0
    0.3069   -8.5704    5.8733 C   0  0  0  0  0  0  0  0  0  0  0  0
    0.5994   -9.9841    6.3854 C   0  0  0  0  0  0  0  0  0  0  0  0
    0.6181  -10.9549    5.2741 N   0  0  0  0  0  0  0  0  0  0  0  0
    1.5038  -10.5982    4.1390 C   0  0  2  0  0  0  0  0  0  0  0  0
    3.0164  -10.9157    4.2999 C   0  0  0  0  0  0  0  0  0  0  0  0
    1.7372   -6.6007    1.2795 N   0  0  0  0  0  0  0  0  0  0  0  0
    1.8139   -5.4232    0.5205 O   0  0  0  0  0  0  0  0  0  0  0  0
    4.6093   -4.0334   -0.6905 H   0  0  0  0  0  0  0  0  0  0  0  0
    3.2431   -3.1334   -0.0004 H   0  0  0  0  0  0  0  0  0  0  0  0
    3.0380   -4.0363   -1.5112 H   0  0  0  0  0  0  0  0  0  0  0  0
    5.4944  -10.6238    2.5867 H   0  0  0  0  0  0  0  0  0  0  0  0
    0.5769   -8.9535    3.0039 H   0  0  0  0  0  0  0  0  0  0  0  0
    2.3495   -8.1350    5.3917 H   0  0  0  0  0  0  0  0  0  0  0  0
    1.2210   -7.1319    4.5407 H   0  0  0  0  0  0  0  0  0  0  0  0
    0.2857   -7.8850    6.7203 H   0  0  0  0  0  0  0  0  0  0  0  0
   -0.6839   -8.5352    5.4168 H   0  0  0  0  0  0  0  0  0  0  0  0
    1.5583  -10.0196    6.9064 H   0  0  0  0  0  0  0  0  0  0  0  0
   -0.1591  -10.2989    7.1046 H   0  0  0  0  0  0  0  0  0  0  0  0
    0.9025  -11.8489    5.6611 H   0  0  0  0  0  0  0  0  0  0  0  0
    1.1687  -11.2133    3.3018 H   0  0  0  0  0  0  0  0  0  0  0  0
    3.2987  -11.9549    4.1281 H   0  0  0  0  0  0  0  0  0  0  0  0
    3.4039  -10.5699    5.2634 H   0  0  0  0  0  0  0  0  0  0  0  0
   -0.3414  -11.0275    4.9502 H   0  0  0  0  0  0  0  0  0  0  0  0
  1  2  1  0
  1 19  1  0
  1 20  1  0
  1 21  1  0
  2 18  1  0
  2  3  2  0
  3  4  1  0
  4  5  1  0
  4 17  2  0
  5  9  2  0
  5  6  1  0
  6  7  2  0
  7  8  1  0
  7 22  1  0
  8 16  1  0
  8  9  1  0
  9 10  1  0
 10 15  1  0
 10 11  1  0
 10 23  1  6
 11 12  1  0
 11 24  1  0
 11 25  1  0
 12 13  1  0
 12 26  1  0
 12 27  1  0
 13 14  1  0
 13 28  1  0
 13 29  1  0
 14 15  1  0
 14 30  1  0
 14 34  1  0
 15 16  1  0
 15 31  1  6
 16 32  1  0
 16 33  1  0
 17 18  1  0
M  CHG  1  14   1
M  END
>  <i_m_ct_stereo_status>  (353) 
1

>  <s_m_source_file>  (353) 
/var/tmp/pbs.5076255.sched01/tmp0q3ly_rt/135fqi89qhj.sdf

>  <i_m_source_file_index>  (353) 
12

>  <i_lp_mmshare_version>  (353) 
48012

>  <i_f3d_flags>  (353) 
0

>  <s_epik_input>  (353) 
W0NIM11jMW5jKG5vMSktYyhuW2NIXTIpYyhuMjMpW0NASF00W0NAQEhdKFtDSDJdMylbTkhdW0NIMl1bQ0gyXVtDSDJdNA==

>  <s_epik_cmdline>  (353) 
J2VwaWtfcHl0aG9uJywgJy1waHQnLCAnMi4wJywgJy1waCcsICc3LjAnLCAnLXRuJywgJzgnLCAnLW1hJywgJzIwMCcsICctaW1hZScsICc8aW5maWxlLm1hZT4nLCAnLW9tYWUnLCAnPG91dGZpbGUubWFlPic=

>  <r_lp_tautomer_probability>  (353) 
1

>  <r_epik_Ionization_Penalty>  (353) 
0.00261921

>  <r_epik_Ionization_Penalty_Charging>  (353) 
0.00261921

>  <r_epik_Ionization_Penalty_Neutral>  (353) 
2.62459e-13

>  <r_epik_State_Penalty>  (353) 
-0

>  <r_epik_Charging_Adjusted_Penalty>  (353) 
0.00261921

>  <i_epik_Tot_Q>  (353) 
1

>  <i_epik_Tot_abs_Q>  (353) 
1

>  <s_lp_Force_Field>  (353) 
OPLS3e

>  <r_lp_Energy>  (353) 
23.8978

>  <b_lp_Chiralities_Consistent>  (353) 
1

>  <s_lp_Variant>  (353) 
94:0-1

>  <s_i_glide_gridfile>  (353) 
pfpi4k_grid

>  <i_i_glide_lignum>  (353) 
12

>  <i_i_glide_rotatable_bonds>  (353) 
1

>  <r_i_docking_score>  (353) 
-4.24602

>  <r_i_glide_ligand_efficiency>  (353) 
-0.23589

>  <r_i_glide_ligand_efficiency_sa>  (353) 
-0.618207

>  <r_i_glide_ligand_efficiency_ln>  (353) 
-1.09142

>  <r_i_glide_gscore>  (353) 
-4.24602

>  <r_i_glide_lipo>  (353) 
0

>  <r_i_glide_hbond>  (353) 
-0.311247

>  <r_i_glide_metal>  (353) 
-0

>  <r_i_glide_rewards>  (353) 
-1.79012

>  <r_i_glide_evdw>  (353) 
-16.3587

>  <r_i_glide_ecoul>  (353) 
-8.73283

>  <r_i_glide_erotb>  (353) 
0.287266

>  <r_i_glide_esite>  (353) 
-0.30406

>  <r_i_glide_emodel>  (353) 
-36.1874

>  <r_i_glide_energy>  (353) 
-25.0915

>  <r_i_glide_einternal>  (353) 
0.593356

>  <r_i_glide_intrahb_reward>  (353) 
-0

>  <i_i_glide_confnum>  (353) 
4

>  <i_i_glide_posenum>  (353) 
4

>  <r_i_glide_eff_state_penalty>  (353) 
0

>  <ligand_id>  (353) 
94

>  <original_smiles>  (353) 
Cc1nc(-c2ncn3c2C2CCCNC2C3)no1

>  <smiles>  (353) 
[H]c1nc(-c2noc(C([H])([H])[H])n2)c2n1C([H])([H])C1([H])C2([H])C([H])([H])C([H])([H])C([H])([H])[N+]1([H])[H]

$$$$
95:0:0
     RDKit          3D

 86 92  0  0  1  0  0  0  0  0999 V2000
    2.3190   -9.3828    1.8127 C   0  0  0  0  0  0  0  0  0  0  0  0
    1.3102   -8.3243    2.3559 C   0  0  1  0  0  0  0  0  0  0  0  0
    1.0724   -7.4110    1.0946 C   0  0  0  0  0  0  0  0  0  0  0  0
   -0.1464   -6.6969    0.9930 O   0  0  0  0  0  0  0  0  0  0  0  0
   -0.0232   -9.0782    2.7852 C   0  0  1  0  0  0  0  0  0  0  0  0
    0.2559  -10.1804    3.6463 O   0  0  0  0  0  0  0  0  0  0  0  0
   -1.1557   -8.2636    3.4868 C   0  0  0  0  0  0  0  0  0  0  0  0
   -0.7235   -7.8453    4.8673 C   0  0  0  0  0  0  0  0  0  0  0  0
    0.3174   -7.0310    5.1086 C   0  0  0  0  0  0  0  0  0  0  0  0
    1.0874   -6.3411    3.9964 C   0  0  2  0  0  0  0  0  0  0  0  0
    2.0271   -7.4778    3.4909 C   0  0  1  0  0  0  0  0  0  0  0  0
    2.7274   -8.2745    4.6716 C   0  0  0  0  0  0  0  0  0  0  0  0
    2.0242   -8.3146    6.0774 C   0  0  0  0  0  0  0  0  0  0  0  0
    1.1000   -7.1014    6.3910 C   0  0  1  0  0  0  0  0  0  0  0  0
    1.7955   -5.7364    6.7867 C   0  0  2  0  0  0  0  0  0  0  0  0
    3.3426   -5.9230    6.8661 C   0  0  0  0  0  0  0  0  0  0  0  0
    1.4617   -5.1682    8.1749 C   0  0  0  0  0  0  0  0  0  0  0  0
    1.8786   -3.6780    8.0835 C   0  0  0  0  0  0  0  0  0  0  0  0
    1.8621   -3.2823    6.5779 C   0  0  1  0  0  0  0  0  0  0  0  0
    3.1615   -2.6439    6.0370 C   0  0  0  0  0  0  0  0  0  0  0  0
    2.9673   -2.0719    4.6230 C   0  0  0  0  0  0  0  0  0  0  0  0
    3.3320   -3.0264    3.4625 C   0  0  2  0  0  0  0  0  0  0  0  0
    4.8151   -2.9401    3.1242 C   0  0  0  0  0  0  0  0  0  0  0  0
    4.9982   -2.7273    1.8113 C   0  0  0  0  0  0  0  0  0  0  0  0
    6.2422   -2.3564    1.0402 C   0  0  0  0  0  0  0  0  0  0  0  0
    5.6789   -1.3990   -0.0345 C   0  0  0  0  0  0  0  0  0  0  0  0
    4.1532   -1.2392    0.2511 C   0  0  1  0  0  0  0  0  0  0  0  0
    3.9274    0.0755    1.0275 C   0  0  0  0  0  0  0  0  0  0  0  0
    3.4501   -1.1486   -0.9545 O   0  0  0  0  0  0  0  0  0  0  0  0
    3.7808   -2.5419    1.0228 C   0  0  1  0  0  0  0  0  0  0  0  0
    3.5938   -3.7595    0.0811 C   0  0  0  0  0  0  0  0  0  0  0  0
    2.6767   -2.5162    2.1302 C   0  0  0  0  0  0  0  0  0  0  0  0
    2.9949   -4.5149    3.7540 C   0  0  0  0  0  0  0  0  0  0  0  0
    1.6049   -4.8849    4.3612 C   0  0  2  0  0  0  0  0  0  0  0  0
    1.3101   -4.5543    5.8727 C   0  0  1  0  0  0  0  0  0  0  0  0
   -0.2410   -4.2609    5.9545 C   0  0  0  0  0  0  0  0  0  0  0  0
    1.9265   -9.8887    0.9367 H   0  0  0  0  0  0  0  0  0  0  0  0
    2.5671  -10.1740    2.5167 H   0  0  0  0  0  0  0  0  0  0  0  0
    3.2621   -8.9315    1.5011 H   0  0  0  0  0  0  0  0  0  0  0  0
    1.9205   -6.7349    0.9465 H   0  0  0  0  0  0  0  0  0  0  0  0
    1.0188   -8.0144    0.2027 H   0  0  0  0  0  0  0  0  0  0  0  0
   -0.8411   -7.3334    1.0747 H   0  0  0  0  0  0  0  0  0  0  0  0
   -0.4514   -9.5293    1.8928 H   0  0  0  0  0  0  0  0  0  0  0  0
   -0.5370  -10.5237    4.0143 H   0  0  0  0  0  0  0  0  0  0  0  0
   -1.4981   -7.3914    2.9270 H   0  0  0  0  0  0  0  0  0  0  0  0
   -2.0305   -8.9102    3.6010 H   0  0  0  0  0  0  0  0  0  0  0  0
   -1.0897   -8.4748    5.6676 H   0  0  0  0  0  0  0  0  0  0  0  0
    0.3620   -6.1327    3.2255 H   0  0  0  0  0  0  0  0  0  0  0  0
    2.8735   -7.0465    2.9611 H   0  0  0  0  0  0  0  0  0  0  0  0
    2.8895   -9.3143    4.4075 H   0  0  0  0  0  0  0  0  0  0  0  0
    3.7457   -7.9004    4.7833 H   0  0  0  0  0  0  0  0  0  0  0  0
    1.3894   -9.2040    6.0685 H   0  0  0  0  0  0  0  0  0  0  0  0
    2.7376   -8.5306    6.8745 H   0  0  0  0  0  0  0  0  0  0  0  0
    0.4103   -7.3865    7.1898 H   0  0  0  0  0  0  0  0  0  0  0  0
    3.8800   -5.0476    7.2125 H   0  0  0  0  0  0  0  0  0  0  0  0
    3.7951   -6.1920    5.9281 H   0  0  0  0  0  0  0  0  0  0  0  0
    3.6095   -6.6949    7.5852 H   0  0  0  0  0  0  0  0  0  0  0  0
    0.3996   -5.2639    8.3972 H   0  0  0  0  0  0  0  0  0  0  0  0
    1.9849   -5.6824    8.9818 H   0  0  0  0  0  0  0  0  0  0  0  0
    1.1895   -3.0655    8.6656 H   0  0  0  0  0  0  0  0  0  0  0  0
    2.8671   -3.5283    8.5134 H   0  0  0  0  0  0  0  0  0  0  0  0
    1.1368   -2.4692    6.5077 H   0  0  0  0  0  0  0  0  0  0  0  0
    3.4040   -1.8134    6.6971 H   0  0  0  0  0  0  0  0  0  0  0  0
    4.0252   -3.2983    6.0657 H   0  0  0  0  0  0  0  0  0  0  0  0
    1.9288   -1.7593    4.5170 H   0  0  0  0  0  0  0  0  0  0  0  0
    3.5460   -1.1531    4.5254 H   0  0  0  0  0  0  0  0  0  0  0  0
    5.5939   -2.9747    3.8522 H   0  0  0  0  0  0  0  0  0  0  0  0
    6.9835   -1.8975    1.6762 H   0  0  0  0  0  0  0  0  0  0  0  0
    6.6459   -3.2516    0.5677 H   0  0  0  0  0  0  0  0  0  0  0  0
    6.2071   -0.4417   -0.0401 H   0  0  0  0  0  0  0  0  0  0  0  0
    5.8309   -1.8397   -1.0182 H   0  0  0  0  0  0  0  0  0  0  0  0
    4.3996    0.0719    2.0061 H   0  0  0  0  0  0  0  0  0  0  0  0
    2.8720    0.2964    1.1608 H   0  0  0  0  0  0  0  0  0  0  0  0
    4.3412    0.9250    0.4833 H   0  0  0  0  0  0  0  0  0  0  0  0
    2.4869   -1.0714   -0.7497 H   0  0  0  0  0  0  0  0  0  0  0  0
    2.6461   -3.7063   -0.4467 H   0  0  0  0  0  0  0  0  0  0  0  0
    3.6251   -4.6940    0.6399 H   0  0  0  0  0  0  0  0  0  0  0  0
    4.3907   -3.8112   -0.6650 H   0  0  0  0  0  0  0  0  0  0  0  0
    1.8087   -3.1021    1.8485 H   0  0  0  0  0  0  0  0  0  0  0  0
    2.3032   -1.5071    2.2689 H   0  0  0  0  0  0  0  0  0  0  0  0
    3.0445   -4.9830    2.7788 H   0  0  0  0  0  0  0  0  0  0  0  0
    3.8145   -4.9637    4.3052 H   0  0  0  0  0  0  0  0  0  0  0  0
    0.9462   -4.2228    3.7971 H   0  0  0  0  0  0  0  0  0  0  0  0
   -0.4938   -3.4026    5.3290 H   0  0  0  0  0  0  0  0  0  0  0  0
   -0.5809   -4.0014    6.9571 H   0  0  0  0  0  0  0  0  0  0  0  0
   -0.8996   -5.0581    5.6353 H   0  0  0  0  0  0  0  0  0  0  0  0
  2  1  1  6
  1 37  1  0
  1 38  1  0
  1 39  1  0
  2 11  1  0
  2  3  1  0
  2  5  1  0
  3  4  1  0
  3 40  1  0
  3 41  1  0
  4 42  1  0
  5  6  1  0
  5  7  1  0
  5 43  1  6
  6 44  1  0
  7  8  1  0
  7 45  1  0
  7 46  1  0
  8  9  2  0
  8 47  1  0
  9 14  1  0
  9 10  1  0
 10 34  1  0
 10 11  1  0
 10 48  1  6
 11 12  1  0
 11 49  1  6
 12 13  1  0
 12 50  1  0
 12 51  1  0
 13 14  1  0
 13 52  1  0
 13 53  1  0
 14 15  1  0
 14 54  1  1
 15 35  1  0
 15 16  1  1
 15 17  1  0
 16 55  1  0
 16 56  1  0
 16 57  1  0
 17 18  1  0
 17 58  1  0
 17 59  1  0
 18 19  1  0
 18 60  1  0
 18 61  1  0
 19 35  1  0
 19 20  1  0
 19 62  1  1
 20 21  1  0
 20 63  1  0
 20 64  1  0
 22 21  1  1
 21 65  1  0
 21 66  1  0
 22 32  1  0
 22 23  1  0
 22 33  1  0
 23 24  2  0
 23 67  1  0
 24 30  1  0
 24 25  1  0
 25 26  1  0
 25 68  1  0
 25 69  1  0
 26 27  1  0
 26 70  1  0
 26 71  1  0
 27 28  1  0
 27 29  1  6
 27 30  1  0
 28 72  1  0
 28 73  1  0
 28 74  1  0
 29 75  1  0
 30 31  1  6
 30 32  1  0
 31 76  1  0
 31 77  1  0
 31 78  1  0
 32 79  1  0
 32 80  1  0
 33 34  1  0
 33 81  1  0
 33 82  1  0
 34 35  1  0
 34 83  1  6
 35 36  1  6
 36 84  1  0
 36 85  1  0
 36 86  1  0
M  END
>  <i_m_ct_stereo_status>  (354) 
1

>  <s_m_source_file>  (354) 
/var/tmp/pbs.5076255.sched01/tmp0q3ly_rt/135fqi89qhj.sdf

>  <i_m_source_file_index>  (354) 
13

>  <i_lp_mmshare_version>  (354) 
48012

>  <i_f3d_flags>  (354) 
0

>  <s_epik_input>  (354) 
W0NIXT0xW0NIMl1bQ0BIXShbT0hdKVtDQEBdKFtDSDNdKShbQ0gyXVtPSF0pW0NASF0oW0NIMl1bQ0gyXTIpW0NASF0oW0NAQEhdM1tDSDJdNClDMVtDQEBIXTJbQ0BdKFtDSDNdKShbQ0gyXVtDSDJdNSlbQ0BAXTMoW0NIM10pW0NAQEhdNVtDSDJdW0NIMl1bQ0BAXTQ2W0NIXT1DN1tDQEBdKFtDSDNdKShbQ0gyXTYpW0NAXShbQ0gzXSkoW09IXSlbQ0gyXVtDSDJdNw==

>  <s_epik_cmdline>  (354) 
J2VwaWtfcHl0aG9uJywgJy1waHQnLCAnMi4wJywgJy1waCcsICc3LjAnLCAnLXRuJywgJzgnLCAnLW1hJywgJzIwMCcsICctaW1hZScsICc8aW5maWxlLm1hZT4nLCAnLW9tYWUnLCAnPG91dGZpbGUubWFlPic=

>  <r_lp_tautomer_probability>  (354) 
1

>  <r_epik_Ionization_Penalty>  (354) 
1.7293e-06

>  <r_epik_Ionization_Penalty_Charging>  (354) 
0

>  <r_epik_Ionization_Penalty_Neutral>  (354) 
1.7293e-06

>  <r_epik_State_Penalty>  (354) 
-0

>  <r_epik_Charging_Adjusted_Penalty>  (354) 
0

>  <i_epik_Tot_Q>  (354) 
0

>  <i_epik_Tot_abs_Q>  (354) 
0

>  <s_lp_Force_Field>  (354) 
OPLS3e

>  <r_lp_Energy>  (354) 
124.122

>  <b_lp_Chiralities_Consistent>  (354) 
1

>  <s_lp_Variant>  (354) 
95:0-1

>  <s_i_glide_gridfile>  (354) 
pfpi4k_grid

>  <i_i_glide_lignum>  (354) 
13

>  <i_i_glide_rotatable_bonds>  (354) 
4

>  <r_i_docking_score>  (354) 
-3.12872

>  <r_i_glide_ligand_efficiency>  (354) 
-0.0869089

>  <r_i_glide_ligand_efficiency_sa>  (354) 
-0.286967

>  <r_i_glide_ligand_efficiency_ln>  (354) 
-0.682602

>  <r_i_glide_gscore>  (354) 
-3.12872

>  <r_i_glide_lipo>  (354) 
-0.269369

>  <r_i_glide_hbond>  (354) 
-0.440839

>  <r_i_glide_metal>  (354) 
-0

>  <r_i_glide_rewards>  (354) 
-0.035807

>  <r_i_glide_evdw>  (354) 
-22.3214

>  <r_i_glide_ecoul>  (354) 
-8.99932

>  <r_i_glide_erotb>  (354) 
0.0832623

>  <r_i_glide_esite>  (354) 
0

>  <r_i_glide_emodel>  (354) 
-35.1203

>  <r_i_glide_energy>  (354) 
-31.3207

>  <r_i_glide_einternal>  (354) 
5.26787

>  <r_i_glide_intrahb_reward>  (354) 
-0

>  <i_i_glide_confnum>  (354) 
2

>  <i_i_glide_posenum>  (354) 
21

>  <r_i_glide_eff_state_penalty>  (354) 
0

>  <ligand_id>  (354) 
95

>  <original_smiles>  (354) 
CC1(CO)C(O)CC=C2C3C1CCC2C1(C)CCC2CCC4(C=C5CCC(C)(O)C5(C)C4)CC3C21C

>  <smiles>  (354) 
[H]OC([H])([H])C1(C([H])([H])[H])C([H])(O[H])C([H])([H])C([H])=C2C3([H])C1([H])C([H])([H])C([H])([H])C2([H])C1(C([H])([H])[H])C([H])([H])C([H])([H])C2([H])C([H])([H])C([H])([H])C4(C([H])=C5C([H])([H])C([H])([H])C(O[H])(C([H])([H])[H])C5(C([H])([H])[H])C4([H])[H])C([H])([H])C3([H])C21C([H])([H])[H]

$$$$
95:0:1
     RDKit          3D

 86 92  0  0  1  0  0  0  0  0999 V2000
    1.6906   -0.5191    6.1171 C   0  0  0  0  0  0  0  0  0  0  0  0
    1.3849   -0.8793    4.6325 C   0  0  1  0  0  0  0  0  0  0  0  0
    0.0428   -1.6918    4.6979 C   0  0  0  0  0  0  0  0  0  0  0  0
   -1.0300   -1.0159    5.3436 O   0  0  0  0  0  0  0  0  0  0  0  0
    1.1526    0.4491    3.8055 C   0  0  1  0  0  0  0  0  0  0  0  0
    2.1892    1.3887    4.0335 O   0  0  0  0  0  0  0  0  0  0  0  0
    0.9389    0.3442    2.2664 C   0  0  0  0  0  0  0  0  0  0  0  0
    2.2233   -0.0289    1.5635 C   0  0  0  0  0  0  0  0  0  0  0  0
    2.8526   -1.1988    1.7653 C   0  0  0  0  0  0  0  0  0  0  0  0
    2.2532   -2.3052    2.6096 C   0  0  2  0  0  0  0  0  0  0  0  0
    2.5411   -1.8270    4.0723 C   0  0  1  0  0  0  0  0  0  0  0  0
    4.0379   -1.3228    4.2406 C   0  0  0  0  0  0  0  0  0  0  0  0
    4.8073   -0.7725    2.9861 C   0  0  0  0  0  0  0  0  0  0  0  0
    4.3447   -1.3387    1.6080 C   0  0  1  0  0  0  0  0  0  0  0  0
    4.7999   -2.8048    1.2272 C   0  0  2  0  0  0  0  0  0  0  0  0
    5.7325   -3.3799    2.3244 C   0  0  0  0  0  0  0  0  0  0  0  0
    5.6591   -2.9550   -0.0401 C   0  0  0  0  0  0  0  0  0  0  0  0
    5.5470   -4.4621   -0.3938 C   0  0  0  0  0  0  0  0  0  0  0  0
    4.2386   -4.9952    0.2578 C   0  0  1  0  0  0  0  0  0  0  0  0
    4.3860   -6.2478    1.1476 C   0  0  0  0  0  0  0  0  0  0  0  0
    3.0195   -6.8281    1.5385 C   0  0  0  0  0  0  0  0  0  0  0  0
    2.4411   -6.3312    2.8845 C   0  0  2  0  0  0  0  0  0  0  0  0
    2.9483   -7.1700    4.0483 C   0  0  0  0  0  0  0  0  0  0  0  0
    1.9537   -7.6228    4.8106 C   0  0  0  0  0  0  0  0  0  0  0  0
    1.9197   -8.6360    5.9264 C   0  0  0  0  0  0  0  0  0  0  0  0
    0.5630   -9.3391    5.6971 C   0  0  0  0  0  0  0  0  0  0  0  0
   -0.0589   -8.7208    4.4073 C   0  0  1  0  0  0  0  0  0  0  0  0
    0.2242   -9.6441    3.2077 C   0  0  0  0  0  0  0  0  0  0  0  0
   -1.4653   -8.6536    4.5020 O   0  0  0  0  0  0  0  0  0  0  0  0
    0.5918   -7.2968    4.3249 C   0  0  1  0  0  0  0  0  0  0  0  0
   -0.0483   -6.2748    5.2959 C   0  0  0  0  0  0  0  0  0  0  0  0
    0.9004   -6.6385    2.9432 C   0  0  0  0  0  0  0  0  0  0  0  0
    2.7648   -4.8439    3.1944 C   0  0  0  0  0  0  0  0  0  0  0  0
    2.5825   -3.7736    2.0825 C   0  0  2  0  0  0  0  0  0  0  0  0
    3.5787   -3.7171    0.8622 C   0  0  1  0  0  0  0  0  0  0  0  0
    2.7441   -3.2279   -0.3869 C   0  0  0  0  0  0  0  0  0  0  0  0
    0.8705    0.0348    6.5811 H   0  0  0  0  0  0  0  0  0  0  0  0
    2.5611    0.1185    6.2406 H   0  0  0  0  0  0  0  0  0  0  0  0
    1.8505   -1.4129    6.7176 H   0  0  0  0  0  0  0  0  0  0  0  0
   -0.3434   -1.9603    3.7200 H   0  0  0  0  0  0  0  0  0  0  0  0
    0.1946   -2.6312    5.2296 H   0  0  0  0  0  0  0  0  0  0  0  0
   -1.2092   -0.2196    4.8669 H   0  0  0  0  0  0  0  0  0  0  0  0
    0.2583    0.9363    4.2049 H   0  0  0  0  0  0  0  0  0  0  0  0
    2.0054    2.1620    3.5235 H   0  0  0  0  0  0  0  0  0  0  0  0
    0.1493   -0.3568    2.0148 H   0  0  0  0  0  0  0  0  0  0  0  0
    0.6178    1.3046    1.8647 H   0  0  0  0  0  0  0  0  0  0  0  0
    2.7508    0.7775    1.0825 H   0  0  0  0  0  0  0  0  0  0  0  0
    1.1878   -2.2498    2.4173 H   0  0  0  0  0  0  0  0  0  0  0  0
    2.4874   -2.6871    4.7356 H   0  0  0  0  0  0  0  0  0  0  0  0
    4.1080   -0.5423    4.9950 H   0  0  0  0  0  0  0  0  0  0  0  0
    4.6142   -2.1271    4.6902 H   0  0  0  0  0  0  0  0  0  0  0  0
    4.6197    0.3008    2.9613 H   0  0  0  0  0  0  0  0  0  0  0  0
    5.8853   -0.8269    3.1253 H   0  0  0  0  0  0  0  0  0  0  0  0
    4.6703   -0.6554    0.8207 H   0  0  0  0  0  0  0  0  0  0  0  0
    6.1675   -4.3467    2.1024 H   0  0  0  0  0  0  0  0  0  0  0  0
    5.2730   -3.4811    3.2929 H   0  0  0  0  0  0  0  0  0  0  0  0
    6.5860   -2.7240    2.4354 H   0  0  0  0  0  0  0  0  0  0  0  0
    5.2820   -2.3340   -0.8522 H   0  0  0  0  0  0  0  0  0  0  0  0
    6.6978   -2.6538    0.1077 H   0  0  0  0  0  0  0  0  0  0  0  0
    5.5205   -4.5841   -1.4781 H   0  0  0  0  0  0  0  0  0  0  0  0
    6.4140   -5.0118   -0.0301 H   0  0  0  0  0  0  0  0  0  0  0  0
    3.6489   -5.3620   -0.5843 H   0  0  0  0  0  0  0  0  0  0  0  0
    4.9088   -6.9983    0.5550 H   0  0  0  0  0  0  0  0  0  0  0  0
    4.9982   -6.0952    2.0297 H   0  0  0  0  0  0  0  0  0  0  0  0
    2.3093   -6.6136    0.7364 H   0  0  0  0  0  0  0  0  0  0  0  0
    3.0860   -7.9186    1.5599 H   0  0  0  0  0  0  0  0  0  0  0  0
    3.9945   -7.4085    4.1834 H   0  0  0  0  0  0  0  0  0  0  0  0
    2.7713   -9.3138    5.9084 H   0  0  0  0  0  0  0  0  0  0  0  0
    1.9099   -8.1088    6.8842 H   0  0  0  0  0  0  0  0  0  0  0  0
    0.6708  -10.4220    5.6274 H   0  0  0  0  0  0  0  0  0  0  0  0
   -0.0857   -9.1568    6.5548 H   0  0  0  0  0  0  0  0  0  0  0  0
    1.2877   -9.7233    2.9871 H   0  0  0  0  0  0  0  0  0  0  0  0
   -0.2864   -9.3067    2.3055 H   0  0  0  0  0  0  0  0  0  0  0  0
   -0.1417  -10.6515    3.4057 H   0  0  0  0  0  0  0  0  0  0  0  0
   -1.7934   -9.5479    4.6869 H   0  0  0  0  0  0  0  0  0  0  0  0
   -1.0065   -5.9299    4.9129 H   0  0  0  0  0  0  0  0  0  0  0  0
    0.5842   -5.3986    5.4342 H   0  0  0  0  0  0  0  0  0  0  0  0
   -0.2134   -6.6994    6.2823 H   0  0  0  0  0  0  0  0  0  0  0  0
    0.3004   -5.7489    2.7834 H   0  0  0  0  0  0  0  0  0  0  0  0
    0.6298   -7.3158    2.1395 H   0  0  0  0  0  0  0  0  0  0  0  0
    2.0687   -4.5819    3.9886 H   0  0  0  0  0  0  0  0  0  0  0  0
    3.7376   -4.7757    3.6576 H   0  0  0  0  0  0  0  0  0  0  0  0
    1.6576   -4.1196    1.6440 H   0  0  0  0  0  0  0  0  0  0  0  0
    1.9505   -3.9369   -0.6252 H   0  0  0  0  0  0  0  0  0  0  0  0
    3.3267   -3.1385   -1.2971 H   0  0  0  0  0  0  0  0  0  0  0  0
    2.2462   -2.2795   -0.2665 H   0  0  0  0  0  0  0  0  0  0  0  0
  2  1  1  1
  1 37  1  0
  1 38  1  0
  1 39  1  0
  2 11  1  0
  2  3  1  0
  2  5  1  0
  3  4  1  0
  3 40  1  0
  3 41  1  0
  4 42  1  0
  5  6  1  0
  5  7  1  0
  5 43  1  1
  6 44  1  0
  7  8  1  0
  7 45  1  0
  7 46  1  0
  8  9  2  0
  8 47  1  0
  9 14  1  0
  9 10  1  0
 10 34  1  0
 10 11  1  0
 10 48  1  1
 11 12  1  0
 11 49  1  1
 12 13  1  0
 12 50  1  0
 12 51  1  0
 13 14  1  0
 13 52  1  0
 13 53  1  0
 14 15  1  0
 14 54  1  6
 15 35  1  0
 15 16  1  1
 15 17  1  0
 16 55  1  0
 16 56  1  0
 16 57  1  0
 17 18  1  0
 17 58  1  0
 17 59  1  0
 18 19  1  0
 18 60  1  0
 18 61  1  0
 19 35  1  0
 19 20  1  0
 19 62  1  6
 20 21  1  0
 20 63  1  0
 20 64  1  0
 22 21  1  6
 21 65  1  0
 21 66  1  0
 22 32  1  0
 22 23  1  0
 22 33  1  0
 23 24  2  0
 23 67  1  0
 24 30  1  0
 24 25  1  0
 25 26  1  0
 25 68  1  0
 25 69  1  0
 26 27  1  0
 26 70  1  0
 26 71  1  0
 27 28  1  0
 27 29  1  1
 27 30  1  0
 28 72  1  0
 28 73  1  0
 28 74  1  0
 29 75  1  0
 30 31  1  1
 30 32  1  0
 31 76  1  0
 31 77  1  0
 31 78  1  0
 32 79  1  0
 32 80  1  0
 33 34  1  0
 33 81  1  0
 33 82  1  0
 34 35  1  0
 34 83  1  6
 35 36  1  6
 36 84  1  0
 36 85  1  0
 36 86  1  0
M  END
>  <i_m_ct_stereo_status>  (355) 
1

>  <s_m_source_file>  (355) 
/var/tmp/pbs.5076255.sched01/tmp0q3ly_rt/135fqi89qhj.sdf

>  <i_m_source_file_index>  (355) 
13

>  <i_lp_mmshare_version>  (355) 
48012

>  <i_f3d_flags>  (355) 
0

>  <s_epik_input>  (355) 
W0NIXT0xW0NIMl1bQ0BIXShbT0hdKVtDQEBdKFtDSDNdKShbQ0gyXVtPSF0pW0NASF0oW0NIMl1bQ0gyXTIpW0NASF0oW0NAQEhdM1tDSDJdNClDMVtDQEBIXTJbQ0BdKFtDSDNdKShbQ0gyXVtDSDJdNSlbQ0BAXTMoW0NIM10pW0NAQEhdNVtDSDJdW0NIMl1bQ0BAXTQ2W0NIXT1DN1tDQEBdKFtDSDNdKShbQ0gyXTYpW0NAXShbQ0gzXSkoW09IXSlbQ0gyXVtDSDJdNw==

>  <s_epik_cmdline>  (355) 
J2VwaWtfcHl0aG9uJywgJy1waHQnLCAnMi4wJywgJy1waCcsICc3LjAnLCAnLXRuJywgJzgnLCAnLW1hJywgJzIwMCcsICctaW1hZScsICc8aW5maWxlLm1hZT4nLCAnLW9tYWUnLCAnPG91dGZpbGUubWFlPic=

>  <r_lp_tautomer_probability>  (355) 
1

>  <r_epik_Ionization_Penalty>  (355) 
1.7293e-06

>  <r_epik_Ionization_Penalty_Charging>  (355) 
0

>  <r_epik_Ionization_Penalty_Neutral>  (355) 
1.7293e-06

>  <r_epik_State_Penalty>  (355) 
-0

>  <r_epik_Charging_Adjusted_Penalty>  (355) 
0

>  <i_epik_Tot_Q>  (355) 
0

>  <i_epik_Tot_abs_Q>  (355) 
0

>  <s_lp_Force_Field>  (355) 
OPLS3e

>  <r_lp_Energy>  (355) 
124.122

>  <b_lp_Chiralities_Consistent>  (355) 
1

>  <s_lp_Variant>  (355) 
95:0-1

>  <s_i_glide_gridfile>  (355) 
pfpi4k_grid

>  <i_i_glide_lignum>  (355) 
13

>  <i_i_glide_rotatable_bonds>  (355) 
4

>  <r_i_docking_score>  (355) 
-2.93289

>  <r_i_glide_ligand_efficiency>  (355) 
-0.0814693

>  <r_i_glide_ligand_efficiency_sa>  (355) 
-0.269006

>  <r_i_glide_ligand_efficiency_ln>  (355) 
-0.639878

>  <r_i_glide_gscore>  (355) 
-2.93289

>  <r_i_glide_lipo>  (355) 
-0.378612

>  <r_i_glide_hbond>  (355) 
-0.16

>  <r_i_glide_metal>  (355) 
-0

>  <r_i_glide_rewards>  (355) 
-0.035807

>  <r_i_glide_evdw>  (355) 
-22.9767

>  <r_i_glide_ecoul>  (355) 
-8.61934

>  <r_i_glide_erotb>  (355) 
0.0832623

>  <r_i_glide_esite>  (355) 
0

>  <r_i_glide_emodel>  (355) 
-37.5349

>  <r_i_glide_energy>  (355) 
-31.5961

>  <r_i_glide_einternal>  (355) 
0.41895

>  <r_i_glide_intrahb_reward>  (355) 
-0

>  <i_i_glide_confnum>  (355) 
4

>  <i_i_glide_posenum>  (355) 
1

>  <r_i_glide_eff_state_penalty>  (355) 
0

>  <ligand_id>  (355) 
95

>  <original_smiles>  (355) 
CC1(CO)C(O)CC=C2C3C1CCC2C1(C)CCC2CCC4(C=C5CCC(C)(O)C5(C)C4)CC3C21C

>  <smiles>  (355) 
[H]OC([H])([H])C1(C([H])([H])[H])C([H])(O[H])C([H])([H])C([H])=C2C3([H])C1([H])C([H])([H])C([H])([H])C2([H])C1(C([H])([H])[H])C([H])([H])C([H])([H])C2([H])C([H])([H])C([H])([H])C4(C([H])=C5C([H])([H])C([H])([H])C(O[H])(C([H])([H])[H])C5(C([H])([H])[H])C4([H])[H])C([H])([H])C3([H])C21C([H])([H])[H]

$$$$
95:0:2
     RDKit          3D

 86 92  0  0  1  0  0  0  0  0999 V2000
    1.7377   -0.5327    6.1485 C   0  0  0  0  0  0  0  0  0  0  0  0
    1.4261   -0.8890    4.6654 C   0  0  1  0  0  0  0  0  0  0  0  0
    0.0800   -1.6979    4.7372 C   0  0  0  0  0  0  0  0  0  0  0  0
   -0.9878   -1.0173    5.3802 O   0  0  0  0  0  0  0  0  0  0  0  0
    1.1873    0.4452    3.8486 C   0  0  1  0  0  0  0  0  0  0  0  0
    2.2281    1.3790    4.0703 O   0  0  0  0  0  0  0  0  0  0  0  0
    0.9638    0.3387    2.3110 C   0  0  0  0  0  0  0  0  0  0  0  0
    2.2409   -0.0386    1.5918 C   0  0  0  0  0  0  0  0  0  0  0  0
    2.8687   -1.2075    1.7939 C   0  0  0  0  0  0  0  0  0  0  0  0
    2.2737   -2.3114    2.6325 C   0  0  2  0  0  0  0  0  0  0  0  0
    2.5761   -1.8396    4.0933 C   0  0  1  0  0  0  0  0  0  0  0  0
    4.0733   -1.3388    4.2565 C   0  0  0  0  0  0  0  0  0  0  0  0
    4.8362   -0.7877    2.9945 C   0  0  0  0  0  0  0  0  0  0  0  0
    4.3587   -1.3515    1.6205 C   0  0  1  0  0  0  0  0  0  0  0  0
    4.8073   -2.8182    1.2332 C   0  0  2  0  0  0  0  0  0  0  0  0
    5.7476   -3.3917    2.3243 C   0  0  0  0  0  0  0  0  0  0  0  0
    5.6579   -2.9660   -0.0383 C   0  0  0  0  0  0  0  0  0  0  0  0
    5.5392   -4.4697   -0.3938 C   0  0  0  0  0  0  0  0  0  0  0  0
    4.2365   -5.0042    0.2634 C   0  0  1  0  0  0  0  0  0  0  0  0
    4.3866   -6.2572    1.1506 C   0  0  0  0  0  0  0  0  0  0  0  0
    3.0210   -6.8373    1.5493 C   0  0  0  0  0  0  0  0  0  0  0  0
    2.4546   -6.3434    2.9002 C   0  0  2  0  0  0  0  0  0  0  0  0
    2.9647   -7.1802    4.0579 C   0  0  0  0  0  0  0  0  0  0  0  0
    1.9774   -7.6325    4.8281 C   0  0  0  0  0  0  0  0  0  0  0  0
    1.9474   -8.6434    5.9391 C   0  0  0  0  0  0  0  0  0  0  0  0
    0.5871   -9.3463    5.7192 C   0  0  0  0  0  0  0  0  0  0  0  0
   -0.0437   -8.7222    4.4350 C   0  0  1  0  0  0  0  0  0  0  0  0
    0.2287   -9.6469    3.2322 C   0  0  0  0  0  0  0  0  0  0  0  0
   -1.4474   -8.6537    4.5427 O   0  0  0  0  0  0  0  0  0  0  0  0
    0.6135   -7.3033    4.3507 C   0  0  1  0  0  0  0  0  0  0  0  0
   -0.0249   -6.2811    5.3250 C   0  0  0  0  0  0  0  0  0  0  0  0
    0.9122   -6.6445    2.9696 C   0  0  0  0  0  0  0  0  0  0  0  0
    2.7829   -4.8518    3.2084 C   0  0  0  0  0  0  0  0  0  0  0  0
    2.5947   -3.7767    2.0988 C   0  0  2  0  0  0  0  0  0  0  0  0
    3.5872   -3.7292    0.8757 C   0  0  1  0  0  0  0  0  0  0  0  0
    2.7395   -3.2362   -0.3643 C   0  0  0  0  0  0  0  0  0  0  0  0
    0.9227    0.0187    6.6167 H   0  0  0  0  0  0  0  0  0  0  0  0
    2.6108    0.1026    6.2701 H   0  0  0  0  0  0  0  0  0  0  0  0
    1.9018   -1.4296    6.7456 H   0  0  0  0  0  0  0  0  0  0  0  0
   -0.3127   -1.9675    3.7613 H   0  0  0  0  0  0  0  0  0  0  0  0
    0.2299   -2.6375    5.2712 H   0  0  0  0  0  0  0  0  0  0  0  0
   -1.1708   -0.2256    4.8948 H   0  0  0  0  0  0  0  0  0  0  0  0
    0.2979    0.9279    4.2564 H   0  0  0  0  0  0  0  0  0  0  0  0
    2.9827    1.0991    3.5752 H   0  0  0  0  0  0  0  0  0  0  0  0
    0.1686   -0.3587    2.0575 H   0  0  0  0  0  0  0  0  0  0  0  0
    0.6440    1.3032    1.9146 H   0  0  0  0  0  0  0  0  0  0  0  0
    2.7587    0.7722    1.1049 H   0  0  0  0  0  0  0  0  0  0  0  0
    1.2115   -2.2514    2.4495 H   0  0  0  0  0  0  0  0  0  0  0  0
    2.5219   -2.6981    4.7575 H   0  0  0  0  0  0  0  0  0  0  0  0
    4.1498   -0.5597    5.0093 H   0  0  0  0  0  0  0  0  0  0  0  0
    4.6496   -2.1501    4.7013 H   0  0  0  0  0  0  0  0  0  0  0  0
    4.6585    0.2883    2.9735 H   0  0  0  0  0  0  0  0  0  0  0  0
    5.9169   -0.8475    3.1316 H   0  0  0  0  0  0  0  0  0  0  0  0
    4.6810   -0.6680    0.8338 H   0  0  0  0  0  0  0  0  0  0  0  0
    6.1763   -4.3583    2.0942 H   0  0  0  0  0  0  0  0  0  0  0  0
    5.2884   -3.5005    3.2906 H   0  0  0  0  0  0  0  0  0  0  0  0
    6.6103   -2.7390    2.4211 H   0  0  0  0  0  0  0  0  0  0  0  0
    5.2790   -2.3439   -0.8485 H   0  0  0  0  0  0  0  0  0  0  0  0
    6.6968   -2.6713    0.1050 H   0  0  0  0  0  0  0  0  0  0  0  0
    5.5061   -4.5889   -1.4780 H   0  0  0  0  0  0  0  0  0  0  0  0
    6.4080   -5.0234   -0.0381 H   0  0  0  0  0  0  0  0  0  0  0  0
    3.6397   -5.3646   -0.5750 H   0  0  0  0  0  0  0  0  0  0  0  0
    4.9038   -7.0060    0.5523 H   0  0  0  0  0  0  0  0  0  0  0  0
    5.0067   -6.1073    2.0274 H   0  0  0  0  0  0  0  0  0  0  0  0
    2.3087   -6.6189    0.7530 H   0  0  0  0  0  0  0  0  0  0  0  0
    3.0883   -7.9255    1.5671 H   0  0  0  0  0  0  0  0  0  0  0  0
    4.0043   -7.4268    4.1903 H   0  0  0  0  0  0  0  0  0  0  0  0
    2.7949   -9.3270    5.9183 H   0  0  0  0  0  0  0  0  0  0  0  0
    1.9410   -8.1224    6.8961 H   0  0  0  0  0  0  0  0  0  0  0  0
    0.6892  -10.4337    5.6479 H   0  0  0  0  0  0  0  0  0  0  0  0
   -0.0562   -9.1637    6.5820 H   0  0  0  0  0  0  0  0  0  0  0  0
    1.2913   -9.7292    3.0036 H   0  0  0  0  0  0  0  0  0  0  0  0
   -0.2881   -9.3055    2.3354 H   0  0  0  0  0  0  0  0  0  0  0  0
   -0.1409  -10.6529    3.4328 H   0  0  0  0  0  0  0  0  0  0  0  0
   -1.7559   -9.5577    4.7141 H   0  0  0  0  0  0  0  0  0  0  0  0
   -0.9879   -5.9329    4.9529 H   0  0  0  0  0  0  0  0  0  0  0  0
    0.6187   -5.4083    5.4631 H   0  0  0  0  0  0  0  0  0  0  0  0
   -0.1834   -6.7103    6.3163 H   0  0  0  0  0  0  0  0  0  0  0  0
    0.3130   -5.7482    2.8104 H   0  0  0  0  0  0  0  0  0  0  0  0
    0.6370   -7.3189    2.1646 H   0  0  0  0  0  0  0  0  0  0  0  0
    2.0948   -4.5957    4.0057 H   0  0  0  0  0  0  0  0  0  0  0  0
    3.7628   -4.7919    3.6688 H   0  0  0  0  0  0  0  0  0  0  0  0
    1.6612   -4.1228    1.6694 H   0  0  0  0  0  0  0  0  0  0  0  0
    1.9465   -3.9502   -0.6055 H   0  0  0  0  0  0  0  0  0  0  0  0
    3.3228   -3.1400   -1.2834 H   0  0  0  0  0  0  0  0  0  0  0  0
    2.2388   -2.2881   -0.2322 H   0  0  0  0  0  0  0  0  0  0  0  0
  2  1  1  1
  1 37  1  0
  1 38  1  0
  1 39  1  0
  2 11  1  0
  2  3  1  0
  2  5  1  0
  3  4  1  0
  3 40  1  0
  3 41  1  0
  4 42  1  0
  5  6  1  0
  5  7  1  0
  5 43  1  1
  6 44  1  0
  7  8  1  0
  7 45  1  0
  7 46  1  0
  8  9  2  0
  8 47  1  0
  9 14  1  0
  9 10  1  0
 10 34  1  0
 10 11  1  0
 10 48  1  1
 11 12  1  0
 11 49  1  1
 12 13  1  0
 12 50  1  0
 12 51  1  0
 13 14  1  0
 13 52  1  0
 13 53  1  0
 14 15  1  0
 14 54  1  6
 15 35  1  0
 15 16  1  1
 15 17  1  0
 16 55  1  0
 16 56  1  0
 16 57  1  0
 17 18  1  0
 17 58  1  0
 17 59  1  0
 18 19  1  0
 18 60  1  0
 18 61  1  0
 19 35  1  0
 19 20  1  0
 19 62  1  6
 20 21  1  0
 20 63  1  0
 20 64  1  0
 22 21  1  6
 21 65  1  0
 21 66  1  0
 22 32  1  0
 22 23  1  0
 22 33  1  0
 23 24  2  0
 23 67  1  0
 24 30  1  0
 24 25  1  0
 25 26  1  0
 25 68  1  0
 25 69  1  0
 26 27  1  0
 26 70  1  0
 26 71  1  0
 27 28  1  0
 27 29  1  1
 27 30  1  0
 28 72  1  0
 28 73  1  0
 28 74  1  0
 29 75  1  0
 30 31  1  1
 30 32  1  0
 31 76  1  0
 31 77  1  0
 31 78  1  0
 32 79  1  0
 32 80  1  0
 33 34  1  0
 33 81  1  0
 33 82  1  0
 34 35  1  0
 34 83  1  6
 35 36  1  6
 36 84  1  0
 36 85  1  0
 36 86  1  0
M  END
>  <i_m_ct_stereo_status>  (356) 
1

>  <s_m_source_file>  (356) 
/var/tmp/pbs.5076255.sched01/tmp0q3ly_rt/135fqi89qhj.sdf

>  <i_m_source_file_index>  (356) 
13

>  <i_lp_mmshare_version>  (356) 
48012

>  <i_f3d_flags>  (356) 
0

>  <s_epik_input>  (356) 
W0NIXT0xW0NIMl1bQ0BIXShbT0hdKVtDQEBdKFtDSDNdKShbQ0gyXVtPSF0pW0NASF0oW0NIMl1bQ0gyXTIpW0NASF0oW0NAQEhdM1tDSDJdNClDMVtDQEBIXTJbQ0BdKFtDSDNdKShbQ0gyXVtDSDJdNSlbQ0BAXTMoW0NIM10pW0NAQEhdNVtDSDJdW0NIMl1bQ0BAXTQ2W0NIXT1DN1tDQEBdKFtDSDNdKShbQ0gyXTYpW0NAXShbQ0gzXSkoW09IXSlbQ0gyXVtDSDJdNw==

>  <s_epik_cmdline>  (356) 
J2VwaWtfcHl0aG9uJywgJy1waHQnLCAnMi4wJywgJy1waCcsICc3LjAnLCAnLXRuJywgJzgnLCAnLW1hJywgJzIwMCcsICctaW1hZScsICc8aW5maWxlLm1hZT4nLCAnLW9tYWUnLCAnPG91dGZpbGUubWFlPic=

>  <r_lp_tautomer_probability>  (356) 
1

>  <r_epik_Ionization_Penalty>  (356) 
1.7293e-06

>  <r_epik_Ionization_Penalty_Charging>  (356) 
0

>  <r_epik_Ionization_Penalty_Neutral>  (356) 
1.7293e-06

>  <r_epik_State_Penalty>  (356) 
-0

>  <r_epik_Charging_Adjusted_Penalty>  (356) 
0

>  <i_epik_Tot_Q>  (356) 
0

>  <i_epik_Tot_abs_Q>  (356) 
0

>  <s_lp_Force_Field>  (356) 
OPLS3e

>  <r_lp_Energy>  (356) 
124.122

>  <b_lp_Chiralities_Consistent>  (356) 
1

>  <s_lp_Variant>  (356) 
95:0-1

>  <s_i_glide_gridfile>  (356) 
pfpi4k_grid

>  <i_i_glide_lignum>  (356) 
13

>  <i_i_glide_rotatable_bonds>  (356) 
4

>  <r_i_docking_score>  (356) 
-2.89193

>  <r_i_glide_ligand_efficiency>  (356) 
-0.0803314

>  <r_i_glide_ligand_efficiency_sa>  (356) 
-0.265249

>  <r_i_glide_ligand_efficiency_ln>  (356) 
-0.630941

>  <r_i_glide_gscore>  (356) 
-2.89193

>  <r_i_glide_lipo>  (356) 
-0.38246

>  <r_i_glide_hbond>  (356) 
-0.16

>  <r_i_glide_metal>  (356) 
-0

>  <r_i_glide_rewards>  (356) 
-0.035807

>  <r_i_glide_evdw>  (356) 
-23.109

>  <r_i_glide_ecoul>  (356) 
-8.2765

>  <r_i_glide_erotb>  (356) 
0.0832623

>  <r_i_glide_esite>  (356) 
0

>  <r_i_glide_emodel>  (356) 
-37.3528

>  <r_i_glide_energy>  (356) 
-31.3855

>  <r_i_glide_einternal>  (356) 
0.144077

>  <r_i_glide_intrahb_reward>  (356) 
-0

>  <i_i_glide_confnum>  (356) 
1

>  <i_i_glide_posenum>  (356) 
7

>  <r_i_glide_eff_state_penalty>  (356) 
0

>  <ligand_id>  (356) 
95

>  <original_smiles>  (356) 
CC1(CO)C(O)CC=C2C3C1CCC2C1(C)CCC2CCC4(C=C5CCC(C)(O)C5(C)C4)CC3C21C

>  <smiles>  (356) 
[H]OC([H])([H])C1(C([H])([H])[H])C([H])(O[H])C([H])([H])C([H])=C2C3([H])C1([H])C([H])([H])C([H])([H])C2([H])C1(C([H])([H])[H])C([H])([H])C([H])([H])C2([H])C([H])([H])C([H])([H])C4(C([H])=C5C([H])([H])C([H])([H])C(O[H])(C([H])([H])[H])C5(C([H])([H])[H])C4([H])[H])C([H])([H])C3([H])C21C([H])([H])[H]

$$$$
96:0:0
     RDKit          3D

 53 58  0  0  1  0  0  0  0  0999 V2000
    7.8267   -3.2933   -1.0477 C   0  0  0  0  0  0  0  0  0  0  0  0
    6.9276   -3.8321   -0.1984 C   0  0  0  0  0  0  0  0  0  0  0  0
    7.5181   -4.3705    1.2010 C   0  0  0  0  0  0  0  0  0  0  0  0
    6.3063   -4.6882    2.1022 C   0  0  2  0  0  0  0  0  0  0  0  0
    5.7133   -3.2568    2.2257 C   0  0  0  0  0  0  0  0  0  0  0  0
    4.6474   -2.9711    1.4696 C   0  0  0  0  0  0  0  0  0  0  0  0
    4.2077   -4.1272    0.6019 C   0  0  1  0  0  0  0  0  0  0  0  0
    2.8868   -4.0352    0.0995 O   0  0  0  0  0  0  0  0  0  0  0  0
    2.5782   -2.9451   -0.7434 C   0  0  0  0  0  0  0  0  0  0  0  0
    3.4346   -2.9421   -2.0108 C   0  0  1  0  0  0  0  0  0  0  0  0
    2.9370   -1.8922   -3.0250 C   0  0  0  0  0  0  0  0  0  0  0  0
    3.4699   -2.1073   -4.3230 O   0  0  0  0  0  0  0  0  0  0  0  0
    4.9272   -2.8475   -1.6461 C   0  0  1  0  0  0  0  0  0  0  0  0
    5.2342   -1.5375   -1.1760 O   0  0  0  0  0  0  0  0  0  0  0  0
    5.3507   -3.9576   -0.6075 C   0  0  1  0  0  0  0  0  0  0  0  0
    4.2132   -5.4295    1.6392 C   0  0  1  0  0  0  0  0  0  0  0  0
    3.7507   -4.9858    3.1167 C   0  0  1  0  0  0  0  0  0  0  0  0
    2.6935   -5.7506    3.6680 O   0  0  0  0  0  0  0  0  0  0  0  0
    1.5512   -5.8853    2.9441 C   0  0  0  0  0  0  0  0  0  0  0  0
    0.4744   -6.6499    3.6876 C   0  0  0  0  0  0  0  0  0  0  0  0
    1.3295   -5.4696    1.8145 O   0  0  0  0  0  0  0  0  0  0  0  0
    4.8718   -4.9578    4.0234 O   0  0  0  0  0  0  0  0  0  0  0  0
    6.1233   -5.4281    3.5279 C   0  0  1  0  0  0  0  0  0  0  0  0
    6.0877   -6.8667    3.5292 O   0  0  0  0  0  0  0  0  0  0  0  0
    4.9756   -7.5896    2.9914 C   0  0  0  0  0  0  0  0  0  0  0  0
    4.6763   -8.6814    3.4716 O   0  0  0  0  0  0  0  0  0  0  0  0
    4.3142   -7.0025    1.7171 C   0  0  2  0  0  0  0  0  0  0  0  0
    5.2490   -6.9909    0.5946 C   0  0  0  0  0  0  0  0  0  0  0  0
    5.6200   -5.5938    1.1755 C   0  0  1  0  0  0  0  0  0  0  0  0
    7.5523   -2.9469   -2.0316 H   0  0  0  0  0  0  0  0  0  0  0  0
    8.8729   -3.2222   -0.7828 H   0  0  0  0  0  0  0  0  0  0  0  0
    8.1788   -5.2182    1.0286 H   0  0  0  0  0  0  0  0  0  0  0  0
    8.1410   -3.5900    1.6367 H   0  0  0  0  0  0  0  0  0  0  0  0
    6.1610   -2.5440    2.8992 H   0  0  0  0  0  0  0  0  0  0  0  0
    4.1359   -2.0167    1.4639 H   0  0  0  0  0  0  0  0  0  0  0  0
    1.5312   -3.0633   -1.0274 H   0  0  0  0  0  0  0  0  0  0  0  0
    2.6543   -1.9992   -0.2048 H   0  0  0  0  0  0  0  0  0  0  0  0
    3.2712   -3.8950   -2.5006 H   0  0  0  0  0  0  0  0  0  0  0  0
    1.8595   -1.9978   -3.1253 H   0  0  0  0  0  0  0  0  0  0  0  0
    3.1276   -0.8700   -2.6949 H   0  0  0  0  0  0  0  0  0  0  0  0
    2.8023   -1.8494   -4.9388 H   0  0  0  0  0  0  0  0  0  0  0  0
    5.4811   -2.9975   -2.5700 H   0  0  0  0  0  0  0  0  0  0  0  0
    4.6397   -1.3331   -0.4786 H   0  0  0  0  0  0  0  0  0  0  0  0
    5.2958   -4.8710   -1.2048 H   0  0  0  0  0  0  0  0  0  0  0  0
    3.3251   -3.9829    3.1437 H   0  0  0  0  0  0  0  0  0  0  0  0
    0.8241   -7.6504    3.9416 H   0  0  0  0  0  0  0  0  0  0  0  0
   -0.3999   -6.7440    3.0471 H   0  0  0  0  0  0  0  0  0  0  0  0
    0.1906   -6.1173    4.5952 H   0  0  0  0  0  0  0  0  0  0  0  0
    6.8870   -5.1236    4.2403 H   0  0  0  0  0  0  0  0  0  0  0  0
    3.3789   -7.5003    1.4370 H   0  0  0  0  0  0  0  0  0  0  0  0
    5.9053   -7.8693    0.5876 H   0  0  0  0  0  0  0  0  0  0  0  0
    4.7017   -6.9079   -0.3425 H   0  0  0  0  0  0  0  0  0  0  0  0
    6.4381   -6.2889    1.3831 H   0  0  0  0  0  0  0  0  0  0  0  0
  1  2  2  0
  1 30  1  0
  1 31  1  0
  2 15  1  0
  2  3  1  0
  4  3  1  6
  3 32  1  0
  3 33  1  0
  4 23  1  0
  4 29  1  0
  4  5  1  0
  5  6  2  0
  5 34  1  0
  6  7  1  0
  6 35  1  0
  7 15  1  0
  7  8  1  6
 16  7  1  6
  8  9  1  0
  9 10  1  0
  9 36  1  0
  9 37  1  0
 10 11  1  0
 10 13  1  0
 10 38  1  6
 11 12  1  0
 11 39  1  0
 11 40  1  0
 12 41  1  0
 13 14  1  0
 13 15  1  0
 13 42  1  6
 14 43  1  0
 15 44  1  6
 16 27  1  0
 16 29  1  0
 16 17  1  0
 17 18  1  0
 17 22  1  0
 17 45  1  6
 18 19  1  0
 19 20  1  0
 19 21  2  0
 20 46  1  0
 20 47  1  0
 20 48  1  0
 22 23  1  0
 23 24  1  0
 23 49  1  1
 24 25  1  0
 25 26  2  0
 25 27  1  0
 27 28  1  0
 27 50  1  6
 28 29  1  0
 28 51  1  0
 28 52  1  0
 29 53  1  6
M  END
>  <i_m_ct_stereo_status>  (357) 
1

>  <s_m_source_file>  (357) 
/var/tmp/pbs.5076255.sched01/tmp0q3ly_rt/135fqi89qhj.sdf

>  <i_m_source_file_index>  (357) 
14

>  <i_lp_mmshare_version>  (357) 
48012

>  <i_f3d_flags>  (357) 
0

>  <s_epik_input>  (357) 
TzFbQ0gyXVtDQEBIXShbQ0gyXVtPSF0pW0NAQEhdKFtPSF0pW0NAQEhdKEMoPVtDSDJdKVtDSDJdMilbQ0BdMShbQ0hdPVtDSF0zKVtDQF00KFtDQEhdKEMoTzUpPU8pW0NIMl1bQ0hdNDYpW0NASF0oT1tDQEBIXTVbQ0BdMjM2KU9DKD1PKVtDSDNd

>  <s_epik_cmdline>  (357) 
J2VwaWtfcHl0aG9uJywgJy1waHQnLCAnMi4wJywgJy1waCcsICc3LjAnLCAnLXRuJywgJzgnLCAnLW1hJywgJzIwMCcsICctaW1hZScsICc8aW5maWxlLm1hZT4nLCAnLW9tYWUnLCAnPG91dGZpbGUubWFlPic=

>  <r_lp_tautomer_probability>  (357) 
1

>  <r_epik_Ionization_Penalty>  (357) 
1.80304e-07

>  <r_epik_Ionization_Penalty_Charging>  (357) 
0

>  <r_epik_Ionization_Penalty_Neutral>  (357) 
1.80304e-07

>  <r_epik_State_Penalty>  (357) 
-0

>  <r_epik_Charging_Adjusted_Penalty>  (357) 
0

>  <i_epik_Tot_Q>  (357) 
0

>  <i_epik_Tot_abs_Q>  (357) 
0

>  <s_epik_Chemistry_Notes>  (357) 
This compound has an ester and may undergo hydrolysis at high or low pH. This compound contains an acetal/aminal-like group ( X-CH(R)-Y where X, Y are N, S, or O) that may be acid/base labile, releasing an aldehyde.

>  <s_lp_Force_Field>  (357) 
OPLS3e

>  <r_lp_Energy>  (357) 
297.886

>  <b_lp_Chiralities_Consistent>  (357) 
1

>  <s_lp_Variant>  (357) 
96:0-1

>  <s_i_glide_gridfile>  (357) 
pfpi4k_grid

>  <i_i_glide_lignum>  (357) 
14

>  <i_i_glide_rotatable_bonds>  (357) 
5

>  <r_i_docking_score>  (357) 
-3.90673

>  <r_i_glide_ligand_efficiency>  (357) 
-0.134715

>  <r_i_glide_ligand_efficiency_sa>  (357) 
-0.413887

>  <r_i_glide_ligand_efficiency_ln>  (357) 
-0.894543

>  <r_i_glide_gscore>  (357) 
-3.90673

>  <r_i_glide_lipo>  (357) 
-0.671129

>  <r_i_glide_hbond>  (357) 
-0.696192

>  <r_i_glide_metal>  (357) 
-0

>  <r_i_glide_rewards>  (357) 
-0.660013

>  <r_i_glide_evdw>  (357) 
-19.7941

>  <r_i_glide_ecoul>  (357) 
-7.37088

>  <r_i_glide_erotb>  (357) 
0.240209

>  <r_i_glide_esite>  (357) 
-0.0242716

>  <r_i_glide_emodel>  (357) 
-33.9685

>  <r_i_glide_energy>  (357) 
-27.165

>  <r_i_glide_einternal>  (357) 
3.71412

>  <r_i_glide_intrahb_reward>  (357) 
-0

>  <i_i_glide_confnum>  (357) 
2

>  <i_i_glide_posenum>  (357) 
21

>  <r_i_glide_eff_state_penalty>  (357) 
0

>  <ligand_id>  (357) 
96

>  <original_smiles>  (357) 
C=C1CC23C=CC4(OCC(CO)C(O)C14)C14C(OC(C)=O)OC2OC(=O)C1CC34

>  <smiles>  (357) 
[H]OC([H])([H])C1([H])C([H])([H])OC23C([H])=C([H])C4(C5([H])OC(=O)C6([H])C([H])([H])C4([H])C62C([H])(OC(=O)C([H])([H])[H])O5)C([H])([H])C(=C([H])[H])C3([H])C1([H])O[H]

$$$$
96:0:1
     RDKit          3D

 53 58  0  0  1  0  0  0  0  0999 V2000
    3.9507   -6.8036    5.1961 C   0  0  0  0  0  0  0  0  0  0  0  0
    3.7923   -6.0875    4.0705 C   0  0  0  0  0  0  0  0  0  0  0  0
    5.0751   -5.2274    3.6108 C   0  0  0  0  0  0  0  0  0  0  0  0
    4.7755   -4.7089    2.1933 C   0  0  2  0  0  0  0  0  0  0  0  0
    4.7005   -6.0685    1.4452 C   0  0  0  0  0  0  0  0  0  0  0  0
    3.4799   -6.5398    1.1682 C   0  0  0  0  0  0  0  0  0  0  0  0
    2.3598   -5.6361    1.6362 C   0  0  1  0  0  0  0  0  0  0  0  0
    1.0917   -5.8567    1.0131 O   0  0  0  0  0  0  0  0  0  0  0  0
    0.4801   -7.1226    1.2225 C   0  0  0  0  0  0  0  0  0  0  0  0
    0.2142   -7.4117    2.7102 C   0  0  1  0  0  0  0  0  0  0  0  0
   -0.6361   -8.7050    2.9031 C   0  0  0  0  0  0  0  0  0  0  0  0
   -1.3764   -8.6509    4.1090 O   0  0  0  0  0  0  0  0  0  0  0  0
    1.5507   -7.4081    3.4837 C   0  0  1  0  0  0  0  0  0  0  0  0
    2.3170   -8.5478    3.1212 O   0  0  0  0  0  0  0  0  0  0  0  0
    2.3731   -6.0807    3.2529 C   0  0  1  0  0  0  0  0  0  0  0  0
    2.8420   -4.1125    1.1356 C   0  0  1  0  0  0  0  0  0  0  0  0
    3.6387   -4.1799   -0.2663 C   0  0  1  0  0  0  0  0  0  0  0  0
    3.0571   -3.3071   -1.2206 O   0  0  0  0  0  0  0  0  0  0  0  0
    3.7580   -3.0625   -2.3779 C   0  0  0  0  0  0  0  0  0  0  0  0
    2.9801   -2.2090   -3.3640 C   0  0  0  0  0  0  0  0  0  0  0  0
    4.8862   -3.4648   -2.6817 O   0  0  0  0  0  0  0  0  0  0  0  0
    5.0522   -3.9957   -0.0710 O   0  0  0  0  0  0  0  0  0  0  0  0
    5.4978   -3.6461    1.2222 C   0  0  1  0  0  0  0  0  0  0  0  0
    5.2129   -2.2469    1.4231 O   0  0  0  0  0  0  0  0  0  0  0  0
    3.9240   -1.6787    1.1338 C   0  0  0  0  0  0  0  0  0  0  0  0
    3.8491   -0.5036    0.7857 O   0  0  0  0  0  0  0  0  0  0  0  0
    2.6851   -2.5724    1.4419 C   0  0  2  0  0  0  0  0  0  0  0  0
    2.5926   -2.8606    2.8858 C   0  0  0  0  0  0  0  0  0  0  0  0
    3.4945   -4.0616    2.4751 C   0  0  1  0  0  0  0  0  0  0  0  0
    3.1621   -7.4011    5.6229 H   0  0  0  0  0  0  0  0  0  0  0  0
    4.8937   -6.7990    5.7257 H   0  0  0  0  0  0  0  0  0  0  0  0
    5.2916   -4.4430    4.3373 H   0  0  0  0  0  0  0  0  0  0  0  0
    5.9524   -5.8810    3.6012 H   0  0  0  0  0  0  0  0  0  0  0  0
    5.6091   -6.5870    1.1788 H   0  0  0  0  0  0  0  0  0  0  0  0
    3.2846   -7.4825    0.6792 H   0  0  0  0  0  0  0  0  0  0  0  0
   -0.4734   -7.1080    0.6929 H   0  0  0  0  0  0  0  0  0  0  0  0
    1.0733   -7.9195    0.7760 H   0  0  0  0  0  0  0  0  0  0  0  0
   -0.3791   -6.5798    3.0902 H   0  0  0  0  0  0  0  0  0  0  0  0
   -1.3405   -8.8225    2.0792 H   0  0  0  0  0  0  0  0  0  0  0  0
   -0.0247   -9.6070    2.8951 H   0  0  0  0  0  0  0  0  0  0  0  0
   -1.6772   -9.5374    4.3478 H   0  0  0  0  0  0  0  0  0  0  0  0
    1.3068   -7.5058    4.5405 H   0  0  0  0  0  0  0  0  0  0  0  0
    1.8540   -9.3183    3.3887 H   0  0  0  0  0  0  0  0  0  0  0  0
    1.7765   -5.3428    3.7903 H   0  0  0  0  0  0  0  0  0  0  0  0
    3.5169   -5.1461   -0.7439 H   0  0  0  0  0  0  0  0  0  0  0  0
    2.0527   -2.7126   -3.6386 H   0  0  0  0  0  0  0  0  0  0  0  0
    3.5682   -2.0623   -4.2687 H   0  0  0  0  0  0  0  0  0  0  0  0
    2.7538   -1.2333   -2.9328 H   0  0  0  0  0  0  0  0  0  0  0  0
    6.5809   -3.7670    1.2312 H   0  0  0  0  0  0  0  0  0  0  0  0
    1.7457   -2.1691    1.0499 H   0  0  0  0  0  0  0  0  0  0  0  0
    2.9078   -2.0383    3.5476 H   0  0  0  0  0  0  0  0  0  0  0  0
    1.5819   -3.1777    3.1360 H   0  0  0  0  0  0  0  0  0  0  0  0
    4.0913   -3.3372    3.0327 H   0  0  0  0  0  0  0  0  0  0  0  0
  1  2  2  0
  1 30  1  0
  1 31  1  0
  2 15  1  0
  2  3  1  0
  4  3  1  1
  3 32  1  0
  3 33  1  0
  4 23  1  0
  4 29  1  0
  4  5  1  0
  5  6  2  0
  5 34  1  0
  6  7  1  0
  6 35  1  0
  7 15  1  0
  7  8  1  6
 16  7  1  1
  8  9  1  0
  9 10  1  0
  9 36  1  0
  9 37  1  0
 10 11  1  0
 10 13  1  0
 10 38  1  1
 11 12  1  0
 11 39  1  0
 11 40  1  0
 12 41  1  0
 13 14  1  0
 13 15  1  0
 13 42  1  1
 14 43  1  0
 15 44  1  1
 16 27  1  0
 16 29  1  0
 16 17  1  0
 17 18  1  0
 17 22  1  0
 17 45  1  6
 18 19  1  0
 19 20  1  0
 19 21  2  0
 20 46  1  0
 20 47  1  0
 20 48  1  0
 22 23  1  0
 23 24  1  0
 23 49  1  6
 24 25  1  0
 25 26  2  0
 25 27  1  0
 27 28  1  0
 27 50  1  6
 28 29  1  0
 28 51  1  0
 28 52  1  0
 29 53  1  1
M  END
>  <i_m_ct_stereo_status>  (358) 
1

>  <s_m_source_file>  (358) 
/var/tmp/pbs.5076255.sched01/tmp0q3ly_rt/135fqi89qhj.sdf

>  <i_m_source_file_index>  (358) 
14

>  <i_lp_mmshare_version>  (358) 
48012

>  <i_f3d_flags>  (358) 
0

>  <s_epik_input>  (358) 
TzFbQ0gyXVtDQEBIXShbQ0gyXVtPSF0pW0NAQEhdKFtPSF0pW0NAQEhdKEMoPVtDSDJdKVtDSDJdMilbQ0BdMShbQ0hdPVtDSF0zKVtDQF00KFtDQEhdKEMoTzUpPU8pW0NIMl1bQ0hdNDYpW0NASF0oT1tDQEBIXTVbQ0BdMjM2KU9DKD1PKVtDSDNd

>  <s_epik_cmdline>  (358) 
J2VwaWtfcHl0aG9uJywgJy1waHQnLCAnMi4wJywgJy1waCcsICc3LjAnLCAnLXRuJywgJzgnLCAnLW1hJywgJzIwMCcsICctaW1hZScsICc8aW5maWxlLm1hZT4nLCAnLW9tYWUnLCAnPG91dGZpbGUubWFlPic=

>  <r_lp_tautomer_probability>  (358) 
1

>  <r_epik_Ionization_Penalty>  (358) 
1.80304e-07

>  <r_epik_Ionization_Penalty_Charging>  (358) 
0

>  <r_epik_Ionization_Penalty_Neutral>  (358) 
1.80304e-07

>  <r_epik_State_Penalty>  (358) 
-0

>  <r_epik_Charging_Adjusted_Penalty>  (358) 
0

>  <i_epik_Tot_Q>  (358) 
0

>  <i_epik_Tot_abs_Q>  (358) 
0

>  <s_epik_Chemistry_Notes>  (358) 
This compound has an ester and may undergo hydrolysis at high or low pH. This compound contains an acetal/aminal-like group ( X-CH(R)-Y where X, Y are N, S, or O) that may be acid/base labile, releasing an aldehyde.

>  <s_lp_Force_Field>  (358) 
OPLS3e

>  <r_lp_Energy>  (358) 
297.886

>  <b_lp_Chiralities_Consistent>  (358) 
1

>  <s_lp_Variant>  (358) 
96:0-1

>  <s_i_glide_gridfile>  (358) 
pfpi4k_grid

>  <i_i_glide_lignum>  (358) 
14

>  <i_i_glide_rotatable_bonds>  (358) 
5

>  <r_i_docking_score>  (358) 
-3.66683

>  <r_i_glide_ligand_efficiency>  (358) 
-0.126442

>  <r_i_glide_ligand_efficiency_sa>  (358) 
-0.388471

>  <r_i_glide_ligand_efficiency_ln>  (358) 
-0.839611

>  <r_i_glide_gscore>  (358) 
-3.66683

>  <r_i_glide_lipo>  (358) 
-0.280615

>  <r_i_glide_hbond>  (358) 
-0.32

>  <r_i_glide_metal>  (358) 
-0

>  <r_i_glide_rewards>  (358) 
-0.728287

>  <r_i_glide_evdw>  (358) 
-26.3993

>  <r_i_glide_ecoul>  (358) 
-8.00031

>  <r_i_glide_erotb>  (358) 
0.240209

>  <r_i_glide_esite>  (358) 
-0.0581243

>  <r_i_glide_emodel>  (358) 
-40.6916

>  <r_i_glide_energy>  (358) 
-34.3996

>  <r_i_glide_einternal>  (358) 
2.89983

>  <r_i_glide_intrahb_reward>  (358) 
-0

>  <i_i_glide_confnum>  (358) 
2

>  <i_i_glide_posenum>  (358) 
18

>  <r_i_glide_eff_state_penalty>  (358) 
0

>  <ligand_id>  (358) 
96

>  <original_smiles>  (358) 
C=C1CC23C=CC4(OCC(CO)C(O)C14)C14C(OC(C)=O)OC2OC(=O)C1CC34

>  <smiles>  (358) 
[H]OC([H])([H])C1([H])C([H])([H])OC23C([H])=C([H])C4(C5([H])OC(=O)C6([H])C([H])([H])C4([H])C62C([H])(OC(=O)C([H])([H])[H])O5)C([H])([H])C(=C([H])[H])C3([H])C1([H])O[H]

$$$$
96:0:2
     RDKit          3D

 53 58  0  0  1  0  0  0  0  0999 V2000
    7.1782   -6.9273    2.4454 C   0  0  0  0  0  0  0  0  0  0  0  0
    5.8877   -7.2248    2.6982 C   0  0  0  0  0  0  0  0  0  0  0  0
    5.6251   -8.1374    3.9952 C   0  0  0  0  0  0  0  0  0  0  0  0
    4.1013   -8.1471    4.2532 C   0  0  2  0  0  0  0  0  0  0  0  0
    3.9089   -6.6297    4.5609 C   0  0  0  0  0  0  0  0  0  0  0  0
    3.4123   -5.8612    3.5798 C   0  0  0  0  0  0  0  0  0  0  0  0
    3.1306   -6.6286    2.2987 C   0  0  1  0  0  0  0  0  0  0  0  0
    2.2395   -5.9818    1.3943 O   0  0  0  0  0  0  0  0  0  0  0  0
    2.6393   -4.7327    0.8551 C   0  0  0  0  0  0  0  0  0  0  0  0
    3.9427   -4.8637    0.0610 C   0  0  1  0  0  0  0  0  0  0  0  0
    4.2555   -3.5564   -0.7054 C   0  0  0  0  0  0  0  0  0  0  0  0
    5.2775   -3.7705   -1.6570 O   0  0  0  0  0  0  0  0  0  0  0  0
    5.0747   -5.3631    0.9804 C   0  0  1  0  0  0  0  0  0  0  0  0
    5.4340   -4.3401    1.8953 O   0  0  0  0  0  0  0  0  0  0  0  0
    4.6954   -6.6953    1.7121 C   0  0  1  0  0  0  0  0  0  0  0  0
    2.3075   -7.9820    2.8246 C   0  0  1  0  0  0  0  0  0  0  0  0
    1.3785   -7.6513    4.0958 C   0  0  1  0  0  0  0  0  0  0  0  0
    0.0487   -8.0892    3.9424 O   0  0  0  0  0  0  0  0  0  0  0  0
   -0.6861   -7.5271    2.9567 C   0  0  0  0  0  0  0  0  0  0  0  0
   -2.1025   -8.0653    2.9126 C   0  0  0  0  0  0  0  0  0  0  0  0
   -0.3332   -6.6541    2.1618 O   0  0  0  0  0  0  0  0  0  0  0  0
    1.9407   -8.1640    5.3138 O   0  0  0  0  0  0  0  0  0  0  0  0
    3.1065   -8.9772    5.2020 C   0  0  1  0  0  0  0  0  0  0  0  0
    2.6898  -10.2873    4.7611 O   0  0  0  0  0  0  0  0  0  0  0  0
    1.8022  -10.4725    3.6533 C   0  0  0  0  0  0  0  0  0  0  0  0
    1.0331  -11.4267    3.6318 O   0  0  0  0  0  0  0  0  0  0  0  0
    1.9727   -9.4835    2.4549 C   0  0  2  0  0  0  0  0  0  0  0  0
    3.2966   -9.6265    1.8379 C   0  0  0  0  0  0  0  0  0  0  0  0
    3.6831   -8.5715    2.9017 C   0  0  1  0  0  0  0  0  0  0  0  0
    7.4824   -6.3415    1.5939 H   0  0  0  0  0  0  0  0  0  0  0  0
    7.9650   -7.2805    3.0956 H   0  0  0  0  0  0  0  0  0  0  0  0
    6.0483   -9.1344    3.8481 H   0  0  0  0  0  0  0  0  0  0  0  0
    6.1549   -7.7108    4.8472 H   0  0  0  0  0  0  0  0  0  0  0  0
    4.1743   -6.2521    5.5356 H   0  0  0  0  0  0  0  0  0  0  0  0
    3.2447   -4.7979    3.6583 H   0  0  0  0  0  0  0  0  0  0  0  0
    1.8451   -4.4123    0.1842 H   0  0  0  0  0  0  0  0  0  0  0  0
    2.7179   -3.9732    1.6338 H   0  0  0  0  0  0  0  0  0  0  0  0
    3.7910   -5.6348   -0.6924 H   0  0  0  0  0  0  0  0  0  0  0  0
    3.3687   -3.2057   -1.2353 H   0  0  0  0  0  0  0  0  0  0  0  0
    4.5478   -2.7469   -0.0342 H   0  0  0  0  0  0  0  0  0  0  0  0
    4.9861   -4.4452   -2.2551 H   0  0  0  0  0  0  0  0  0  0  0  0
    5.9399   -5.5426    0.3416 H   0  0  0  0  0  0  0  0  0  0  0  0
    5.7145   -3.5890    1.3946 H   0  0  0  0  0  0  0  0  0  0  0  0
    4.6846   -7.4238    0.9013 H   0  0  0  0  0  0  0  0  0  0  0  0
    1.2637   -6.5788    4.2605 H   0  0  0  0  0  0  0  0  0  0  0  0
   -2.0919   -9.1400    2.7336 H   0  0  0  0  0  0  0  0  0  0  0  0
   -2.6493   -7.5817    2.1066 H   0  0  0  0  0  0  0  0  0  0  0  0
   -2.6003   -7.8616    3.8580 H   0  0  0  0  0  0  0  0  0  0  0  0
    3.5165   -9.0866    6.2042 H   0  0  0  0  0  0  0  0  0  0  0  0
    1.1713   -9.5606    1.7187 H   0  0  0  0  0  0  0  0  0  0  0  0
    3.6875  -10.6561    1.8177 H   0  0  0  0  0  0  0  0  0  0  0  0
    3.2840   -9.2238    0.8293 H   0  0  0  0  0  0  0  0  0  0  0  0
    4.1108   -9.5313    3.1981 H   0  0  0  0  0  0  0  0  0  0  0  0
  1  2  2  0
  1 30  1  0
  1 31  1  0
  2 15  1  0
  2  3  1  0
  4  3  1  1
  3 32  1  0
  3 33  1  0
  4 23  1  0
  4 29  1  0
  4  5  1  0
  5  6  2  0
  5 34  1  0
  6  7  1  0
  6 35  1  0
  7 15  1  0
  7  8  1  6
 16  7  1  6
  8  9  1  0
  9 10  1  0
  9 36  1  0
  9 37  1  0
 10 11  1  0
 10 13  1  0
 10 38  1  6
 11 12  1  0
 11 39  1  0
 11 40  1  0
 12 41  1  0
 13 14  1  0
 13 15  1  0
 13 42  1  6
 14 43  1  0
 15 44  1  6
 16 27  1  0
 16 29  1  0
 16 17  1  0
 17 18  1  0
 17 22  1  0
 17 45  1  1
 18 19  1  0
 19 20  1  0
 19 21  2  0
 20 46  1  0
 20 47  1  0
 20 48  1  0
 22 23  1  0
 23 24  1  0
 23 49  1  1
 24 25  1  0
 25 26  2  0
 25 27  1  0
 27 28  1  0
 27 50  1  6
 28 29  1  0
 28 51  1  0
 28 52  1  0
 29 53  1  6
M  END
>  <i_m_ct_stereo_status>  (359) 
1

>  <s_m_source_file>  (359) 
/var/tmp/pbs.5076255.sched01/tmp0q3ly_rt/135fqi89qhj.sdf

>  <i_m_source_file_index>  (359) 
14

>  <i_lp_mmshare_version>  (359) 
48012

>  <i_f3d_flags>  (359) 
0

>  <s_epik_input>  (359) 
TzFbQ0gyXVtDQEBIXShbQ0gyXVtPSF0pW0NAQEhdKFtPSF0pW0NAQEhdKEMoPVtDSDJdKVtDSDJdMilbQ0BdMShbQ0hdPVtDSF0zKVtDQF00KFtDQEhdKEMoTzUpPU8pW0NIMl1bQ0hdNDYpW0NASF0oT1tDQEBIXTVbQ0BdMjM2KU9DKD1PKVtDSDNd

>  <s_epik_cmdline>  (359) 
J2VwaWtfcHl0aG9uJywgJy1waHQnLCAnMi4wJywgJy1waCcsICc3LjAnLCAnLXRuJywgJzgnLCAnLW1hJywgJzIwMCcsICctaW1hZScsICc8aW5maWxlLm1hZT4nLCAnLW9tYWUnLCAnPG91dGZpbGUubWFlPic=

>  <r_lp_tautomer_probability>  (359) 
1

>  <r_epik_Ionization_Penalty>  (359) 
1.80304e-07

>  <r_epik_Ionization_Penalty_Charging>  (359) 
0

>  <r_epik_Ionization_Penalty_Neutral>  (359) 
1.80304e-07

>  <r_epik_State_Penalty>  (359) 
-0

>  <r_epik_Charging_Adjusted_Penalty>  (359) 
0

>  <i_epik_Tot_Q>  (359) 
0

>  <i_epik_Tot_abs_Q>  (359) 
0

>  <s_epik_Chemistry_Notes>  (359) 
This compound has an ester and may undergo hydrolysis at high or low pH. This compound contains an acetal/aminal-like group ( X-CH(R)-Y where X, Y are N, S, or O) that may be acid/base labile, releasing an aldehyde.

>  <s_lp_Force_Field>  (359) 
OPLS3e

>  <r_lp_Energy>  (359) 
297.886

>  <b_lp_Chiralities_Consistent>  (359) 
1

>  <s_lp_Variant>  (359) 
96:0-1

>  <s_i_glide_gridfile>  (359) 
pfpi4k_grid

>  <i_i_glide_lignum>  (359) 
14

>  <i_i_glide_rotatable_bonds>  (359) 
5

>  <r_i_docking_score>  (359) 
-2.85147

>  <r_i_glide_ligand_efficiency>  (359) 
-0.0983266

>  <r_i_glide_ligand_efficiency_sa>  (359) 
-0.30209

>  <r_i_glide_ligand_efficiency_ln>  (359) 
-0.652914

>  <r_i_glide_gscore>  (359) 
-2.85147

>  <r_i_glide_lipo>  (359) 
-0.233333

>  <r_i_glide_hbond>  (359) 
-0.16

>  <r_i_glide_metal>  (359) 
-0

>  <r_i_glide_rewards>  (359) 
-0.708374

>  <r_i_glide_evdw>  (359) 
-24.4754

>  <r_i_glide_ecoul>  (359) 
-4.52078

>  <r_i_glide_erotb>  (359) 
0.240209

>  <r_i_glide_esite>  (359) 
-0.0880873

>  <r_i_glide_emodel>  (359) 
-34.6082

>  <r_i_glide_energy>  (359) 
-28.9961

>  <r_i_glide_einternal>  (359) 
2.16548

>  <r_i_glide_intrahb_reward>  (359) 
-0

>  <i_i_glide_confnum>  (359) 
6

>  <i_i_glide_posenum>  (359) 
2

>  <r_i_glide_eff_state_penalty>  (359) 
0

>  <ligand_id>  (359) 
96

>  <original_smiles>  (359) 
C=C1CC23C=CC4(OCC(CO)C(O)C14)C14C(OC(C)=O)OC2OC(=O)C1CC34

>  <smiles>  (359) 
[H]OC([H])([H])C1([H])C([H])([H])OC23C([H])=C([H])C4(C5([H])OC(=O)C6([H])C([H])([H])C4([H])C62C([H])(OC(=O)C([H])([H])[H])O5)C([H])([H])C(=C([H])[H])C3([H])C1([H])O[H]

$$$$
99:0:0
     RDKit          3D

 57 60  0  0  1  0  0  0  0  0999 V2000
    1.9635   -0.9672    4.2073 C   0  0  0  0  0  0  0  0  0  0  0  0
    2.3686   -1.8163    2.9910 C   0  0  2  0  0  0  0  0  0  0  0  0
    2.9101   -3.2126    3.3991 C   0  0  1  0  0  0  0  0  0  0  0  0
    1.8694   -4.0665    3.8314 O   0  0  0  0  0  0  0  0  0  0  0  0
    3.7601   -3.7140    2.1820 C   0  0  1  0  0  0  0  0  0  0  0  0
    4.8660   -4.7460    2.5645 C   0  0  0  0  0  0  0  0  0  0  0  0
    5.9705   -4.8786    1.4927 C   0  0  0  0  0  0  0  0  0  0  0  0
    6.6339   -3.5194    1.1285 C   0  0  1  0  0  0  0  0  0  0  0  0
    7.8721   -3.6966    0.2177 C   0  0  0  0  0  0  0  0  0  0  0  0
    5.5801   -2.4213    0.6829 C   0  0  1  0  0  0  0  0  0  0  0  0
    6.3117   -1.0730    0.4992 C   0  0  0  0  0  0  0  0  0  0  0  0
    5.0416   -2.9341   -0.6638 C   0  0  1  0  0  0  0  0  0  0  0  0
    3.5413   -2.8999   -0.7789 C   0  0  2  0  0  0  0  0  0  0  0  0
    3.0192   -4.2419   -0.4049 C   0  0  0  0  0  0  0  0  0  0  0  0
    2.7330   -4.3321    1.1051 C   0  0  1  0  0  0  0  0  0  0  0  0
    2.3271   -5.8092    1.3498 C   0  0  0  0  0  0  0  0  0  0  0  0
    4.3723   -2.3664   -1.9028 C   0  0  0  0  0  0  0  0  0  0  0  0
    4.4240   -0.8791   -2.1853 C   0  0  0  0  0  0  0  0  0  0  0  0
    4.4245   -3.1472   -3.2046 C   0  0  0  0  0  0  0  0  0  0  0  0
    4.5053   -2.3450    1.8652 C   0  0  2  0  0  0  0  0  0  0  0  0
    5.3315   -2.0444    2.9988 O   0  0  0  0  0  0  0  0  0  0  0  0
    3.4922   -1.1693    2.1419 C   0  0  1  0  0  0  0  0  0  0  0  0
    2.9934   -0.3984    1.0716 O   0  0  0  0  0  0  0  0  0  0  0  0
    2.8096   -0.8144    4.8799 H   0  0  0  0  0  0  0  0  0  0  0  0
    1.1680   -1.4458    4.7817 H   0  0  0  0  0  0  0  0  0  0  0  0
    1.6040    0.0137    3.8943 H   0  0  0  0  0  0  0  0  0  0  0  0
    1.4835   -1.9515    2.3684 H   0  0  0  0  0  0  0  0  0  0  0  0
    3.5509   -3.1012    4.2748 H   0  0  0  0  0  0  0  0  0  0  0  0
    2.2674   -4.8553    4.1695 H   0  0  0  0  0  0  0  0  0  0  0  0
    5.3457   -4.4547    3.4979 H   0  0  0  0  0  0  0  0  0  0  0  0
    4.4524   -5.7253    2.7910 H   0  0  0  0  0  0  0  0  0  0  0  0
    6.7383   -5.5533    1.8701 H   0  0  0  0  0  0  0  0  0  0  0  0
    5.5715   -5.3735    0.6129 H   0  0  0  0  0  0  0  0  0  0  0  0
    7.0936   -3.1941    2.0490 H   0  0  0  0  0  0  0  0  0  0  0  0
    7.6347   -4.0651   -0.7716 H   0  0  0  0  0  0  0  0  0  0  0  0
    8.5670   -4.4093    0.6590 H   0  0  0  0  0  0  0  0  0  0  0  0
    8.4257   -2.7662    0.0950 H   0  0  0  0  0  0  0  0  0  0  0  0
    5.6344   -0.2207    0.4590 H   0  0  0  0  0  0  0  0  0  0  0  0
    6.8820   -1.0852   -0.4236 H   0  0  0  0  0  0  0  0  0  0  0  0
    7.0216   -0.8843    1.3041 H   0  0  0  0  0  0  0  0  0  0  0  0
    5.5255   -3.8599   -0.9657 H   0  0  0  0  0  0  0  0  0  0  0  0
    2.8903   -2.1180   -0.4308 H   0  0  0  0  0  0  0  0  0  0  0  0
    2.1010   -4.4053   -0.9707 H   0  0  0  0  0  0  0  0  0  0  0  0
    3.7066   -5.0324   -0.7112 H   0  0  0  0  0  0  0  0  0  0  0  0
    1.8165   -3.7585    1.2104 H   0  0  0  0  0  0  0  0  0  0  0  0
    3.1318   -6.4939    1.0791 H   0  0  0  0  0  0  0  0  0  0  0  0
    1.4705   -6.0858    0.7341 H   0  0  0  0  0  0  0  0  0  0  0  0
    2.0573   -6.0331    2.3781 H   0  0  0  0  0  0  0  0  0  0  0  0
    3.6532   -0.5885   -2.9007 H   0  0  0  0  0  0  0  0  0  0  0  0
    5.4010   -0.6064   -2.5802 H   0  0  0  0  0  0  0  0  0  0  0  0
    4.2543   -0.3076   -1.2743 H   0  0  0  0  0  0  0  0  0  0  0  0
    3.5916   -2.8705   -3.8522 H   0  0  0  0  0  0  0  0  0  0  0  0
    4.3612   -4.2181   -3.0091 H   0  0  0  0  0  0  0  0  0  0  0  0
    5.3633   -2.9555   -3.7217 H   0  0  0  0  0  0  0  0  0  0  0  0
    5.7311   -1.2034    2.8434 H   0  0  0  0  0  0  0  0  0  0  0  0
    3.9424   -0.3718    2.7375 H   0  0  0  0  0  0  0  0  0  0  0  0
    2.3451   -0.8864    0.5759 H   0  0  0  0  0  0  0  0  0  0  0  0
  1  2  1  0
  1 24  1  0
  1 25  1  0
  1 26  1  0
  2 22  1  0
  2  3  1  0
  2 27  1  6
  3  4  1  0
  3  5  1  0
  3 28  1  1
  4 29  1  0
  5 15  1  0
  5 20  1  0
  5  6  1  1
  6  7  1  0
  6 30  1  0
  6 31  1  0
  7  8  1  0
  7 32  1  0
  7 33  1  0
  8  9  1  0
  8 10  1  0
  8 34  1  1
  9 35  1  0
  9 36  1  0
  9 37  1  0
 10 11  1  6
 10 12  1  0
 10 20  1  0
 11 38  1  0
 11 39  1  0
 11 40  1  0
 12 17  1  0
 12 13  1  0
 12 41  1  6
 13 14  1  0
 13 17  1  0
 13 42  1  1
 14 15  1  0
 14 43  1  0
 14 44  1  0
 15 16  1  0
 15 45  1  6
 16 46  1  0
 16 47  1  0
 16 48  1  0
 17 18  1  0
 17 19  1  0
 18 49  1  0
 18 50  1  0
 18 51  1  0
 19 52  1  0
 19 53  1  0
 19 54  1  0
 20 21  1  1
 20 22  1  0
 21 55  1  0
 22 23  1  0
 22 56  1  1
 23 57  1  0
M  END
>  <i_m_ct_stereo_status>  (360) 
1

>  <s_m_source_file>  (360) 
/var/tmp/pbs.5076255.sched01/tmp0q3ly_rt/135fqi89qhj.sdf

>  <i_m_source_file_index>  (360) 
17

>  <i_lp_mmshare_version>  (360) 
48012

>  <i_f3d_flags>  (360) 
0

>  <s_epik_input>  (360) 
W09IXVtDQEBIXTFbQ0BASF0oW0NIM10pW0NASF0oW09IXSlbQ0BdKFtDQF0xMjMpKFtPSF0pW0NAQF0oW0NIM10pKFtDQEhdKFtDSDNdKVtDSDJdW0NIMl0yKVtDQEhdNFtDQEBIXShDNChbQ0gzXSlbQ0gzXSlbQ0gyXVtDQEhdM1tDSDNd

>  <s_epik_cmdline>  (360) 
J2VwaWtfcHl0aG9uJywgJy1waHQnLCAnMi4wJywgJy1waCcsICc3LjAnLCAnLXRuJywgJzgnLCAnLW1hJywgJzIwMCcsICctaW1hZScsICc8aW5maWxlLm1hZT4nLCAnLW9tYWUnLCAnPG91dGZpbGUubWFlPic=

>  <r_lp_tautomer_probability>  (360) 
1

>  <r_epik_Ionization_Penalty>  (360) 
2.58648e-06

>  <r_epik_Ionization_Penalty_Charging>  (360) 
0

>  <r_epik_Ionization_Penalty_Neutral>  (360) 
2.58648e-06

>  <r_epik_State_Penalty>  (360) 
-0

>  <r_epik_Charging_Adjusted_Penalty>  (360) 
0

>  <i_epik_Tot_Q>  (360) 
0

>  <i_epik_Tot_abs_Q>  (360) 
0

>  <s_lp_Force_Field>  (360) 
OPLS3e

>  <r_lp_Energy>  (360) 
108.733

>  <b_lp_Chiralities_Consistent>  (360) 
1

>  <s_lp_Variant>  (360) 
99:0-1

>  <s_i_glide_gridfile>  (360) 
pfpi4k_grid

>  <i_i_glide_lignum>  (360) 
17

>  <i_i_glide_rotatable_bonds>  (360) 
3

>  <r_i_docking_score>  (360) 
-3.32047

>  <r_i_glide_ligand_efficiency>  (360) 
-0.144368

>  <r_i_glide_ligand_efficiency_sa>  (360) 
-0.410564

>  <r_i_glide_ligand_efficiency_ln>  (360) 
-0.80292

>  <r_i_glide_gscore>  (360) 
-3.32047

>  <r_i_glide_lipo>  (360) 
-0.634564

>  <r_i_glide_hbond>  (360) 
0

>  <r_i_glide_metal>  (360) 
-0

>  <r_i_glide_rewards>  (360) 
-1.21035

>  <r_i_glide_evdw>  (360) 
-24.6757

>  <r_i_glide_ecoul>  (360) 
-1.61181

>  <r_i_glide_erotb>  (360) 
0

>  <r_i_glide_esite>  (360) 
0

>  <r_i_glide_emodel>  (360) 
-31.3155

>  <r_i_glide_energy>  (360) 
-26.2875

>  <r_i_glide_einternal>  (360) 
0.484582

>  <r_i_glide_intrahb_reward>  (360) 
-0

>  <i_i_glide_confnum>  (360) 
1

>  <i_i_glide_posenum>  (360) 
8

>  <r_i_glide_eff_state_penalty>  (360) 
0

>  <ligand_id>  (360) 
99

>  <original_smiles>  (360) 
CC1C(O)C23CCC(C)C(C)(C4C(CC2C)C4(C)C)C3(O)C1O

>  <smiles>  (360) 
[H]OC1([H])C([H])(C([H])([H])[H])C([H])(O[H])C23C([H])([H])C([H])([H])C([H])(C([H])([H])[H])C(C([H])([H])[H])(C4([H])C([H])(C([H])([H])C2([H])C([H])([H])[H])C4(C([H])([H])[H])C([H])([H])[H])C13O[H]

$$$$
99:0:1
     RDKit          3D

 57 60  0  0  1  0  0  0  0  0999 V2000
    1.9891   -0.9530    4.2460 C   0  0  0  0  0  0  0  0  0  0  0  0
    2.3867   -1.8076    3.0312 C   0  0  2  0  0  0  0  0  0  0  0  0
    2.9269   -3.2043    3.4356 C   0  0  1  0  0  0  0  0  0  0  0  0
    1.8896   -4.0553    3.8789 O   0  0  0  0  0  0  0  0  0  0  0  0
    3.7747   -3.7058    2.2131 C   0  0  1  0  0  0  0  0  0  0  0  0
    4.8782   -4.7383    2.5909 C   0  0  0  0  0  0  0  0  0  0  0  0
    5.9734   -4.8724    1.5077 C   0  0  0  0  0  0  0  0  0  0  0  0
    6.6343   -3.5147    1.1358 C   0  0  1  0  0  0  0  0  0  0  0  0
    7.8612   -3.6935    0.2117 C   0  0  0  0  0  0  0  0  0  0  0  0
    5.5766   -2.4194    0.6908 C   0  0  1  0  0  0  0  0  0  0  0  0
    6.3007   -1.0714    0.4976 C   0  0  0  0  0  0  0  0  0  0  0  0
    5.0257   -2.9392   -0.6473 C   0  0  1  0  0  0  0  0  0  0  0  0
    3.5195   -2.9024   -0.7508 C   0  0  2  0  0  0  0  0  0  0  0  0
    3.0075   -4.2481   -0.3699 C   0  0  0  0  0  0  0  0  0  0  0  0
    2.7376   -4.3305    1.1470 C   0  0  1  0  0  0  0  0  0  0  0  0
    2.3306   -5.8081    1.4020 C   0  0  0  0  0  0  0  0  0  0  0  0
    4.3429   -2.3733   -1.8825 C   0  0  0  0  0  0  0  0  0  0  0  0
    4.3915   -0.8871   -2.1698 C   0  0  0  0  0  0  0  0  0  0  0  0
    4.3862   -3.1570   -3.1811 C   0  0  0  0  0  0  0  0  0  0  0  0
    4.5146   -2.3371    1.8847 C   0  0  2  0  0  0  0  0  0  0  0  0
    5.3617   -2.0338    3.0035 O   0  0  0  0  0  0  0  0  0  0  0  0
    3.5019   -1.1630    2.1646 C   0  0  1  0  0  0  0  0  0  0  0  0
    2.9794   -0.3942    1.1017 O   0  0  0  0  0  0  0  0  0  0  0  0
    2.8389   -0.7950    4.9105 H   0  0  0  0  0  0  0  0  0  0  0  0
    1.1986   -1.4299    4.8270 H   0  0  0  0  0  0  0  0  0  0  0  0
    1.6260    0.0243    3.9297 H   0  0  0  0  0  0  0  0  0  0  0  0
    1.4967   -1.9439    2.4142 H   0  0  0  0  0  0  0  0  0  0  0  0
    3.5730   -3.0950    4.3088 H   0  0  0  0  0  0  0  0  0  0  0  0
    2.2869   -4.8482    4.2068 H   0  0  0  0  0  0  0  0  0  0  0  0
    5.3655   -4.4449    3.5192 H   0  0  0  0  0  0  0  0  0  0  0  0
    4.4670   -5.7193    2.8216 H   0  0  0  0  0  0  0  0  0  0  0  0
    6.7458   -5.5449    1.8828 H   0  0  0  0  0  0  0  0  0  0  0  0
    5.5664   -5.3717    0.6348 H   0  0  0  0  0  0  0  0  0  0  0  0
    7.1032   -3.1893    2.0497 H   0  0  0  0  0  0  0  0  0  0  0  0
    7.6171   -4.0660   -0.7749 H   0  0  0  0  0  0  0  0  0  0  0  0
    8.5627   -4.4030    0.6504 H   0  0  0  0  0  0  0  0  0  0  0  0
    8.4133   -2.7626    0.0814 H   0  0  0  0  0  0  0  0  0  0  0  0
    5.6193   -0.2197    0.4639 H   0  0  0  0  0  0  0  0  0  0  0  0
    6.8646   -1.0866   -0.4292 H   0  0  0  0  0  0  0  0  0  0  0  0
    7.0108   -0.8823    1.3020 H   0  0  0  0  0  0  0  0  0  0  0  0
    5.5071   -3.8647   -0.9493 H   0  0  0  0  0  0  0  0  0  0  0  0
    2.8737   -2.1194   -0.3953 H   0  0  0  0  0  0  0  0  0  0  0  0
    2.0803   -4.4094   -0.9208 H   0  0  0  0  0  0  0  0  0  0  0  0
    3.6870   -5.0379   -0.6928 H   0  0  0  0  0  0  0  0  0  0  0  0
    1.8260   -3.7549    1.2617 H   0  0  0  0  0  0  0  0  0  0  0  0
    3.1342   -6.4909    1.1258 H   0  0  0  0  0  0  0  0  0  0  0  0
    1.4669   -6.0884    0.7933 H   0  0  0  0  0  0  0  0  0  0  0  0
    2.0687   -6.0287    2.4345 H   0  0  0  0  0  0  0  0  0  0  0  0
    3.6140   -0.6012   -2.8805 H   0  0  0  0  0  0  0  0  0  0  0  0
    5.3651   -0.6172   -2.5762 H   0  0  0  0  0  0  0  0  0  0  0  0
    4.2305   -0.3149   -1.2597 H   0  0  0  0  0  0  0  0  0  0  0  0
    3.5478   -2.8812   -3.8217 H   0  0  0  0  0  0  0  0  0  0  0  0
    4.3267   -4.2274   -2.9812 H   0  0  0  0  0  0  0  0  0  0  0  0
    5.3199   -2.9624   -3.7069 H   0  0  0  0  0  0  0  0  0  0  0  0
    4.8288   -1.9326    3.7758 H   0  0  0  0  0  0  0  0  0  0  0  0
    3.9668   -0.3654    2.7522 H   0  0  0  0  0  0  0  0  0  0  0  0
    2.3424   -0.8958    0.6049 H   0  0  0  0  0  0  0  0  0  0  0  0
  1  2  1  0
  1 24  1  0
  1 25  1  0
  1 26  1  0
  2 22  1  0
  2  3  1  0
  2 27  1  6
  3  4  1  0
  3  5  1  0
  3 28  1  1
  4 29  1  0
  5 15  1  0
  5 20  1  0
  5  6  1  1
  6  7  1  0
  6 30  1  0
  6 31  1  0
  7  8  1  0
  7 32  1  0
  7 33  1  0
  8  9  1  0
  8 10  1  0
  8 34  1  1
  9 35  1  0
  9 36  1  0
  9 37  1  0
 10 11  1  6
 10 12  1  0
 10 20  1  0
 11 38  1  0
 11 39  1  0
 11 40  1  0
 12 17  1  0
 12 13  1  0
 12 41  1  6
 13 14  1  0
 13 17  1  0
 13 42  1  1
 14 15  1  0
 14 43  1  0
 14 44  1  0
 15 16  1  0
 15 45  1  6
 16 46  1  0
 16 47  1  0
 16 48  1  0
 17 18  1  0
 17 19  1  0
 18 49  1  0
 18 50  1  0
 18 51  1  0
 19 52  1  0
 19 53  1  0
 19 54  1  0
 20 21  1  1
 20 22  1  0
 21 55  1  0
 22 23  1  0
 22 56  1  1
 23 57  1  0
M  END
>  <i_m_ct_stereo_status>  (361) 
1

>  <s_m_source_file>  (361) 
/var/tmp/pbs.5076255.sched01/tmp0q3ly_rt/135fqi89qhj.sdf

>  <i_m_source_file_index>  (361) 
17

>  <i_lp_mmshare_version>  (361) 
48012

>  <i_f3d_flags>  (361) 
0

>  <s_epik_input>  (361) 
W09IXVtDQEBIXTFbQ0BASF0oW0NIM10pW0NASF0oW09IXSlbQ0BdKFtDQF0xMjMpKFtPSF0pW0NAQF0oW0NIM10pKFtDQEhdKFtDSDNdKVtDSDJdW0NIMl0yKVtDQEhdNFtDQEBIXShDNChbQ0gzXSlbQ0gzXSlbQ0gyXVtDQEhdM1tDSDNd

>  <s_epik_cmdline>  (361) 
J2VwaWtfcHl0aG9uJywgJy1waHQnLCAnMi4wJywgJy1waCcsICc3LjAnLCAnLXRuJywgJzgnLCAnLW1hJywgJzIwMCcsICctaW1hZScsICc8aW5maWxlLm1hZT4nLCAnLW9tYWUnLCAnPG91dGZpbGUubWFlPic=

>  <r_lp_tautomer_probability>  (361) 
1

>  <r_epik_Ionization_Penalty>  (361) 
2.58648e-06

>  <r_epik_Ionization_Penalty_Charging>  (361) 
0

>  <r_epik_Ionization_Penalty_Neutral>  (361) 
2.58648e-06

>  <r_epik_State_Penalty>  (361) 
-0

>  <r_epik_Charging_Adjusted_Penalty>  (361) 
0

>  <i_epik_Tot_Q>  (361) 
0

>  <i_epik_Tot_abs_Q>  (361) 
0

>  <s_lp_Force_Field>  (361) 
OPLS3e

>  <r_lp_Energy>  (361) 
108.733

>  <b_lp_Chiralities_Consistent>  (361) 
1

>  <s_lp_Variant>  (361) 
99:0-1

>  <s_i_glide_gridfile>  (361) 
pfpi4k_grid

>  <i_i_glide_lignum>  (361) 
17

>  <i_i_glide_rotatable_bonds>  (361) 
3

>  <r_i_docking_score>  (361) 
-3.30185

>  <r_i_glide_ligand_efficiency>  (361) 
-0.143559

>  <r_i_glide_ligand_efficiency_sa>  (361) 
-0.408262

>  <r_i_glide_ligand_efficiency_ln>  (361) 
-0.798417

>  <r_i_glide_gscore>  (361) 
-3.30185

>  <r_i_glide_lipo>  (361) 
-0.626315

>  <r_i_glide_hbond>  (361) 
0

>  <r_i_glide_metal>  (361) 
-0

>  <r_i_glide_rewards>  (361) 
-1.21035

>  <r_i_glide_evdw>  (361) 
-24.6262

>  <r_i_glide_ecoul>  (361) 
-1.55918

>  <r_i_glide_erotb>  (361) 
0

>  <r_i_glide_esite>  (361) 
0

>  <r_i_glide_emodel>  (361) 
-31.174

>  <r_i_glide_energy>  (361) 
-26.1853

>  <r_i_glide_einternal>  (361) 
0.501253

>  <r_i_glide_intrahb_reward>  (361) 
-0

>  <i_i_glide_confnum>  (361) 
1

>  <i_i_glide_posenum>  (361) 
37

>  <r_i_glide_eff_state_penalty>  (361) 
0

>  <ligand_id>  (361) 
99

>  <original_smiles>  (361) 
CC1C(O)C23CCC(C)C(C)(C4C(CC2C)C4(C)C)C3(O)C1O

>  <smiles>  (361) 
[H]OC1([H])C([H])(C([H])([H])[H])C([H])(O[H])C23C([H])([H])C([H])([H])C([H])(C([H])([H])[H])C(C([H])([H])[H])(C4([H])C([H])(C([H])([H])C2([H])C([H])([H])[H])C4(C([H])([H])[H])C([H])([H])[H])C13O[H]

$$$$
99:0:2
     RDKit          3D

 57 60  0  0  1  0  0  0  0  0999 V2000
    1.9998   -0.9678    4.2764 C   0  0  0  0  0  0  0  0  0  0  0  0
    2.3902   -1.8179    3.0575 C   0  0  2  0  0  0  0  0  0  0  0  0
    2.9337   -3.2160    3.4534 C   0  0  1  0  0  0  0  0  0  0  0  0
    1.8853   -4.0576    3.8914 O   0  0  0  0  0  0  0  0  0  0  0  0
    3.7744   -3.7137    2.2246 C   0  0  1  0  0  0  0  0  0  0  0  0
    4.8824   -4.7472    2.5936 C   0  0  0  0  0  0  0  0  0  0  0  0
    5.9753   -4.8758    1.5066 C   0  0  0  0  0  0  0  0  0  0  0  0
    6.6299   -3.5147    1.1374 C   0  0  1  0  0  0  0  0  0  0  0  0
    7.8544   -3.6892    0.2045 C   0  0  0  0  0  0  0  0  0  0  0  0
    5.5670   -2.4203    0.7023 C   0  0  1  0  0  0  0  0  0  0  0  0
    6.2925   -1.0737    0.5059 C   0  0  0  0  0  0  0  0  0  0  0  0
    5.0136   -2.9376   -0.6384 C   0  0  1  0  0  0  0  0  0  0  0  0
    3.5057   -2.9020   -0.7350 C   0  0  2  0  0  0  0  0  0  0  0  0
    2.9969   -4.2488   -0.3592 C   0  0  0  0  0  0  0  0  0  0  0  0
    2.7366   -4.3389    1.1601 C   0  0  1  0  0  0  0  0  0  0  0  0
    2.3305   -5.8156    1.4159 C   0  0  0  0  0  0  0  0  0  0  0  0
    4.3223   -2.3651   -1.8684 C   0  0  0  0  0  0  0  0  0  0  0  0
    4.3667   -0.8787   -2.1495 C   0  0  0  0  0  0  0  0  0  0  0  0
    4.3557   -3.1437   -3.1695 C   0  0  0  0  0  0  0  0  0  0  0  0
    4.5078   -2.3407    1.8992 C   0  0  2  0  0  0  0  0  0  0  0  0
    5.3477   -2.0375    3.0199 O   0  0  0  0  0  0  0  0  0  0  0  0
    3.4976   -1.1683    2.1865 C   0  0  1  0  0  0  0  0  0  0  0  0
    2.9725   -0.3974    1.1265 O   0  0  0  0  0  0  0  0  0  0  0  0
    2.8562   -0.8121    4.9334 H   0  0  0  0  0  0  0  0  0  0  0  0
    1.2141   -1.4445    4.8623 H   0  0  0  0  0  0  0  0  0  0  0  0
    1.6344    0.0107    3.9663 H   0  0  0  0  0  0  0  0  0  0  0  0
    1.5004   -1.9527    2.4412 H   0  0  0  0  0  0  0  0  0  0  0  0
    3.5881   -3.1085    4.3227 H   0  0  0  0  0  0  0  0  0  0  0  0
    1.5812   -3.7302    4.7227 H   0  0  0  0  0  0  0  0  0  0  0  0
    5.3691   -4.4645    3.5268 H   0  0  0  0  0  0  0  0  0  0  0  0
    4.4711   -5.7296    2.8202 H   0  0  0  0  0  0  0  0  0  0  0  0
    6.7492   -5.5533    1.8718 H   0  0  0  0  0  0  0  0  0  0  0  0
    5.5625   -5.3704    0.6302 H   0  0  0  0  0  0  0  0  0  0  0  0
    7.1077   -3.1888    2.0473 H   0  0  0  0  0  0  0  0  0  0  0  0
    7.6013   -4.0546   -0.7864 H   0  0  0  0  0  0  0  0  0  0  0  0
    8.5606   -4.4023    0.6329 H   0  0  0  0  0  0  0  0  0  0  0  0
    8.4054   -2.7570    0.0753 H   0  0  0  0  0  0  0  0  0  0  0  0
    5.6104   -0.2248    0.4763 H   0  0  0  0  0  0  0  0  0  0  0  0
    6.8469   -1.0832   -0.4267 H   0  0  0  0  0  0  0  0  0  0  0  0
    7.0094   -0.8834    1.3038 H   0  0  0  0  0  0  0  0  0  0  0  0
    5.4932   -3.8638   -0.9479 H   0  0  0  0  0  0  0  0  0  0  0  0
    2.8619   -2.1216   -0.3731 H   0  0  0  0  0  0  0  0  0  0  0  0
    2.0629   -4.4060   -0.9015 H   0  0  0  0  0  0  0  0  0  0  0  0
    3.6708   -5.0370   -0.6976 H   0  0  0  0  0  0  0  0  0  0  0  0
    1.8254   -3.7637    1.2824 H   0  0  0  0  0  0  0  0  0  0  0  0
    3.1330   -6.4966    1.1340 H   0  0  0  0  0  0  0  0  0  0  0  0
    1.4622   -6.0948    0.8133 H   0  0  0  0  0  0  0  0  0  0  0  0
    2.0780   -6.0286    2.4529 H   0  0  0  0  0  0  0  0  0  0  0  0
    3.5856   -0.5929   -2.8553 H   0  0  0  0  0  0  0  0  0  0  0  0
    5.3379   -0.6045   -2.5591 H   0  0  0  0  0  0  0  0  0  0  0  0
    4.2109   -0.3111   -1.2373 H   0  0  0  0  0  0  0  0  0  0  0  0
    3.5105   -2.8697   -3.8038 H   0  0  0  0  0  0  0  0  0  0  0  0
    4.2996   -4.2149   -2.9735 H   0  0  0  0  0  0  0  0  0  0  0  0
    5.2862   -2.9468   -3.7026 H   0  0  0  0  0  0  0  0  0  0  0  0
    6.0231   -2.6969    3.0611 H   0  0  0  0  0  0  0  0  0  0  0  0
    3.9645   -0.3727    2.7736 H   0  0  0  0  0  0  0  0  0  0  0  0
    2.3445   -0.9044    0.6257 H   0  0  0  0  0  0  0  0  0  0  0  0
  1  2  1  0
  1 24  1  0
  1 25  1  0
  1 26  1  0
  2 22  1  0
  2  3  1  0
  2 27  1  6
  3  4  1  0
  3  5  1  0
  3 28  1  1
  4 29  1  0
  5 15  1  0
  5 20  1  0
  5  6  1  1
  6  7  1  0
  6 30  1  0
  6 31  1  0
  7  8  1  0
  7 32  1  0
  7 33  1  0
  8  9  1  0
  8 10  1  0
  8 34  1  1
  9 35  1  0
  9 36  1  0
  9 37  1  0
 10 11  1  6
 10 12  1  0
 10 20  1  0
 11 38  1  0
 11 39  1  0
 11 40  1  0
 12 17  1  0
 12 13  1  0
 12 41  1  6
 13 14  1  0
 13 17  1  0
 13 42  1  1
 14 15  1  0
 14 43  1  0
 14 44  1  0
 15 16  1  0
 15 45  1  6
 16 46  1  0
 16 47  1  0
 16 48  1  0
 17 18  1  0
 17 19  1  0
 18 49  1  0
 18 50  1  0
 18 51  1  0
 19 52  1  0
 19 53  1  0
 19 54  1  0
 20 21  1  1
 20 22  1  0
 21 55  1  0
 22 23  1  0
 22 56  1  1
 23 57  1  0
M  END
>  <i_m_ct_stereo_status>  (362) 
1

>  <s_m_source_file>  (362) 
/var/tmp/pbs.5076255.sched01/tmp0q3ly_rt/135fqi89qhj.sdf

>  <i_m_source_file_index>  (362) 
17

>  <i_lp_mmshare_version>  (362) 
48012

>  <i_f3d_flags>  (362) 
0

>  <s_epik_input>  (362) 
W09IXVtDQEBIXTFbQ0BASF0oW0NIM10pW0NASF0oW09IXSlbQ0BdKFtDQF0xMjMpKFtPSF0pW0NAQF0oW0NIM10pKFtDQEhdKFtDSDNdKVtDSDJdW0NIMl0yKVtDQEhdNFtDQEBIXShDNChbQ0gzXSlbQ0gzXSlbQ0gyXVtDQEhdM1tDSDNd

>  <s_epik_cmdline>  (362) 
J2VwaWtfcHl0aG9uJywgJy1waHQnLCAnMi4wJywgJy1waCcsICc3LjAnLCAnLXRuJywgJzgnLCAnLW1hJywgJzIwMCcsICctaW1hZScsICc8aW5maWxlLm1hZT4nLCAnLW9tYWUnLCAnPG91dGZpbGUubWFlPic=

>  <r_lp_tautomer_probability>  (362) 
1

>  <r_epik_Ionization_Penalty>  (362) 
2.58648e-06

>  <r_epik_Ionization_Penalty_Charging>  (362) 
0

>  <r_epik_Ionization_Penalty_Neutral>  (362) 
2.58648e-06

>  <r_epik_State_Penalty>  (362) 
-0

>  <r_epik_Charging_Adjusted_Penalty>  (362) 
0

>  <i_epik_Tot_Q>  (362) 
0

>  <i_epik_Tot_abs_Q>  (362) 
0

>  <s_lp_Force_Field>  (362) 
OPLS3e

>  <r_lp_Energy>  (362) 
108.733

>  <b_lp_Chiralities_Consistent>  (362) 
1

>  <s_lp_Variant>  (362) 
99:0-1

>  <s_i_glide_gridfile>  (362) 
pfpi4k_grid

>  <i_i_glide_lignum>  (362) 
17

>  <i_i_glide_rotatable_bonds>  (362) 
3

>  <r_i_docking_score>  (362) 
-3.28226

>  <r_i_glide_ligand_efficiency>  (362) 
-0.142707

>  <r_i_glide_ligand_efficiency_sa>  (362) 
-0.40584

>  <r_i_glide_ligand_efficiency_ln>  (362) 
-0.79368

>  <r_i_glide_gscore>  (362) 
-3.28226

>  <r_i_glide_lipo>  (362) 
-0.621305

>  <r_i_glide_hbond>  (362) 
0

>  <r_i_glide_metal>  (362) 
-0

>  <r_i_glide_rewards>  (362) 
-1.21035

>  <r_i_glide_evdw>  (362) 
-24.5957

>  <r_i_glide_ecoul>  (362) 
-1.47213

>  <r_i_glide_erotb>  (362) 
0

>  <r_i_glide_esite>  (362) 
0

>  <r_i_glide_emodel>  (362) 
-31.0385

>  <r_i_glide_energy>  (362) 
-26.0679

>  <r_i_glide_einternal>  (362) 
0.477733

>  <r_i_glide_intrahb_reward>  (362) 
-0

>  <i_i_glide_confnum>  (362) 
2

>  <i_i_glide_posenum>  (362) 
18

>  <r_i_glide_eff_state_penalty>  (362) 
0

>  <ligand_id>  (362) 
99

>  <original_smiles>  (362) 
CC1C(O)C23CCC(C)C(C)(C4C(CC2C)C4(C)C)C3(O)C1O

>  <smiles>  (362) 
[H]OC1([H])C([H])(C([H])([H])[H])C([H])(O[H])C23C([H])([H])C([H])([H])C([H])(C([H])([H])[H])C(C([H])([H])[H])(C4([H])C([H])(C([H])([H])C2([H])C([H])([H])[H])C4(C([H])([H])[H])C([H])([H])[H])C13O[H]

$$$$
100:0:0
     RDKit          3D

 44 48  0  0  1  0  0  0  0  0999 V2000
   -2.4408    2.8266    4.9506 C   0  0  0  0  0  0  0  0  0  0  0  0
   -1.1328    3.2026    4.5479 O   0  0  0  0  0  0  0  0  0  0  0  0
   -0.2296    2.2071    4.2332 C   0  0  0  0  0  0  0  0  0  0  0  0
   -0.5013    0.8852    4.3257 C   0  0  0  0  0  0  0  0  0  0  0  0
    0.5036   -0.1101    3.9843 C   0  0  0  0  0  0  0  0  0  0  0  0
    1.8272    0.3153    3.5458 C   0  0  0  0  0  0  0  0  0  0  0  0
    2.0431    1.7570    3.4473 C   0  0  0  0  0  0  0  0  0  0  0  0
    1.0790    2.6601    3.7717 C   0  0  0  0  0  0  0  0  0  0  0  0
    1.2435    4.0227    3.6884 O   0  0  0  0  0  0  0  0  0  0  0  0
    2.4423    4.5460    3.1256 C   0  0  0  0  0  0  0  0  0  0  0  0
    2.7990   -0.5970    3.2311 C   0  0  0  0  0  0  0  0  0  0  0  0
    4.1989   -0.1710    2.7693 C   0  0  0  0  0  0  0  0  0  0  0  0
    4.1048    0.1523    1.2927 C   0  0  1  0  0  0  0  0  0  0  0  0
    5.2396   -0.3133    0.5279 N   0  0  0  0  0  0  0  0  0  0  0  0
    3.9474   -0.9420    0.2802 C   0  0  1  0  0  0  0  0  0  0  0  0
    3.9962   -2.3782    0.6131 C   0  0  0  0  0  0  0  0  0  0  0  0
    3.8917   -3.1724    1.6913 C   0  0  0  0  0  0  0  0  0  0  0  0
    4.2309   -4.4436    0.9522 C   0  0  0  0  0  0  0  0  0  0  0  0
    4.1880   -3.5538   -0.3309 C   0  0  0  0  0  0  0  0  0  0  0  0
    3.4773   -2.9686    3.0658 C   0  0  0  0  0  0  0  0  0  0  0  0
    3.8319   -3.7285    3.9738 O   0  0  0  0  0  0  0  0  0  0  0  0
    2.5476   -2.0026    3.2710 N   0  0  0  0  0  0  0  0  0  0  0  0
    1.2357   -2.4881    3.7548 C   0  0  0  0  0  0  0  0  0  0  0  0
    0.2304   -1.4164    4.0871 C   0  0  0  0  0  0  0  0  0  0  0  0
   -2.9967    3.7339    5.1717 H   0  0  0  0  0  0  0  0  0  0  0  0
   -2.4371    2.2273    5.8629 H   0  0  0  0  0  0  0  0  0  0  0  0
   -2.9661    2.2970    4.1530 H   0  0  0  0  0  0  0  0  0  0  0  0
   -1.4661    0.5368    4.6590 H   0  0  0  0  0  0  0  0  0  0  0  0
    2.9928    2.1191    3.0943 H   0  0  0  0  0  0  0  0  0  0  0  0
    2.3898    5.6349    3.1288 H   0  0  0  0  0  0  0  0  0  0  0  0
    2.5631    4.2338    2.0884 H   0  0  0  0  0  0  0  0  0  0  0  0
    3.3252    4.2655    3.7007 H   0  0  0  0  0  0  0  0  0  0  0  0
    4.5460    0.6968    3.3284 H   0  0  0  0  0  0  0  0  0  0  0  0
    4.9818   -0.9148    2.9623 H   0  0  0  0  0  0  0  0  0  0  0  0
    3.6815    1.1255    1.0524 H   0  0  0  0  0  0  0  0  0  0  0  0
    5.6304    0.3414   -0.1542 H   0  0  0  0  0  0  0  0  0  0  0  0
    3.4614   -0.7584   -0.6786 H   0  0  0  0  0  0  0  0  0  0  0  0
    5.2276   -4.8433    1.1428 H   0  0  0  0  0  0  0  0  0  0  0  0
    3.5032   -5.2609    0.9339 H   0  0  0  0  0  0  0  0  0  0  0  0
    3.3110   -3.7834   -0.9376 H   0  0  0  0  0  0  0  0  0  0  0  0
    5.0956   -3.6349   -0.9349 H   0  0  0  0  0  0  0  0  0  0  0  0
    0.7851   -3.0993    2.9762 H   0  0  0  0  0  0  0  0  0  0  0  0
    1.3445   -3.1175    4.6372 H   0  0  0  0  0  0  0  0  0  0  0  0
   -0.7376   -1.7634    4.4077 H   0  0  0  0  0  0  0  0  0  0  0  0
  1  2  1  0
  1 25  1  0
  1 26  1  0
  1 27  1  0
  2  3  1  0
  3  8  1  0
  3  4  2  0
  4  5  1  0
  4 28  1  0
  5 24  2  0
  5  6  1  0
  6  7  1  0
  6 11  2  0
  7  8  2  0
  7 29  1  0
  8  9  1  0
  9 10  1  0
 10 30  1  0
 10 31  1  0
 10 32  1  0
 11 22  1  0
 11 12  1  0
 12 13  1  0
 12 33  1  0
 12 34  1  0
 13 15  1  0
 13 14  1  0
 13 35  1  1
 14 15  1  0
 14 36  1  0
 15 16  1  0
 15 37  1  6
 16 19  1  0
 16 17  2  0
 17 18  1  0
 17 20  1  0
 18 19  1  0
 18 38  1  0
 18 39  1  0
 19 40  1  0
 19 41  1  0
 20 21  2  0
 20 22  1  0
 22 23  1  0
 23 24  1  0
 23 42  1  0
 23 43  1  0
 24 44  1  0
M  END
>  <i_m_ct_stereo_status>  (363) 
1

>  <s_m_source_file>  (363) 
/var/tmp/pbs.5076255.sched01/tmp0q3ly_rt/135fqi89qhj.sdf

>  <i_m_source_file_index>  (363) 
18

>  <i_lp_mmshare_version>  (363) 
48012

>  <i_f3d_flags>  (363) 
0

>  <s_epik_input>  (363) 
W0NIM11PYyhbY0hdMSljKE9bQ0gzXSlbY0hdYyhjMT0yKT1DM04oW0NIMl1bQ0hdMilDKD1PKUM0PUMoW0NIMl1bQ0gyXTQpW0NASF01W0NAQEhdKFtDSDJdMylbTkhdNQ==

>  <s_epik_cmdline>  (363) 
J2VwaWtfcHl0aG9uJywgJy1waHQnLCAnMi4wJywgJy1waCcsICc3LjAnLCAnLXRuJywgJzgnLCAnLW1hJywgJzIwMCcsICctaW1hZScsICc8aW5maWxlLm1hZT4nLCAnLW9tYWUnLCAnPG91dGZpbGUubWFlPic=

>  <r_lp_tautomer_probability>  (363) 
1

>  <r_epik_Ionization_Penalty>  (363) 
1.74195e-05

>  <r_epik_Ionization_Penalty_Charging>  (363) 
0

>  <r_epik_Ionization_Penalty_Neutral>  (363) 
1.74195e-05

>  <r_epik_State_Penalty>  (363) 
-0

>  <r_epik_Charging_Adjusted_Penalty>  (363) 
0

>  <i_epik_Tot_Q>  (363) 
0

>  <i_epik_Tot_abs_Q>  (363) 
0

>  <s_lp_Force_Field>  (363) 
OPLS3e

>  <r_lp_Energy>  (363) 
81.9529

>  <b_lp_Chiralities_Consistent>  (363) 
1

>  <s_lp_Variant>  (363) 
100:0-1

>  <s_i_glide_gridfile>  (363) 
pfpi4k_grid

>  <i_i_glide_lignum>  (363) 
18

>  <i_i_glide_rotatable_bonds>  (363) 
2

>  <r_i_docking_score>  (363) 
-3.31004

>  <r_i_glide_ligand_efficiency>  (363) 
-0.137918

>  <r_i_glide_ligand_efficiency_sa>  (363) 
-0.397825

>  <r_i_glide_ligand_efficiency_ln>  (363) 
-0.792244

>  <r_i_glide_gscore>  (363) 
-3.31004

>  <r_i_glide_lipo>  (363) 
-0.16325

>  <r_i_glide_hbond>  (363) 
-0.32

>  <r_i_glide_metal>  (363) 
-0

>  <r_i_glide_rewards>  (363) 
-1.19772

>  <r_i_glide_evdw>  (363) 
-22.033

>  <r_i_glide_ecoul>  (363) 
-3.50924

>  <r_i_glide_erotb>  (363) 
0

>  <r_i_glide_esite>  (363) 
-0.00103255

>  <r_i_glide_emodel>  (363) 
-30.1069

>  <r_i_glide_energy>  (363) 
-25.5423

>  <r_i_glide_einternal>  (363) 
0.154333

>  <r_i_glide_intrahb_reward>  (363) 
-0

>  <i_i_glide_confnum>  (363) 
2

>  <i_i_glide_posenum>  (363) 
35

>  <r_i_glide_eff_state_penalty>  (363) 
0

>  <ligand_id>  (363) 
100

>  <original_smiles>  (363) 
COc1cc2c(cc1OC)=C1CC3NC3C3=C(CC3)C(=O)N1CC=2

>  <smiles>  (363) 
[H]C1=c2c([H])c(OC([H])([H])[H])c(OC([H])([H])[H])c([H])c2=C2N(C(=O)C3=C(C([H])([H])C3([H])[H])C3([H])N([H])C3([H])C2([H])[H])C1([H])[H]

$$$$
100:0:1
     RDKit          3D

 44 48  0  0  1  0  0  0  0  0999 V2000
   -1.7476    3.5612    3.5607 C   0  0  0  0  0  0  0  0  0  0  0  0
   -1.2892    2.6147    4.5245 O   0  0  0  0  0  0  0  0  0  0  0  0
   -0.2616    1.7848    4.1406 C   0  0  0  0  0  0  0  0  0  0  0  0
   -0.4660    0.4730    4.3313 C   0  0  0  0  0  0  0  0  0  0  0  0
    0.5201   -0.5208    3.9280 C   0  0  0  0  0  0  0  0  0  0  0  0
    1.7786   -0.0716    3.3401 C   0  0  0  0  0  0  0  0  0  0  0  0
    1.9426    1.3794    3.1710 C   0  0  0  0  0  0  0  0  0  0  0  0
    0.9932    2.2664    3.5540 C   0  0  0  0  0  0  0  0  0  0  0  0
    1.1683    3.6330    3.4862 O   0  0  0  0  0  0  0  0  0  0  0  0
    2.2486    4.1555    2.7262 C   0  0  0  0  0  0  0  0  0  0  0  0
    2.7444   -0.9671    2.9768 C   0  0  0  0  0  0  0  0  0  0  0  0
    4.0875   -0.5275    2.3854 C   0  0  0  0  0  0  0  0  0  0  0  0
    3.8819   -0.2512    0.9100 C   0  0  1  0  0  0  0  0  0  0  0  0
    4.9650   -0.7078    0.0601 N   0  0  0  0  0  0  0  0  0  0  0  0
    3.6778   -1.3792   -0.0535 C   0  0  1  0  0  0  0  0  0  0  0  0
    3.7795   -2.8065    0.3256 C   0  0  0  0  0  0  0  0  0  0  0  0
    3.7572   -3.5668    1.4270 C   0  0  0  0  0  0  0  0  0  0  0  0
    4.0860   -4.8570    0.7014 C   0  0  0  0  0  0  0  0  0  0  0  0
    3.8996   -4.0036   -0.6017 C   0  0  0  0  0  0  0  0  0  0  0  0
    3.4683   -3.3348    2.8348 C   0  0  0  0  0  0  0  0  0  0  0  0
    3.9307   -4.0431    3.7365 O   0  0  0  0  0  0  0  0  0  0  0  0
    2.5378   -2.3821    3.0995 N   0  0  0  0  0  0  0  0  0  0  0  0
    1.2849   -2.8931    3.6945 C   0  0  0  0  0  0  0  0  0  0  0  0
    0.2870   -1.8275    4.0897 C   0  0  0  0  0  0  0  0  0  0  0  0
   -2.4374    4.2575    4.0421 H   0  0  0  0  0  0  0  0  0  0  0  0
   -2.2997    3.0165    2.7946 H   0  0  0  0  0  0  0  0  0  0  0  0
   -0.9996    4.1723    3.0527 H   0  0  0  0  0  0  0  0  0  0  0  0
   -1.4082    0.1743    4.7641 H   0  0  0  0  0  0  0  0  0  0  0  0
    2.8649    1.7415    2.7579 H   0  0  0  0  0  0  0  0  0  0  0  0
    2.1494    5.2422    2.7032 H   0  0  0  0  0  0  0  0  0  0  0  0
    2.2189    3.8123    1.6892 H   0  0  0  0  0  0  0  0  0  0  0  0
    3.2138    3.9222    3.1745 H   0  0  0  0  0  0  0  0  0  0  0  0
    4.4528    0.3657    2.8922 H   0  0  0  0  0  0  0  0  0  0  0  0
    4.9020   -1.2395    2.5459 H   0  0  0  0  0  0  0  0  0  0  0  0
    3.4117    0.7058    0.6926 H   0  0  0  0  0  0  0  0  0  0  0  0
    5.2259   -0.0627   -0.6757 H   0  0  0  0  0  0  0  0  0  0  0  0
    3.0922   -1.2225   -0.9565 H   0  0  0  0  0  0  0  0  0  0  0  0
    5.1095   -5.2209    0.8030 H   0  0  0  0  0  0  0  0  0  0  0  0
    3.3885   -5.6957    0.7550 H   0  0  0  0  0  0  0  0  0  0  0  0
    2.9770   -4.2566   -1.1254 H   0  0  0  0  0  0  0  0  0  0  0  0
    4.7486   -4.0772   -1.2819 H   0  0  0  0  0  0  0  0  0  0  0  0
    0.7883   -3.5436    2.9730 H   0  0  0  0  0  0  0  0  0  0  0  0
    1.4887   -3.4967    4.5819 H   0  0  0  0  0  0  0  0  0  0  0  0
   -0.6466   -2.1754    4.5047 H   0  0  0  0  0  0  0  0  0  0  0  0
  1  2  1  0
  1 25  1  0
  1 26  1  0
  1 27  1  0
  2  3  1  0
  3  8  1  0
  3  4  2  0
  4  5  1  0
  4 28  1  0
  5 24  2  0
  5  6  1  0
  6  7  1  0
  6 11  2  0
  7  8  2  0
  7 29  1  0
  8  9  1  0
  9 10  1  0
 10 30  1  0
 10 31  1  0
 10 32  1  0
 11 22  1  0
 11 12  1  0
 12 13  1  0
 12 33  1  0
 12 34  1  0
 13 15  1  0
 13 14  1  0
 13 35  1  1
 14 15  1  0
 14 36  1  0
 15 16  1  0
 15 37  1  6
 16 19  1  0
 16 17  2  0
 17 18  1  0
 17 20  1  0
 18 19  1  0
 18 38  1  0
 18 39  1  0
 19 40  1  0
 19 41  1  0
 20 21  2  0
 20 22  1  0
 22 23  1  0
 23 24  1  0
 23 42  1  0
 23 43  1  0
 24 44  1  0
M  END
>  <i_m_ct_stereo_status>  (364) 
1

>  <s_m_source_file>  (364) 
/var/tmp/pbs.5076255.sched01/tmp0q3ly_rt/135fqi89qhj.sdf

>  <i_m_source_file_index>  (364) 
18

>  <i_lp_mmshare_version>  (364) 
48012

>  <i_f3d_flags>  (364) 
0

>  <s_epik_input>  (364) 
W0NIM11PYyhbY0hdMSljKE9bQ0gzXSlbY0hdYyhjMT0yKT1DM04oW0NIMl1bQ0hdMilDKD1PKUM0PUMoW0NIMl1bQ0gyXTQpW0NASF01W0NAQEhdKFtDSDJdMylbTkhdNQ==

>  <s_epik_cmdline>  (364) 
J2VwaWtfcHl0aG9uJywgJy1waHQnLCAnMi4wJywgJy1waCcsICc3LjAnLCAnLXRuJywgJzgnLCAnLW1hJywgJzIwMCcsICctaW1hZScsICc8aW5maWxlLm1hZT4nLCAnLW9tYWUnLCAnPG91dGZpbGUubWFlPic=

>  <r_lp_tautomer_probability>  (364) 
1

>  <r_epik_Ionization_Penalty>  (364) 
1.74195e-05

>  <r_epik_Ionization_Penalty_Charging>  (364) 
0

>  <r_epik_Ionization_Penalty_Neutral>  (364) 
1.74195e-05

>  <r_epik_State_Penalty>  (364) 
-0

>  <r_epik_Charging_Adjusted_Penalty>  (364) 
0

>  <i_epik_Tot_Q>  (364) 
0

>  <i_epik_Tot_abs_Q>  (364) 
0

>  <s_lp_Force_Field>  (364) 
OPLS3e

>  <r_lp_Energy>  (364) 
81.9529

>  <b_lp_Chiralities_Consistent>  (364) 
1

>  <s_lp_Variant>  (364) 
100:0-1

>  <s_i_glide_gridfile>  (364) 
pfpi4k_grid

>  <i_i_glide_lignum>  (364) 
18

>  <i_i_glide_rotatable_bonds>  (364) 
2

>  <r_i_docking_score>  (364) 
-3.183

>  <r_i_glide_ligand_efficiency>  (364) 
-0.132625

>  <r_i_glide_ligand_efficiency_sa>  (364) 
-0.382557

>  <r_i_glide_ligand_efficiency_ln>  (364) 
-0.761839

>  <r_i_glide_gscore>  (364) 
-3.183

>  <r_i_glide_lipo>  (364) 
-0.180591

>  <r_i_glide_hbond>  (364) 
-0.220754

>  <r_i_glide_metal>  (364) 
-0

>  <r_i_glide_rewards>  (364) 
-1.19817

>  <r_i_glide_evdw>  (364) 
-23.3228

>  <r_i_glide_ecoul>  (364) 
-2.77044

>  <r_i_glide_erotb>  (364) 
0

>  <r_i_glide_esite>  (364) 
-0.00177982

>  <r_i_glide_emodel>  (364) 
-24.978

>  <r_i_glide_energy>  (364) 
-26.0932

>  <r_i_glide_einternal>  (364) 
10.9504

>  <r_i_glide_intrahb_reward>  (364) 
-0

>  <i_i_glide_confnum>  (364) 
1

>  <i_i_glide_posenum>  (364) 
25

>  <r_i_glide_eff_state_penalty>  (364) 
0

>  <ligand_id>  (364) 
100

>  <original_smiles>  (364) 
COc1cc2c(cc1OC)=C1CC3NC3C3=C(CC3)C(=O)N1CC=2

>  <smiles>  (364) 
[H]C1=c2c([H])c(OC([H])([H])[H])c(OC([H])([H])[H])c([H])c2=C2N(C(=O)C3=C(C([H])([H])C3([H])[H])C3([H])N([H])C3([H])C2([H])[H])C1([H])[H]

$$$$
100:0:2
     RDKit          3D

 44 48  0  0  1  0  0  0  0  0999 V2000
   -3.7583    3.8762    2.4989 C   0  0  0  0  0  0  0  0  0  0  0  0
   -2.5448    4.3644    3.0654 O   0  0  0  0  0  0  0  0  0  0  0  0
   -1.6860    3.4612    3.6690 C   0  0  0  0  0  0  0  0  0  0  0  0
   -2.0027    2.1718    3.9198 C   0  0  0  0  0  0  0  0  0  0  0  0
   -1.0574    1.2610    4.5362 C   0  0  0  0  0  0  0  0  0  0  0  0
    0.2656    1.7492    4.9050 C   0  0  0  0  0  0  0  0  0  0  0  0
    0.5539    3.1454    4.5911 C   0  0  0  0  0  0  0  0  0  0  0  0
   -0.3655    3.9662    4.0174 C   0  0  0  0  0  0  0  0  0  0  0  0
   -0.1337    5.2874    3.7084 O   0  0  0  0  0  0  0  0  0  0  0  0
    1.1765    5.8138    3.8716 C   0  0  0  0  0  0  0  0  0  0  0  0
    1.1852    0.9246    5.4981 C   0  0  0  0  0  0  0  0  0  0  0  0
    2.5866    1.4114    5.8871 C   0  0  0  0  0  0  0  0  0  0  0  0
    3.4552    1.3718    4.6434 C   0  0  1  0  0  0  0  0  0  0  0  0
    4.7902    0.8683    4.9114 N   0  0  0  0  0  0  0  0  0  0  0  0
    3.9113    0.0558    4.0884 C   0  0  1  0  0  0  0  0  0  0  0  0
    3.6815   -1.2375    4.7422 C   0  0  0  0  0  0  0  0  0  0  0  0
    2.8866   -1.7682    5.6930 C   0  0  0  0  0  0  0  0  0  0  0  0
    3.5495   -3.1233    5.6957 C   0  0  0  0  0  0  0  0  0  0  0  0
    4.3629   -2.5671    4.4658 C   0  0  0  0  0  0  0  0  0  0  0  0
    1.7107   -1.3275    6.4122 C   0  0  0  0  0  0  0  0  0  0  0  0
    1.3572   -1.8018    7.5056 O   0  0  0  0  0  0  0  0  0  0  0  0
    0.9018   -0.4629    5.7478 N   0  0  0  0  0  0  0  0  0  0  0  0
   -0.4444   -0.9939    5.4233 C   0  0  0  0  0  0  0  0  0  0  0  0
   -1.3884   -0.0123    4.7776 C   0  0  0  0  0  0  0  0  0  0  0  0
   -4.3134    4.7194    2.0894 H   0  0  0  0  0  0  0  0  0  0  0  0
   -4.4017    3.3973    3.2374 H   0  0  0  0  0  0  0  0  0  0  0  0
   -3.5662    3.1717    1.6906 H   0  0  0  0  0  0  0  0  0  0  0  0
   -2.9778    1.7932    3.6751 H   0  0  0  0  0  0  0  0  0  0  0  0
    1.5335    3.5320    4.8074 H   0  0  0  0  0  0  0  0  0  0  0  0
    1.1868    6.8575    3.5587 H   0  0  0  0  0  0  0  0  0  0  0  0
    1.9059    5.2847    3.2548 H   0  0  0  0  0  0  0  0  0  0  0  0
    1.4886    5.7918    4.9161 H   0  0  0  0  0  0  0  0  0  0  0  0
    2.5436    2.4193    6.2974 H   0  0  0  0  0  0  0  0  0  0  0  0
    3.0421    0.8412    6.7047 H   0  0  0  0  0  0  0  0  0  0  0  0
    3.3161    2.2064    3.9533 H   0  0  0  0  0  0  0  0  0  0  0  0
    5.5746    1.3498    4.4862 H   0  0  0  0  0  0  0  0  0  0  0  0
    4.1383   -0.0458    3.0280 H   0  0  0  0  0  0  0  0  0  0  0  0
    4.2052   -3.3408    6.5424 H   0  0  0  0  0  0  0  0  0  0  0  0
    2.9657   -4.0131    5.4370 H   0  0  0  0  0  0  0  0  0  0  0  0
    4.0508   -3.0481    3.5347 H   0  0  0  0  0  0  0  0  0  0  0  0
    5.4437   -2.6620    4.5933 H   0  0  0  0  0  0  0  0  0  0  0  0
   -0.3313   -1.8257    4.7239 H   0  0  0  0  0  0  0  0  0  0  0  0
   -0.9314   -1.3844    6.3208 H   0  0  0  0  0  0  0  0  0  0  0  0
   -2.3604   -0.3907    4.5115 H   0  0  0  0  0  0  0  0  0  0  0  0
  1  2  1  0
  1 25  1  0
  1 26  1  0
  1 27  1  0
  2  3  1  0
  3  8  1  0
  3  4  2  0
  4  5  1  0
  4 28  1  0
  5 24  2  0
  5  6  1  0
  6  7  1  0
  6 11  2  0
  7  8  2  0
  7 29  1  0
  8  9  1  0
  9 10  1  0
 10 30  1  0
 10 31  1  0
 10 32  1  0
 11 22  1  0
 11 12  1  0
 12 13  1  0
 12 33  1  0
 12 34  1  0
 13 15  1  0
 13 14  1  0
 13 35  1  6
 14 15  1  0
 14 36  1  0
 15 16  1  0
 15 37  1  6
 16 19  1  0
 16 17  2  0
 17 18  1  0
 17 20  1  0
 18 19  1  0
 18 38  1  0
 18 39  1  0
 19 40  1  0
 19 41  1  0
 20 21  2  0
 20 22  1  0
 22 23  1  0
 23 24  1  0
 23 42  1  0
 23 43  1  0
 24 44  1  0
M  END
>  <i_m_ct_stereo_status>  (365) 
1

>  <s_m_source_file>  (365) 
/var/tmp/pbs.5076255.sched01/tmp0q3ly_rt/135fqi89qhj.sdf

>  <i_m_source_file_index>  (365) 
18

>  <i_lp_mmshare_version>  (365) 
48012

>  <i_f3d_flags>  (365) 
0

>  <s_epik_input>  (365) 
W0NIM11PYyhbY0hdMSljKE9bQ0gzXSlbY0hdYyhjMT0yKT1DM04oW0NIMl1bQ0hdMilDKD1PKUM0PUMoW0NIMl1bQ0gyXTQpW0NASF01W0NAQEhdKFtDSDJdMylbTkhdNQ==

>  <s_epik_cmdline>  (365) 
J2VwaWtfcHl0aG9uJywgJy1waHQnLCAnMi4wJywgJy1waCcsICc3LjAnLCAnLXRuJywgJzgnLCAnLW1hJywgJzIwMCcsICctaW1hZScsICc8aW5maWxlLm1hZT4nLCAnLW9tYWUnLCAnPG91dGZpbGUubWFlPic=

>  <r_lp_tautomer_probability>  (365) 
1

>  <r_epik_Ionization_Penalty>  (365) 
1.74195e-05

>  <r_epik_Ionization_Penalty_Charging>  (365) 
0

>  <r_epik_Ionization_Penalty_Neutral>  (365) 
1.74195e-05

>  <r_epik_State_Penalty>  (365) 
-0

>  <r_epik_Charging_Adjusted_Penalty>  (365) 
0

>  <i_epik_Tot_Q>  (365) 
0

>  <i_epik_Tot_abs_Q>  (365) 
0

>  <s_lp_Force_Field>  (365) 
OPLS3e

>  <r_lp_Energy>  (365) 
81.9529

>  <b_lp_Chiralities_Consistent>  (365) 
1

>  <s_lp_Variant>  (365) 
100:0-1

>  <s_i_glide_gridfile>  (365) 
pfpi4k_grid

>  <i_i_glide_lignum>  (365) 
18

>  <i_i_glide_rotatable_bonds>  (365) 
2

>  <r_i_docking_score>  (365) 
-2.92575

>  <r_i_glide_ligand_efficiency>  (365) 
-0.121906

>  <r_i_glide_ligand_efficiency_sa>  (365) 
-0.351638

>  <r_i_glide_ligand_efficiency_ln>  (365) 
-0.700266

>  <r_i_glide_gscore>  (365) 
-2.92575

>  <r_i_glide_lipo>  (365) 
-0.166284

>  <r_i_glide_hbond>  (365) 
-0.124848

>  <r_i_glide_metal>  (365) 
-0

>  <r_i_glide_rewards>  (365) 
-1.19745

>  <r_i_glide_evdw>  (365) 
-19.1538

>  <r_i_glide_ecoul>  (365) 
-3.16781

>  <r_i_glide_erotb>  (365) 
0

>  <r_i_glide_esite>  (365) 
-0.00430416

>  <r_i_glide_emodel>  (365) 
-26.0232

>  <r_i_glide_energy>  (365) 
-22.3216

>  <r_i_glide_einternal>  (365) 
0.588992

>  <r_i_glide_intrahb_reward>  (365) 
-0

>  <i_i_glide_confnum>  (365) 
1

>  <i_i_glide_posenum>  (365) 
21

>  <r_i_glide_eff_state_penalty>  (365) 
0

>  <ligand_id>  (365) 
100

>  <original_smiles>  (365) 
COc1cc2c(cc1OC)=C1CC3NC3C3=C(CC3)C(=O)N1CC=2

>  <smiles>  (365) 
[H]C1=c2c([H])c(OC([H])([H])[H])c(OC([H])([H])[H])c([H])c2=C2N(C(=O)C3=C(C([H])([H])C3([H])[H])C3([H])N([H])C3([H])C2([H])[H])C1([H])[H]

$$$$
101:0:0
     RDKit          3D

 42 46  0  0  1  0  0  0  0  0999 V2000
    4.8433   -4.3602    3.6025 C   0  0  0  0  0  0  0  0  0  0  0  0
    4.7030   -3.9350    2.1392 C   0  0  0  0  0  0  0  0  0  0  0  0
    4.9640   -4.7448    1.1371 C   0  0  0  0  0  0  0  0  0  0  0  0
    6.2102   -4.6799    0.5945 C   0  0  0  0  0  0  0  0  0  0  0  0
    7.3911   -4.3317    1.0664 C   0  0  0  0  0  0  0  0  0  0  0  0
    8.3411   -3.5083    0.2412 C   0  0  0  0  0  0  0  0  0  0  0  0
    8.0856   -1.9966    0.4646 C   0  0  0  0  0  0  0  0  0  0  0  0
    6.8110   -1.4975    1.2391 C   0  0  0  0  0  0  0  0  0  0  0  0
    5.3279   -1.7917    0.9065 C   0  0  2  0  0  0  0  0  0  0  0  0
    4.6518   -2.5506    1.9672 N   0  0  0  0  0  0  0  0  0  0  0  0
    4.8726   -2.0468   -0.5662 C   0  0  2  0  0  0  0  0  0  0  0  0
    5.9659   -2.1733   -1.4417 O   0  0  0  0  0  0  0  0  0  0  0  0
    4.2136   -0.7638   -1.0948 C   0  0  0  0  0  0  0  0  0  0  0  0
    3.7916   -0.8328   -2.5713 C   0  0  0  0  0  0  0  0  0  0  0  0
    2.9995   -2.1026   -2.8943 C   0  0  0  0  0  0  0  0  0  0  0  0
    2.3415   -2.1590   -3.9263 O   0  0  0  0  0  0  0  0  0  0  0  0
    3.0649   -3.2839   -1.9888 C   0  0  2  0  0  0  0  0  0  0  0  0
    2.4990   -3.2122   -0.5980 C   0  0  0  0  0  0  0  0  0  0  0  0
    3.9578   -3.2812   -0.7776 C   0  0  2  0  0  0  0  0  0  0  0  0
    4.5225   -4.6156   -0.3143 C   0  0  1  0  0  0  0  0  0  0  0  0
    5.8585   -4.6569   -0.7457 O   0  0  0  0  0  0  0  0  0  0  0  0
    5.3413   -5.3287    3.6467 H   0  0  0  0  0  0  0  0  0  0  0  0
    3.8563   -4.4577    4.0418 H   0  0  0  0  0  0  0  0  0  0  0  0
    5.4248   -3.6447    4.1778 H   0  0  0  0  0  0  0  0  0  0  0  0
    7.5361   -4.3003    2.1330 H   0  0  0  0  0  0  0  0  0  0  0  0
    9.3673   -3.7623    0.4970 H   0  0  0  0  0  0  0  0  0  0  0  0
    8.2203   -3.7706   -0.8113 H   0  0  0  0  0  0  0  0  0  0  0  0
    8.9636   -1.5924    0.9538 H   0  0  0  0  0  0  0  0  0  0  0  0
    8.1623   -1.4895   -0.4911 H   0  0  0  0  0  0  0  0  0  0  0  0
    6.9096   -1.7802    2.2752 H   0  0  0  0  0  0  0  0  0  0  0  0
    6.8808   -0.4204    1.2664 H   0  0  0  0  0  0  0  0  0  0  0  0
    4.8877   -0.8278    1.1576 H   0  0  0  0  0  0  0  0  0  0  0  0
    4.5298   -2.0227    2.8182 H   0  0  0  0  0  0  0  0  0  0  0  0
    6.2675   -3.0646   -1.3127 H   0  0  0  0  0  0  0  0  0  0  0  0
    3.3601   -0.5533   -0.4544 H   0  0  0  0  0  0  0  0  0  0  0  0
    4.8888    0.0814   -0.9535 H   0  0  0  0  0  0  0  0  0  0  0  0
    3.1941    0.0372   -2.8278 H   0  0  0  0  0  0  0  0  0  0  0  0
    4.6609   -0.8178   -3.2157 H   0  0  0  0  0  0  0  0  0  0  0  0
    2.9705   -4.2397   -2.5094 H   0  0  0  0  0  0  0  0  0  0  0  0
    2.2308   -2.2674   -0.1117 H   0  0  0  0  0  0  0  0  0  0  0  0
    1.9859   -4.1025   -0.2589 H   0  0  0  0  0  0  0  0  0  0  0  0
    3.9774   -5.4745   -0.6960 H   0  0  0  0  0  0  0  0  0  0  0  0
  1  2  1  0
  1 22  1  0
  1 23  1  0
  1 24  1  0
  2 10  1  0
  2  3  2  0
  3 20  1  0
  3  4  1  0
  4 21  1  0
  4  5  2  3
  5  6  1  0
  5 25  1  0
  6  7  1  0
  6 26  1  0
  6 27  1  0
  7  8  1  0
  7 28  1  0
  7 29  1  0
  8  9  1  0
  8 30  1  0
  8 31  1  0
  9 10  1  0
  9 11  1  0
  9 32  1  1
 10 33  1  0
 11 19  1  0
 11 12  1  6
 11 13  1  0
 12 34  1  0
 13 14  1  0
 13 35  1  0
 13 36  1  0
 14 15  1  0
 14 37  1  0
 14 38  1  0
 15 16  2  0
 15 17  1  0
 17 19  1  0
 17 18  1  0
 17 39  1  6
 19 18  1  1
 18 40  1  0
 18 41  1  0
 19 20  1  0
 20 21  1  0
 20 42  1  6
M  END
>  <i_m_ct_stereo_status>  (366) 
1

>  <s_m_source_file>  (366) 
/var/tmp/pbs.5076255.sched01/tmp0q3ly_rt/135fqi89qhj.sdf

>  <i_m_source_file_index>  (366) 
19

>  <i_lp_mmshare_version>  (366) 
48012

>  <i_f3d_flags>  (366) 
1

>  <s_epik_input>  (366) 
W0NIM11DKFtOSF0xKT1DKFtDQEBIXTJPMykvQzM9W0NIXS9bQ0gyXVtDSDJdW0NIMl1bQ0BIXTFbQ0BdKFtDQF0yNDUpKFtPSF0pW0NIMl1bQ0gyXUMoPU8pW0NAQEhdNFtDSDJdNQ==

>  <s_epik_cmdline>  (366) 
J2VwaWtfcHl0aG9uJywgJy1waHQnLCAnMi4wJywgJy1waCcsICc3LjAnLCAnLXRuJywgJzgnLCAnLW1hJywgJzIwMCcsICctaW1hZScsICc8aW5maWxlLm1hZT4nLCAnLW9tYWUnLCAnPG91dGZpbGUubWFlPic=

>  <r_lp_tautomer_probability>  (366) 
1

>  <r_epik_Ionization_Penalty>  (366) 
1.38031e-06

>  <r_epik_Ionization_Penalty_Charging>  (366) 
0

>  <r_epik_Ionization_Penalty_Neutral>  (366) 
1.38031e-06

>  <r_epik_State_Penalty>  (366) 
-0

>  <r_epik_Charging_Adjusted_Penalty>  (366) 
0

>  <i_epik_Tot_Q>  (366) 
0

>  <i_epik_Tot_abs_Q>  (366) 
0

>  <s_lp_Force_Field>  (366) 
OPLS3e

>  <r_lp_Energy>  (366) 
98.1918

>  <b_lp_Chiralities_Consistent>  (366) 
1

>  <s_lp_Variant>  (366) 
101:0-1

>  <s_i_glide_gridfile>  (366) 
pfpi4k_grid

>  <i_i_glide_lignum>  (366) 
19

>  <i_i_glide_rotatable_bonds>  (366) 
1

>  <r_i_docking_score>  (366) 
-3.64596

>  <r_i_glide_ligand_efficiency>  (366) 
-0.173617

>  <r_i_glide_ligand_efficiency_sa>  (366) 
-0.478996

>  <r_i_glide_ligand_efficiency_ln>  (366) 
-0.901456

>  <r_i_glide_gscore>  (366) 
-3.64596

>  <r_i_glide_lipo>  (366) 
-0.74748

>  <r_i_glide_hbond>  (366) 
0

>  <r_i_glide_metal>  (366) 
-0

>  <r_i_glide_rewards>  (366) 
-1.94986

>  <r_i_glide_evdw>  (366) 
-10.3319

>  <r_i_glide_ecoul>  (366) 
-2.76825

>  <r_i_glide_erotb>  (366) 
0

>  <r_i_glide_esite>  (366) 
-0.0167829

>  <r_i_glide_emodel>  (366) 
-17.1432

>  <r_i_glide_energy>  (366) 
-13.1001

>  <r_i_glide_einternal>  (366) 
0.357511

>  <r_i_glide_intrahb_reward>  (366) 
-0.5

>  <i_i_glide_confnum>  (366) 
1

>  <i_i_glide_posenum>  (366) 
7

>  <r_i_glide_eff_state_penalty>  (366) 
0

>  <ligand_id>  (366) 
101

>  <original_smiles>  (366) 
CC1=C2C3=CCCCC(N1)C1(O)CCC(=O)C4CC41C2O3

>  <smiles>  (366) 
[H]OC12C([H])([H])C([H])([H])C(=O)C3([H])C([H])([H])C31C1([H])OC3=C([H])C([H])([H])C([H])([H])C([H])([H])C2([H])N([H])C(C([H])([H])[H])=C31

$$$$
101:0:1
     RDKit          3D

 42 46  0  0  1  0  0  0  0  0999 V2000
    5.1761   -2.9248    3.4930 C   0  0  0  0  0  0  0  0  0  0  0  0
    5.0517   -2.9490    1.9864 C   0  0  0  0  0  0  0  0  0  0  0  0
    5.0573   -4.0891    1.2771 C   0  0  0  0  0  0  0  0  0  0  0  0
    6.2422   -4.5074    0.7786 C   0  0  0  0  0  0  0  0  0  0  0  0
    7.4993   -4.2545    1.1300 C   0  0  0  0  0  0  0  0  0  0  0  0
    8.5289   -3.9963    0.0852 C   0  0  0  0  0  0  0  0  0  0  0  0
    8.6503   -2.4812   -0.1655 C   0  0  0  0  0  0  0  0  0  0  0  0
    7.6097   -1.4687    0.4218 C   0  0  0  0  0  0  0  0  0  0  0  0
    6.0684   -1.4856    0.1590 C   0  0  2  0  0  0  0  0  0  0  0  0
    5.3121   -1.7204    1.3883 N   0  0  0  0  0  0  0  0  0  0  0  0
    5.4407   -2.0574   -1.1586 C   0  0  2  0  0  0  0  0  0  0  0  0
    6.4158   -2.6984   -1.9313 O   0  0  0  0  0  0  0  0  0  0  0  0
    4.9828   -0.8788   -2.0614 C   0  0  0  0  0  0  0  0  0  0  0  0
    4.4159   -1.3105   -3.4178 C   0  0  0  0  0  0  0  0  0  0  0  0
    3.3531   -2.3812   -3.3019 C   0  0  0  0  0  0  0  0  0  0  0  0
    2.6118   -2.5821   -4.2506 O   0  0  0  0  0  0  0  0  0  0  0  0
    3.2832   -3.2425   -2.0921 C   0  0  2  0  0  0  0  0  0  0  0  0
    2.9021   -2.5969   -0.7972 C   0  0  0  0  0  0  0  0  0  0  0  0
    4.2893   -3.0777   -0.9710 C   0  0  2  0  0  0  0  0  0  0  0  0
    4.5710   -4.3135   -0.1312 C   0  0  1  0  0  0  0  0  0  0  0  0
    5.8088   -4.8782   -0.4849 O   0  0  0  0  0  0  0  0  0  0  0  0
    5.4763   -3.9034    3.8629 H   0  0  0  0  0  0  0  0  0  0  0  0
    4.2385   -2.6318    3.9588 H   0  0  0  0  0  0  0  0  0  0  0  0
    5.9201   -2.1981    3.7980 H   0  0  0  0  0  0  0  0  0  0  0  0
    7.7317   -3.8469    2.0749 H   0  0  0  0  0  0  0  0  0  0  0  0
    9.4597   -4.4305    0.4145 H   0  0  0  0  0  0  0  0  0  0  0  0
    8.2761   -4.4956   -0.8377 H   0  0  0  0  0  0  0  0  0  0  0  0
    9.6178   -2.1920    0.2396 H   0  0  0  0  0  0  0  0  0  0  0  0
    8.7718   -2.3117   -1.2350 H   0  0  0  0  0  0  0  0  0  0  0  0
    7.7029   -1.3773    1.4913 H   0  0  0  0  0  0  0  0  0  0  0  0
    7.9851   -0.4987    0.1208 H   0  0  0  0  0  0  0  0  0  0  0  0
    5.8795   -0.4163    0.0750 H   0  0  0  0  0  0  0  0  0  0  0  0
    5.3831   -0.9425    2.0337 H   0  0  0  0  0  0  0  0  0  0  0  0
    6.5775   -3.5213   -1.4919 H   0  0  0  0  0  0  0  0  0  0  0  0
    4.2351   -0.2621   -1.5550 H   0  0  0  0  0  0  0  0  0  0  0  0
    5.8145   -0.2211   -2.2715 H   0  0  0  0  0  0  0  0  0  0  0  0
    4.0500   -0.4448   -3.9739 H   0  0  0  0  0  0  0  0  0  0  0  0
    5.2035   -1.7612   -4.0068 H   0  0  0  0  0  0  0  0  0  0  0  0
    2.8966   -4.2324   -2.2558 H   0  0  0  0  0  0  0  0  0  0  0  0
    2.7133   -1.5321   -0.8354 H   0  0  0  0  0  0  0  0  0  0  0  0
    2.2156   -3.1767   -0.1945 H   0  0  0  0  0  0  0  0  0  0  0  0
    3.7844   -5.0669   -0.1966 H   0  0  0  0  0  0  0  0  0  0  0  0
  1  2  1  0
  1 22  1  0
  1 23  1  0
  1 24  1  0
  2 10  1  0
  2  3  2  0
  3 20  1  0
  3  4  1  0
  4 21  1  0
  4  5  2  3
  5  6  1  0
  5 25  1  0
  6  7  1  0
  6 26  1  0
  6 27  1  0
  7  8  1  0
  7 28  1  0
  7 29  1  0
  8  9  1  0
  8 30  1  0
  8 31  1  0
  9 10  1  0
  9 11  1  0
  9 32  1  6
 10 33  1  0
 11 19  1  0
 11 12  1  6
 11 13  1  0
 12 34  1  0
 13 14  1  0
 13 35  1  0
 13 36  1  0
 14 15  1  0
 14 37  1  0
 14 38  1  0
 15 16  2  0
 15 17  1  0
 17 19  1  0
 17 18  1  0
 17 39  1  6
 19 18  1  1
 18 40  1  0
 18 41  1  0
 19 20  1  0
 20 21  1  0
 20 42  1  1
M  END
>  <i_m_ct_stereo_status>  (367) 
1

>  <s_m_source_file>  (367) 
/var/tmp/pbs.5076255.sched01/tmp0q3ly_rt/135fqi89qhj.sdf

>  <i_m_source_file_index>  (367) 
19

>  <i_lp_mmshare_version>  (367) 
48012

>  <i_f3d_flags>  (367) 
1

>  <s_epik_input>  (367) 
W0NIM11DKFtOSF0xKT1DKFtDQEBIXTJPMykvQzM9W0NIXS9bQ0gyXVtDSDJdW0NIMl1bQ0BIXTFbQ0BdKFtDQF0yNDUpKFtPSF0pW0NIMl1bQ0gyXUMoPU8pW0NAQEhdNFtDSDJdNQ==

>  <s_epik_cmdline>  (367) 
J2VwaWtfcHl0aG9uJywgJy1waHQnLCAnMi4wJywgJy1waCcsICc3LjAnLCAnLXRuJywgJzgnLCAnLW1hJywgJzIwMCcsICctaW1hZScsICc8aW5maWxlLm1hZT4nLCAnLW9tYWUnLCAnPG91dGZpbGUubWFlPic=

>  <r_lp_tautomer_probability>  (367) 
1

>  <r_epik_Ionization_Penalty>  (367) 
1.38031e-06

>  <r_epik_Ionization_Penalty_Charging>  (367) 
0

>  <r_epik_Ionization_Penalty_Neutral>  (367) 
1.38031e-06

>  <r_epik_State_Penalty>  (367) 
-0

>  <r_epik_Charging_Adjusted_Penalty>  (367) 
0

>  <i_epik_Tot_Q>  (367) 
0

>  <i_epik_Tot_abs_Q>  (367) 
0

>  <s_lp_Force_Field>  (367) 
OPLS3e

>  <r_lp_Energy>  (367) 
98.1918

>  <b_lp_Chiralities_Consistent>  (367) 
1

>  <s_lp_Variant>  (367) 
101:0-1

>  <s_i_glide_gridfile>  (367) 
pfpi4k_grid

>  <i_i_glide_lignum>  (367) 
19

>  <i_i_glide_rotatable_bonds>  (367) 
1

>  <r_i_docking_score>  (367) 
-3.4447

>  <r_i_glide_ligand_efficiency>  (367) 
-0.164033

>  <r_i_glide_ligand_efficiency_sa>  (367) 
-0.452555

>  <r_i_glide_ligand_efficiency_ln>  (367) 
-0.851695

>  <r_i_glide_gscore>  (367) 
-3.4447

>  <r_i_glide_lipo>  (367) 
-0.550633

>  <r_i_glide_hbond>  (367) 
0

>  <r_i_glide_metal>  (367) 
-0

>  <r_i_glide_rewards>  (367) 
-2.1441

>  <r_i_glide_evdw>  (367) 
-12.3197

>  <r_i_glide_ecoul>  (367) 
-0.893231

>  <r_i_glide_erotb>  (367) 
0

>  <r_i_glide_esite>  (367) 
0

>  <r_i_glide_emodel>  (367) 
-18.1589

>  <r_i_glide_energy>  (367) 
-13.2129

>  <r_i_glide_einternal>  (367) 
0.0833477

>  <r_i_glide_intrahb_reward>  (367) 
-0.5

>  <i_i_glide_confnum>  (367) 
1

>  <i_i_glide_posenum>  (367) 
15

>  <r_i_glide_eff_state_penalty>  (367) 
0

>  <ligand_id>  (367) 
101

>  <original_smiles>  (367) 
CC1=C2C3=CCCCC(N1)C1(O)CCC(=O)C4CC41C2O3

>  <smiles>  (367) 
[H]OC12C([H])([H])C([H])([H])C(=O)C3([H])C([H])([H])C31C1([H])OC3=C([H])C([H])([H])C([H])([H])C([H])([H])C2([H])N([H])C(C([H])([H])[H])=C31

$$$$
101:0:2
     RDKit          3D

 42 46  0  0  1  0  0  0  0  0999 V2000
    4.3250   -3.5652    3.7595 C   0  0  0  0  0  0  0  0  0  0  0  0
    4.3217   -3.5770    2.2438 C   0  0  0  0  0  0  0  0  0  0  0  0
    4.0389   -4.6903    1.5342 C   0  0  0  0  0  0  0  0  0  0  0  0
    5.0683   -5.4852    1.1796 C   0  0  0  0  0  0  0  0  0  0  0  0
    6.2959   -5.6397    1.6719 C   0  0  0  0  0  0  0  0  0  0  0  0
    7.4579   -5.7601    0.7291 C   0  0  0  0  0  0  0  0  0  0  0  0
    8.0794   -4.3688    0.4435 C   0  0  0  0  0  0  0  0  0  0  0  0
    7.3480   -3.0672    0.9056 C   0  0  0  0  0  0  0  0  0  0  0  0
    5.9157   -2.5724    0.5246 C   0  0  2  0  0  0  0  0  0  0  0  0
    5.0057   -2.5099    1.6799 N   0  0  0  0  0  0  0  0  0  0  0  0
    5.2630   -2.9392   -0.8454 C   0  0  2  0  0  0  0  0  0  0  0  0
    6.0606   -3.8527   -1.5300 O   0  0  0  0  0  0  0  0  0  0  0  0
    5.3135   -1.7148   -1.7894 C   0  0  0  0  0  0  0  0  0  0  0  0
    4.7781   -2.0051   -3.1999 C   0  0  0  0  0  0  0  0  0  0  0  0
    3.4142   -2.6660   -3.2163 C   0  0  0  0  0  0  0  0  0  0  0  0
    2.7421   -2.5973   -4.2367 O   0  0  0  0  0  0  0  0  0  0  0  0
    2.9367   -3.4403   -2.0134 C   0  0  2  0  0  0  0  0  0  0  0  0
    2.6484   -2.6650   -0.7781 C   0  0  0  0  0  0  0  0  0  0  0  0
    3.8434   -3.5614   -0.8028 C   0  0  2  0  0  0  0  0  0  0  0  0
    3.6511   -4.8006    0.0768 C   0  0  1  0  0  0  0  0  0  0  0  0
    4.6655   -5.7754   -0.1301 O   0  0  0  0  0  0  0  0  0  0  0  0
    4.2200   -4.5786    4.1428 H   0  0  0  0  0  0  0  0  0  0  0  0
    3.4897   -2.9711    4.1298 H   0  0  0  0  0  0  0  0  0  0  0  0
    5.2505   -3.1441    4.1553 H   0  0  0  0  0  0  0  0  0  0  0  0
    6.5438   -5.2808    2.6635 H   0  0  0  0  0  0  0  0  0  0  0  0
    8.1972   -6.4688    1.0933 H   0  0  0  0  0  0  0  0  0  0  0  0
    7.0964   -6.1829   -0.2017 H   0  0  0  0  0  0  0  0  0  0  0  0
    9.0357   -4.3677    0.9637 H   0  0  0  0  0  0  0  0  0  0  0  0
    8.3472   -4.2724   -0.6057 H   0  0  0  0  0  0  0  0  0  0  0  0
    7.3156   -3.1411    1.9848 H   0  0  0  0  0  0  0  0  0  0  0  0
    8.0364   -2.2453    0.7070 H   0  0  0  0  0  0  0  0  0  0  0  0
    6.0929   -1.4985    0.4492 H   0  0  0  0  0  0  0  0  0  0  0  0
    5.2613   -1.7863    2.3444 H   0  0  0  0  0  0  0  0  0  0  0  0
    5.5149   -4.2437   -2.1877 H   0  0  0  0  0  0  0  0  0  0  0  0
    4.7965   -0.8343   -1.3791 H   0  0  0  0  0  0  0  0  0  0  0  0
    6.3594   -1.4310   -1.8975 H   0  0  0  0  0  0  0  0  0  0  0  0
    4.7449   -1.0926   -3.7881 H   0  0  0  0  0  0  0  0  0  0  0  0
    5.4529   -2.6797   -3.7170 H   0  0  0  0  0  0  0  0  0  0  0  0
    2.2502   -4.2422   -2.2347 H   0  0  0  0  0  0  0  0  0  0  0  0
    2.8243   -1.5899   -0.8282 H   0  0  0  0  0  0  0  0  0  0  0  0
    1.8083   -2.9954   -0.1929 H   0  0  0  0  0  0  0  0  0  0  0  0
    2.6602   -5.2466   -0.0566 H   0  0  0  0  0  0  0  0  0  0  0  0
  1  2  1  0
  1 22  1  0
  1 23  1  0
  1 24  1  0
  2 10  1  0
  2  3  2  0
  3 20  1  0
  3  4  1  0
  4 21  1  0
  4  5  2  3
  5  6  1  0
  5 25  1  0
  6  7  1  0
  6 26  1  0
  6 27  1  0
  7  8  1  0
  7 28  1  0
  7 29  1  0
  8  9  1  0
  8 30  1  0
  8 31  1  0
  9 10  1  0
  9 11  1  0
  9 32  1  6
 10 33  1  0
 11 19  1  0
 11 12  1  6
 11 13  1  0
 12 34  1  0
 13 14  1  0
 13 35  1  0
 13 36  1  0
 14 15  1  0
 14 37  1  0
 14 38  1  0
 15 16  2  0
 15 17  1  0
 17 19  1  0
 17 18  1  0
 17 39  1  6
 19 18  1  1
 18 40  1  0
 18 41  1  0
 19 20  1  0
 20 21  1  0
 20 42  1  1
M  END
>  <i_m_ct_stereo_status>  (368) 
1

>  <s_m_source_file>  (368) 
/var/tmp/pbs.5076255.sched01/tmp0q3ly_rt/135fqi89qhj.sdf

>  <i_m_source_file_index>  (368) 
19

>  <i_lp_mmshare_version>  (368) 
48012

>  <i_f3d_flags>  (368) 
1

>  <s_epik_input>  (368) 
W0NIM11DKFtOSF0xKT1DKFtDQEBIXTJPMykvQzM9W0NIXS9bQ0gyXVtDSDJdW0NIMl1bQ0BIXTFbQ0BdKFtDQF0yNDUpKFtPSF0pW0NIMl1bQ0gyXUMoPU8pW0NAQEhdNFtDSDJdNQ==

>  <s_epik_cmdline>  (368) 
J2VwaWtfcHl0aG9uJywgJy1waHQnLCAnMi4wJywgJy1waCcsICc3LjAnLCAnLXRuJywgJzgnLCAnLW1hJywgJzIwMCcsICctaW1hZScsICc8aW5maWxlLm1hZT4nLCAnLW9tYWUnLCAnPG91dGZpbGUubWFlPic=

>  <r_lp_tautomer_probability>  (368) 
1

>  <r_epik_Ionization_Penalty>  (368) 
1.38031e-06

>  <r_epik_Ionization_Penalty_Charging>  (368) 
0

>  <r_epik_Ionization_Penalty_Neutral>  (368) 
1.38031e-06

>  <r_epik_State_Penalty>  (368) 
-0

>  <r_epik_Charging_Adjusted_Penalty>  (368) 
0

>  <i_epik_Tot_Q>  (368) 
0

>  <i_epik_Tot_abs_Q>  (368) 
0

>  <s_lp_Force_Field>  (368) 
OPLS3e

>  <r_lp_Energy>  (368) 
98.1918

>  <b_lp_Chiralities_Consistent>  (368) 
1

>  <s_lp_Variant>  (368) 
101:0-1

>  <s_i_glide_gridfile>  (368) 
pfpi4k_grid

>  <i_i_glide_lignum>  (368) 
19

>  <i_i_glide_rotatable_bonds>  (368) 
1

>  <r_i_docking_score>  (368) 
-3.00092

>  <r_i_glide_ligand_efficiency>  (368) 
-0.142901

>  <r_i_glide_ligand_efficiency_sa>  (368) 
-0.394253

>  <r_i_glide_ligand_efficiency_ln>  (368) 
-0.741972

>  <r_i_glide_gscore>  (368) 
-3.00092

>  <r_i_glide_lipo>  (368) 
-0.67028

>  <r_i_glide_hbond>  (368) 
-0.0300346

>  <r_i_glide_metal>  (368) 
-0

>  <r_i_glide_rewards>  (368) 
-1.59697

>  <r_i_glide_evdw>  (368) 
-11.9033

>  <r_i_glide_ecoul>  (368) 
-0.723112

>  <r_i_glide_erotb>  (368) 
0

>  <r_i_glide_esite>  (368) 
0

>  <r_i_glide_emodel>  (368) 
-12.1826

>  <r_i_glide_energy>  (368) 
-12.6264

>  <r_i_glide_einternal>  (368) 
0.149246

>  <r_i_glide_intrahb_reward>  (368) 
-0

>  <i_i_glide_confnum>  (368) 
1

>  <i_i_glide_posenum>  (368) 
31

>  <r_i_glide_eff_state_penalty>  (368) 
0

>  <ligand_id>  (368) 
101

>  <original_smiles>  (368) 
CC1=C2C3=CCCCC(N1)C1(O)CCC(=O)C4CC41C2O3

>  <smiles>  (368) 
[H]OC12C([H])([H])C([H])([H])C(=O)C3([H])C([H])([H])C31C1([H])OC3=C([H])C([H])([H])C([H])([H])C([H])([H])C2([H])N([H])C(C([H])([H])[H])=C31

$$$$
101:1:0
     RDKit          3D

 42 46  0  0  1  0  0  0  0  0999 V2000
    6.2976   -5.6658    2.2161 C   0  0  0  0  0  0  0  0  0  0  0  0
    5.8381   -4.7723    1.0791 C   0  0  0  0  0  0  0  0  0  0  0  0
    6.1942   -3.4819    0.9520 C   0  0  0  0  0  0  0  0  0  0  0  0
    5.6192   -2.4572    1.5974 C   0  0  0  0  0  0  0  0  0  0  0  0
    4.7431   -2.2815    2.6077 C   0  0  0  0  0  0  0  0  0  0  0  0
    3.9179   -3.3785    3.2668 C   0  0  0  0  0  0  0  0  0  0  0  0
    2.6222   -3.6830    2.4732 C   0  0  0  0  0  0  0  0  0  0  0  0
    2.6563   -4.7151    1.3058 C   0  0  0  0  0  0  0  0  0  0  0  0
    3.6067   -4.5916    0.0750 C   0  0  2  0  0  0  0  0  0  0  0  0
    4.8606   -5.3025    0.2860 N   0  0  0  0  0  0  0  0  0  0  0  0
    3.6684   -3.2569   -0.7772 C   0  0  2  0  0  0  0  0  0  0  0  0
    3.1389   -2.1703   -0.0352 O   0  0  0  0  0  0  0  0  0  0  0  0
    2.6462   -3.3269   -1.9424 C   0  0  0  0  0  0  0  0  0  0  0  0
    2.6074   -2.1054   -2.8631 C   0  0  0  0  0  0  0  0  0  0  0  0
    3.9758   -1.7355   -3.3921 C   0  0  0  0  0  0  0  0  0  0  0  0
    4.0906   -1.1498   -4.4646 O   0  0  0  0  0  0  0  0  0  0  0  0
    5.1717   -2.0501   -2.5555 C   0  0  2  0  0  0  0  0  0  0  0  0
    5.6428   -3.4823   -2.5738 C   0  0  0  0  0  0  0  0  0  0  0  0
    5.0847   -2.8717   -1.3026 C   0  0  2  0  0  0  0  0  0  0  0  0
    6.1624   -2.5838   -0.2369 C   0  0  1  0  0  0  0  0  0  0  0  0
    5.8944   -1.4689    0.6476 O   0  0  0  0  0  0  0  0  0  0  0  0
    6.7628   -5.0716    2.9984 H   0  0  0  0  0  0  0  0  0  0  0  0
    7.0404   -6.3766    1.8508 H   0  0  0  0  0  0  0  0  0  0  0  0
    5.4722   -6.2346    2.6482 H   0  0  0  0  0  0  0  0  0  0  0  0
    4.3863   -1.2780    2.7706 H   0  0  0  0  0  0  0  0  0  0  0  0
    4.4958   -4.2752    3.4471 H   0  0  0  0  0  0  0  0  0  0  0  0
    3.6358   -2.9985    4.2504 H   0  0  0  0  0  0  0  0  0  0  0  0
    1.9142   -4.0906    3.1866 H   0  0  0  0  0  0  0  0  0  0  0  0
    2.1455   -2.7582    2.1490 H   0  0  0  0  0  0  0  0  0  0  0  0
    2.7699   -5.7138    1.7296 H   0  0  0  0  0  0  0  0  0  0  0  0
    1.6571   -4.7443    0.8834 H   0  0  0  0  0  0  0  0  0  0  0  0
    3.1649   -5.2971   -0.6217 H   0  0  0  0  0  0  0  0  0  0  0  0
    4.7074   -6.2880    0.4402 H   0  0  0  0  0  0  0  0  0  0  0  0
    2.3450   -1.8417   -0.4574 H   0  0  0  0  0  0  0  0  0  0  0  0
    2.8765   -4.1525   -2.6029 H   0  0  0  0  0  0  0  0  0  0  0  0
    1.6438   -3.5312   -1.5614 H   0  0  0  0  0  0  0  0  0  0  0  0
    1.9371   -2.2831   -3.7068 H   0  0  0  0  0  0  0  0  0  0  0  0
    2.2205   -1.2448   -2.3248 H   0  0  0  0  0  0  0  0  0  0  0  0
    5.8791   -1.2474   -2.4558 H   0  0  0  0  0  0  0  0  0  0  0  0
    5.0392   -4.2109   -3.1081 H   0  0  0  0  0  0  0  0  0  0  0  0
    6.7146   -3.6248   -2.6240 H   0  0  0  0  0  0  0  0  0  0  0  0
    7.1621   -2.4289   -0.6558 H   0  0  0  0  0  0  0  0  0  0  0  0
  1  2  1  0
  1 22  1  0
  1 23  1  0
  1 24  1  0
  2 10  1  0
  2  3  2  0
  3 20  1  0
  3  4  1  0
  4 21  1  0
  4  5  2  3
  5  6  1  0
  5 25  1  0
  6  7  1  0
  6 26  1  0
  6 27  1  0
  7  8  1  0
  7 28  1  0
  7 29  1  0
  8  9  1  0
  8 30  1  0
  8 31  1  0
  9 10  1  0
  9 11  1  0
  9 32  1  6
 10 33  1  0
 11 19  1  0
 11 12  1  1
 11 13  1  0
 12 34  1  0
 13 14  1  0
 13 35  1  0
 13 36  1  0
 14 15  1  0
 14 37  1  0
 14 38  1  0
 15 16  2  0
 15 17  1  0
 17 19  1  0
 17 18  1  0
 17 39  1  1
 19 18  1  6
 18 40  1  0
 18 41  1  0
 19 20  1  0
 20 21  1  0
 20 42  1  6
M  END
>  <i_m_ct_stereo_status>  (369) 
1

>  <s_m_source_file>  (369) 
/var/tmp/pbs.5076255.sched01/tmp0q3ly_rt/135fqi89qhj.sdf

>  <i_m_source_file_index>  (369) 
20

>  <i_lp_mmshare_version>  (369) 
48012

>  <i_f3d_flags>  (369) 
0

>  <s_epik_input>  (369) 
W0NIM11DKFtOSF0xKT1DKFtDQEBIXTJPMykvQzM9W0NIXS9bQ0gyXVtDSDJdW0NIMl1bQ0BIXTFbQ0BdKFtDQF0yNDUpKFtPSF0pW0NIMl1bQ0gyXUMoPU8pW0NAQEhdNFtDSDJdNQ==

>  <s_epik_cmdline>  (369) 
J2VwaWtfcHl0aG9uJywgJy1waHQnLCAnMi4wJywgJy1waCcsICc3LjAnLCAnLXRuJywgJzgnLCAnLW1hJywgJzIwMCcsICctaW1hZScsICc8aW5maWxlLm1hZT4nLCAnLW9tYWUnLCAnPG91dGZpbGUubWFlPic=

>  <r_lp_tautomer_probability>  (369) 
1

>  <r_epik_Ionization_Penalty>  (369) 
1.38031e-06

>  <r_epik_Ionization_Penalty_Charging>  (369) 
0

>  <r_epik_Ionization_Penalty_Neutral>  (369) 
1.38031e-06

>  <r_epik_State_Penalty>  (369) 
-0

>  <r_epik_Charging_Adjusted_Penalty>  (369) 
0

>  <i_epik_Tot_Q>  (369) 
0

>  <i_epik_Tot_abs_Q>  (369) 
0

>  <s_lp_Force_Field>  (369) 
OPLS3e

>  <r_lp_Energy>  (369) 
75.5524

>  <b_lp_Chiralities_Consistent>  (369) 
1

>  <s_lp_Variant>  (369) 
101:0-2

>  <s_i_glide_gridfile>  (369) 
pfpi4k_grid

>  <i_i_glide_lignum>  (369) 
20

>  <i_i_glide_rotatable_bonds>  (369) 
1

>  <r_i_docking_score>  (369) 
-4.56751

>  <r_i_glide_ligand_efficiency>  (369) 
-0.217501

>  <r_i_glide_ligand_efficiency_sa>  (369) 
-0.600068

>  <r_i_glide_ligand_efficiency_ln>  (369) 
-1.12931

>  <r_i_glide_gscore>  (369) 
-4.56751

>  <r_i_glide_lipo>  (369) 
-0.775383

>  <r_i_glide_hbond>  (369) 
-0.254929

>  <r_i_glide_metal>  (369) 
-0

>  <r_i_glide_rewards>  (369) 
-1.67177

>  <r_i_glide_evdw>  (369) 
-20.5494

>  <r_i_glide_ecoul>  (369) 
-5.58644

>  <r_i_glide_erotb>  (369) 
0

>  <r_i_glide_esite>  (369) 
0

>  <r_i_glide_emodel>  (369) 
-33.0127

>  <r_i_glide_energy>  (369) 
-26.1358

>  <r_i_glide_einternal>  (369) 
1.22325

>  <r_i_glide_intrahb_reward>  (369) 
-0

>  <i_i_glide_confnum>  (369) 
2

>  <i_i_glide_posenum>  (369) 
40

>  <r_i_glide_eff_state_penalty>  (369) 
0

>  <ligand_id>  (369) 
101

>  <original_smiles>  (369) 
CC1=C2C3=CCCCC(N1)C1(O)CCC(=O)C4CC41C2O3

>  <smiles>  (369) 
[H]OC12C([H])([H])C([H])([H])C(=O)C3([H])C([H])([H])C31C1([H])OC3=C([H])C([H])([H])C([H])([H])C([H])([H])C2([H])N([H])C(C([H])([H])[H])=C31

$$$$
101:1:1
     RDKit          3D

 42 46  0  0  1  0  0  0  0  0999 V2000
    4.3322   -3.5667    4.1851 C   0  0  0  0  0  0  0  0  0  0  0  0
    4.2514   -3.3999    2.6783 C   0  0  0  0  0  0  0  0  0  0  0  0
    3.2287   -3.8585    1.9412 C   0  0  0  0  0  0  0  0  0  0  0  0
    3.0761   -5.1326    1.5215 C   0  0  0  0  0  0  0  0  0  0  0  0
    3.6531   -6.3270    1.7407 C   0  0  0  0  0  0  0  0  0  0  0  0
    4.9204   -6.5580    2.5454 C   0  0  0  0  0  0  0  0  0  0  0  0
    6.1888   -6.3596    1.6809 C   0  0  0  0  0  0  0  0  0  0  0  0
    6.8174   -4.9402    1.5149 C   0  0  0  0  0  0  0  0  0  0  0  0
    6.0290   -3.6845    0.9997 C   0  0  2  0  0  0  0  0  0  0  0  0
    5.4000   -2.9372    2.0844 N   0  0  0  0  0  0  0  0  0  0  0  0
    5.2354   -3.7339   -0.3677 C   0  0  2  0  0  0  0  0  0  0  0  0
    5.0109   -5.0747   -0.7344 O   0  0  0  0  0  0  0  0  0  0  0  0
    6.1708   -3.2482   -1.5070 C   0  0  0  0  0  0  0  0  0  0  0  0
    5.5267   -3.3204   -2.9001 C   0  0  0  0  0  0  0  0  0  0  0  0
    4.2079   -2.5541   -2.9870 C   0  0  0  0  0  0  0  0  0  0  0  0
    3.8762   -2.0470   -4.0555 O   0  0  0  0  0  0  0  0  0  0  0  0
    3.3541   -2.4483   -1.7506 C   0  0  2  0  0  0  0  0  0  0  0  0
    3.8258   -1.4985   -0.6705 C   0  0  0  0  0  0  0  0  0  0  0  0
    3.8623   -2.9876   -0.4163 C   0  0  2  0  0  0  0  0  0  0  0  0
    2.7766   -3.4930    0.5632 C   0  0  1  0  0  0  0  0  0  0  0  0
    2.3187   -4.8445    0.3773 O   0  0  0  0  0  0  0  0  0  0  0  0
    3.5741   -4.2626    4.5370 H   0  0  0  0  0  0  0  0  0  0  0  0
    4.1516   -2.6105    4.6688 H   0  0  0  0  0  0  0  0  0  0  0  0
    5.3079   -3.9231    4.5053 H   0  0  0  0  0  0  0  0  0  0  0  0
    3.3533   -7.1416    1.0967 H   0  0  0  0  0  0  0  0  0  0  0  0
    4.9518   -5.9700    3.4512 H   0  0  0  0  0  0  0  0  0  0  0  0
    4.8847   -7.5967    2.8659 H   0  0  0  0  0  0  0  0  0  0  0  0
    6.9716   -6.9570    2.1405 H   0  0  0  0  0  0  0  0  0  0  0  0
    6.0591   -6.8179    0.7028 H   0  0  0  0  0  0  0  0  0  0  0  0
    7.2716   -4.6764    2.4672 H   0  0  0  0  0  0  0  0  0  0  0  0
    7.6722   -5.0568    0.8418 H   0  0  0  0  0  0  0  0  0  0  0  0
    6.8326   -2.9787    0.7973 H   0  0  0  0  0  0  0  0  0  0  0  0
    6.0803   -2.5982    2.7506 H   0  0  0  0  0  0  0  0  0  0  0  0
    4.4096   -5.1098   -1.4624 H   0  0  0  0  0  0  0  0  0  0  0  0
    6.5168   -2.2288   -1.3180 H   0  0  0  0  0  0  0  0  0  0  0  0
    7.0772   -3.8445   -1.5145 H   0  0  0  0  0  0  0  0  0  0  0  0
    6.2308   -2.9059   -3.6077 H   0  0  0  0  0  0  0  0  0  0  0  0
    5.3488   -4.3501   -3.1953 H   0  0  0  0  0  0  0  0  0  0  0  0
    2.2805   -2.5359   -1.9176 H   0  0  0  0  0  0  0  0  0  0  0  0
    4.7598   -0.9657   -0.8292 H   0  0  0  0  0  0  0  0  0  0  0  0
    3.0521   -0.9248   -0.1698 H   0  0  0  0  0  0  0  0  0  0  0  0
    1.9066   -2.8333    0.5708 H   0  0  0  0  0  0  0  0  0  0  0  0
  1  2  1  0
  1 22  1  0
  1 23  1  0
  1 24  1  0
  2 10  1  0
  2  3  2  0
  3 20  1  0
  3  4  1  0
  4 21  1  0
  4  5  2  3
  5  6  1  0
  5 25  1  0
  6  7  1  0
  6 26  1  0
  6 27  1  0
  7  8  1  0
  7 28  1  0
  7 29  1  0
  8  9  1  0
  8 30  1  0
  8 31  1  0
  9 10  1  0
  9 11  1  0
  9 32  1  6
 10 33  1  0
 11 19  1  0
 11 12  1  6
 11 13  1  0
 12 34  1  0
 13 14  1  0
 13 35  1  0
 13 36  1  0
 14 15  1  0
 14 37  1  0
 14 38  1  0
 15 16  2  0
 15 17  1  0
 17 19  1  0
 17 18  1  0
 17 39  1  6
 19 18  1  1
 18 40  1  0
 18 41  1  0
 19 20  1  0
 20 21  1  0
 20 42  1  1
M  END
>  <i_m_ct_stereo_status>  (370) 
1

>  <s_m_source_file>  (370) 
/var/tmp/pbs.5076255.sched01/tmp0q3ly_rt/135fqi89qhj.sdf

>  <i_m_source_file_index>  (370) 
20

>  <i_lp_mmshare_version>  (370) 
48012

>  <i_f3d_flags>  (370) 
0

>  <s_epik_input>  (370) 
W0NIM11DKFtOSF0xKT1DKFtDQEBIXTJPMykvQzM9W0NIXS9bQ0gyXVtDSDJdW0NIMl1bQ0BIXTFbQ0BdKFtDQF0yNDUpKFtPSF0pW0NIMl1bQ0gyXUMoPU8pW0NAQEhdNFtDSDJdNQ==

>  <s_epik_cmdline>  (370) 
J2VwaWtfcHl0aG9uJywgJy1waHQnLCAnMi4wJywgJy1waCcsICc3LjAnLCAnLXRuJywgJzgnLCAnLW1hJywgJzIwMCcsICctaW1hZScsICc8aW5maWxlLm1hZT4nLCAnLW9tYWUnLCAnPG91dGZpbGUubWFlPic=

>  <r_lp_tautomer_probability>  (370) 
1

>  <r_epik_Ionization_Penalty>  (370) 
1.38031e-06

>  <r_epik_Ionization_Penalty_Charging>  (370) 
0

>  <r_epik_Ionization_Penalty_Neutral>  (370) 
1.38031e-06

>  <r_epik_State_Penalty>  (370) 
-0

>  <r_epik_Charging_Adjusted_Penalty>  (370) 
0

>  <i_epik_Tot_Q>  (370) 
0

>  <i_epik_Tot_abs_Q>  (370) 
0

>  <s_lp_Force_Field>  (370) 
OPLS3e

>  <r_lp_Energy>  (370) 
75.5524

>  <b_lp_Chiralities_Consistent>  (370) 
1

>  <s_lp_Variant>  (370) 
101:0-2

>  <s_i_glide_gridfile>  (370) 
pfpi4k_grid

>  <i_i_glide_lignum>  (370) 
20

>  <i_i_glide_rotatable_bonds>  (370) 
1

>  <r_i_docking_score>  (370) 
-4.42913

>  <r_i_glide_ligand_efficiency>  (370) 
-0.210911

>  <r_i_glide_ligand_efficiency_sa>  (370) 
-0.581887

>  <r_i_glide_ligand_efficiency_ln>  (370) 
-1.09509

>  <r_i_glide_gscore>  (370) 
-4.42913

>  <r_i_glide_lipo>  (370) 
-0.714697

>  <r_i_glide_hbond>  (370) 
-0.229991

>  <r_i_glide_metal>  (370) 
-0

>  <r_i_glide_rewards>  (370) 
-1.61319

>  <r_i_glide_evdw>  (370) 
-23.5633

>  <r_i_glide_ecoul>  (370) 
-4.62057

>  <r_i_glide_erotb>  (370) 
0

>  <r_i_glide_esite>  (370) 
0

>  <r_i_glide_emodel>  (370) 
-35.4505

>  <r_i_glide_energy>  (370) 
-28.1839

>  <r_i_glide_einternal>  (370) 
0.0773559

>  <r_i_glide_intrahb_reward>  (370) 
-0

>  <i_i_glide_confnum>  (370) 
2

>  <i_i_glide_posenum>  (370) 
30

>  <r_i_glide_eff_state_penalty>  (370) 
0

>  <ligand_id>  (370) 
101

>  <original_smiles>  (370) 
CC1=C2C3=CCCCC(N1)C1(O)CCC(=O)C4CC41C2O3

>  <smiles>  (370) 
[H]OC12C([H])([H])C([H])([H])C(=O)C3([H])C([H])([H])C31C1([H])OC3=C([H])C([H])([H])C([H])([H])C([H])([H])C2([H])N([H])C(C([H])([H])[H])=C31

$$$$
101:1:2
     RDKit          3D

 42 46  0  0  1  0  0  0  0  0999 V2000
    6.5690   -5.4083    2.4369 C   0  0  0  0  0  0  0  0  0  0  0  0
    6.0487   -4.4448    1.3799 C   0  0  0  0  0  0  0  0  0  0  0  0
    5.9047   -3.1265    1.5473 C   0  0  0  0  0  0  0  0  0  0  0  0
    4.8460   -2.5487    2.1700 C   0  0  0  0  0  0  0  0  0  0  0  0
    3.8004   -2.9346    2.9010 C   0  0  0  0  0  0  0  0  0  0  0  0
    3.3430   -4.3708    3.1194 C   0  0  0  0  0  0  0  0  0  0  0  0
    2.4696   -4.8763    1.9484 C   0  0  0  0  0  0  0  0  0  0  0  0
    3.1179   -5.4942    0.6702 C   0  0  0  0  0  0  0  0  0  0  0  0
    4.1988   -4.7506   -0.1932 C   0  0  2  0  0  0  0  0  0  0  0  0
    5.5505   -5.0452    0.2629 N   0  0  0  0  0  0  0  0  0  0  0  0
    3.9287   -3.2954   -0.7661 C   0  0  2  0  0  0  0  0  0  0  0  0
    2.8510   -2.7091   -0.0609 O   0  0  0  0  0  0  0  0  0  0  0  0
    3.2999   -3.4237   -2.1837 C   0  0  0  0  0  0  0  0  0  0  0  0
    2.9652   -2.0904   -2.8676 C   0  0  0  0  0  0  0  0  0  0  0  0
    4.1487   -1.1568   -2.9052 C   0  0  0  0  0  0  0  0  0  0  0  0
    4.2137   -0.3250   -3.8052 O   0  0  0  0  0  0  0  0  0  0  0  0
    5.2068   -1.2488   -1.8418 C   0  0  2  0  0  0  0  0  0  0  0  0
    6.1541   -2.4254   -1.9244 C   0  0  0  0  0  0  0  0  0  0  0  0
    5.1563   -2.3372   -0.7903 C   0  0  2  0  0  0  0  0  0  0  0  0
    5.7802   -1.9946    0.5741 C   0  0  1  0  0  0  0  0  0  0  0  0
    4.9251   -1.3130    1.4979 O   0  0  0  0  0  0  0  0  0  0  0  0
    6.5854   -4.9232    3.4061 H   0  0  0  0  0  0  0  0  0  0  0  0
    7.5901   -5.7065    2.1987 H   0  0  0  0  0  0  0  0  0  0  0  0
    5.9535   -6.3038    2.5126 H   0  0  0  0  0  0  0  0  0  0  0  0
    3.0526   -2.1764    3.1095 H   0  0  0  0  0  0  0  0  0  0  0  0
    4.1736   -5.0327    3.3123 H   0  0  0  0  0  0  0  0  0  0  0  0
    2.7355   -4.3601    4.0223 H   0  0  0  0  0  0  0  0  0  0  0  0
    1.8285   -5.6550    2.3532 H   0  0  0  0  0  0  0  0  0  0  0  0
    1.7837   -4.0869    1.6636 H   0  0  0  0  0  0  0  0  0  0  0  0
    3.5126   -6.4756    0.9426 H   0  0  0  0  0  0  0  0  0  0  0  0
    2.2980   -5.7324   -0.0102 H   0  0  0  0  0  0  0  0  0  0  0  0
    4.2424   -5.3694   -1.0877 H   0  0  0  0  0  0  0  0  0  0  0  0
    5.7468   -6.0347    0.2157 H   0  0  0  0  0  0  0  0  0  0  0  0
    2.4667   -1.9982   -0.5653 H   0  0  0  0  0  0  0  0  0  0  0  0
    3.9590   -3.9715   -2.8558 H   0  0  0  0  0  0  0  0  0  0  0  0
    2.3632   -3.9723   -2.1130 H   0  0  0  0  0  0  0  0  0  0  0  0
    2.5935   -2.2638   -3.8738 H   0  0  0  0  0  0  0  0  0  0  0  0
    2.1670   -1.5881   -2.3403 H   0  0  0  0  0  0  0  0  0  0  0  0
    5.5912   -0.3087   -1.4819 H   0  0  0  0  0  0  0  0  0  0  0  0
    5.9904   -3.1425   -2.7184 H   0  0  0  0  0  0  0  0  0  0  0  0
    7.1931   -2.2312   -1.6745 H   0  0  0  0  0  0  0  0  0  0  0  0
    6.7068   -1.4282    0.5000 H   0  0  0  0  0  0  0  0  0  0  0  0
  1  2  1  0
  1 22  1  0
  1 23  1  0
  1 24  1  0
  2 10  1  0
  2  3  2  0
  3 20  1  0
  3  4  1  0
  4 21  1  0
  4  5  2  3
  5  6  1  0
  5 25  1  0
  6  7  1  0
  6 26  1  0
  6 27  1  0
  7  8  1  0
  7 28  1  0
  7 29  1  0
  8  9  1  0
  8 30  1  0
  8 31  1  0
  9 10  1  0
  9 11  1  0
  9 32  1  6
 10 33  1  0
 11 19  1  0
 11 12  1  1
 11 13  1  0
 12 34  1  0
 13 14  1  0
 13 35  1  0
 13 36  1  0
 14 15  1  0
 14 37  1  0
 14 38  1  0
 15 16  2  0
 15 17  1  0
 17 19  1  0
 17 18  1  0
 17 39  1  1
 19 18  1  6
 18 40  1  0
 18 41  1  0
 19 20  1  0
 20 21  1  0
 20 42  1  6
M  END
>  <i_m_ct_stereo_status>  (371) 
1

>  <s_m_source_file>  (371) 
/var/tmp/pbs.5076255.sched01/tmp0q3ly_rt/135fqi89qhj.sdf

>  <i_m_source_file_index>  (371) 
20

>  <i_lp_mmshare_version>  (371) 
48012

>  <i_f3d_flags>  (371) 
0

>  <s_epik_input>  (371) 
W0NIM11DKFtOSF0xKT1DKFtDQEBIXTJPMykvQzM9W0NIXS9bQ0gyXVtDSDJdW0NIMl1bQ0BIXTFbQ0BdKFtDQF0yNDUpKFtPSF0pW0NIMl1bQ0gyXUMoPU8pW0NAQEhdNFtDSDJdNQ==

>  <s_epik_cmdline>  (371) 
J2VwaWtfcHl0aG9uJywgJy1waHQnLCAnMi4wJywgJy1waCcsICc3LjAnLCAnLXRuJywgJzgnLCAnLW1hJywgJzIwMCcsICctaW1hZScsICc8aW5maWxlLm1hZT4nLCAnLW9tYWUnLCAnPG91dGZpbGUubWFlPic=

>  <r_lp_tautomer_probability>  (371) 
1

>  <r_epik_Ionization_Penalty>  (371) 
1.38031e-06

>  <r_epik_Ionization_Penalty_Charging>  (371) 
0

>  <r_epik_Ionization_Penalty_Neutral>  (371) 
1.38031e-06

>  <r_epik_State_Penalty>  (371) 
-0

>  <r_epik_Charging_Adjusted_Penalty>  (371) 
0

>  <i_epik_Tot_Q>  (371) 
0

>  <i_epik_Tot_abs_Q>  (371) 
0

>  <s_lp_Force_Field>  (371) 
OPLS3e

>  <r_lp_Energy>  (371) 
75.5524

>  <b_lp_Chiralities_Consistent>  (371) 
1

>  <s_lp_Variant>  (371) 
101:0-2

>  <s_i_glide_gridfile>  (371) 
pfpi4k_grid

>  <i_i_glide_lignum>  (371) 
20

>  <i_i_glide_rotatable_bonds>  (371) 
1

>  <r_i_docking_score>  (371) 
-3.47947

>  <r_i_glide_ligand_efficiency>  (371) 
-0.165689

>  <r_i_glide_ligand_efficiency_sa>  (371) 
-0.457123

>  <r_i_glide_ligand_efficiency_ln>  (371) 
-0.860292

>  <r_i_glide_gscore>  (371) 
-3.47947

>  <r_i_glide_lipo>  (371) 
-0.33572

>  <r_i_glide_hbond>  (371) 
0

>  <r_i_glide_metal>  (371) 
-0

>  <r_i_glide_rewards>  (371) 
-1.47343

>  <r_i_glide_evdw>  (371) 
-22.3439

>  <r_i_glide_ecoul>  (371) 
-3.68746

>  <r_i_glide_erotb>  (371) 
0

>  <r_i_glide_esite>  (371) 
0

>  <r_i_glide_emodel>  (371) 
-31.4412

>  <r_i_glide_energy>  (371) 
-26.0314

>  <r_i_glide_einternal>  (371) 
0.405844

>  <r_i_glide_intrahb_reward>  (371) 
-0

>  <i_i_glide_confnum>  (371) 
1

>  <i_i_glide_posenum>  (371) 
7

>  <r_i_glide_eff_state_penalty>  (371) 
0

>  <ligand_id>  (371) 
101

>  <original_smiles>  (371) 
CC1=C2C3=CCCCC(N1)C1(O)CCC(=O)C4CC41C2O3

>  <smiles>  (371) 
[H]OC12C([H])([H])C([H])([H])C(=O)C3([H])C([H])([H])C31C1([H])OC3=C([H])C([H])([H])C([H])([H])C([H])([H])C2([H])N([H])C(C([H])([H])[H])=C31

$$$$
102:0:0
     RDKit          3D

 23 24  0  0  1  0  0  0  0  0999 V2000
    3.1202   -3.2207    2.2277 C   0  0  0  0  0  0  0  0  0  0  0  0
    3.7342   -1.9931    1.9112 C   0  0  0  0  0  0  0  0  0  0  0  0
    4.1846   -1.7211    0.6660 N   0  0  0  0  0  0  0  0  0  0  0  0
    4.0175   -2.6798   -0.2817 C   0  0  0  0  0  0  0  0  0  0  0  0
    4.5029   -2.4071   -1.5761 N   0  0  0  0  0  0  0  0  0  0  0  0
    4.8140   -3.4553   -2.5413 C   0  0  0  0  0  0  0  0  0  0  0  0
    3.9932   -3.2451   -3.8253 C   0  0  0  0  0  0  0  0  0  0  0  0
    4.2088   -1.9227   -4.3186 O   0  0  0  0  0  0  0  0  0  0  0  0
    3.7756   -0.9266   -3.3952 C   0  0  0  0  0  0  0  0  0  0  0  0
    4.5819   -1.0424   -2.0876 C   0  0  0  0  0  0  0  0  0  0  0  0
    3.3882   -3.9083    0.0529 C   0  0  0  0  0  0  0  0  0  0  0  0
    2.9414   -4.1823    1.3000 N   0  0  0  0  0  0  0  0  0  0  0  0
    2.7689   -3.4358    3.2272 H   0  0  0  0  0  0  0  0  0  0  0  0
    3.8730   -1.2302    2.6630 H   0  0  0  0  0  0  0  0  0  0  0  0
    5.8782   -3.3966   -2.7726 H   0  0  0  0  0  0  0  0  0  0  0  0
    4.6506   -4.4602   -2.1552 H   0  0  0  0  0  0  0  0  0  0  0  0
    4.3060   -3.9644   -4.5806 H   0  0  0  0  0  0  0  0  0  0  0  0
    2.9290   -3.4145   -3.6498 H   0  0  0  0  0  0  0  0  0  0  0  0
    3.9199    0.0577   -3.8416 H   0  0  0  0  0  0  0  0  0  0  0  0
    2.7056   -1.0331   -3.2070 H   0  0  0  0  0  0  0  0  0  0  0  0
    4.2196   -0.3029   -1.3756 H   0  0  0  0  0  0  0  0  0  0  0  0
    5.6272   -0.8048   -2.2765 H   0  0  0  0  0  0  0  0  0  0  0  0
    3.2093   -4.6896   -0.6705 H   0  0  0  0  0  0  0  0  0  0  0  0
  1 12  2  0
  1  2  1  0
  1 13  1  0
  2  3  2  0
  2 14  1  0
  3  4  1  0
  4  5  1  0
  4 11  2  0
  5 10  1  0
  5  6  1  0
  6  7  1  0
  6 15  1  0
  6 16  1  0
  7  8  1  0
  7 17  1  0
  7 18  1  0
  8  9  1  0
  9 10  1  0
  9 19  1  0
  9 20  1  0
 10 21  1  0
 10 22  1  0
 11 12  1  0
 11 23  1  0
M  END
>  <i_m_ct_stereo_status>  (372) 
1

>  <s_m_source_file>  (372) 
/var/tmp/pbs.5076255.sched01/tmp0q3ly_rt/135fqi89qhj.sdf

>  <i_m_source_file_index>  (372) 
21

>  <i_lp_mmshare_version>  (372) 
48012

>  <i_f3d_flags>  (372) 
0

>  <s_epik_input>  (372) 
W2NIXTFuW2NIXVtjSF1uYzFOMltDSDJdW0NIMl1PW0NIMl1bQ0gyXTI=

>  <s_epik_cmdline>  (372) 
J2VwaWtfcHl0aG9uJywgJy1waHQnLCAnMi4wJywgJy1waCcsICc3LjAnLCAnLXRuJywgJzgnLCAnLW1hJywgJzIwMCcsICctaW1hZScsICc8aW5maWxlLm1hZT4nLCAnLW9tYWUnLCAnPG91dGZpbGUubWFlPic=

>  <r_lp_tautomer_probability>  (372) 
1

>  <r_epik_Ionization_Penalty>  (372) 
2.25005e-05

>  <r_epik_Ionization_Penalty_Charging>  (372) 
0

>  <r_epik_Ionization_Penalty_Neutral>  (372) 
2.25005e-05

>  <r_epik_State_Penalty>  (372) 
-0

>  <r_epik_Charging_Adjusted_Penalty>  (372) 
0

>  <i_epik_Tot_Q>  (372) 
0

>  <i_epik_Tot_abs_Q>  (372) 
0

>  <s_lp_Force_Field>  (372) 
OPLS3e

>  <r_lp_Energy>  (372) 
26.3243

>  <b_lp_Chiralities_Consistent>  (372) 
1

>  <s_lp_Variant>  (372) 
102:0-1

>  <s_i_glide_gridfile>  (372) 
pfpi4k_grid

>  <i_i_glide_lignum>  (372) 
21

>  <i_i_glide_rotatable_bonds>  (372) 
1

>  <r_i_docking_score>  (372) 
-3.93116

>  <r_i_glide_ligand_efficiency>  (372) 
-0.327597

>  <r_i_glide_ligand_efficiency_sa>  (372) 
-0.750009

>  <r_i_glide_ligand_efficiency_ln>  (372) 
-1.12805

>  <r_i_glide_gscore>  (372) 
-3.93116

>  <r_i_glide_lipo>  (372) 
-0.369791

>  <r_i_glide_hbond>  (372) 
-0.32

>  <r_i_glide_metal>  (372) 
-0

>  <r_i_glide_rewards>  (372) 
-2.25

>  <r_i_glide_evdw>  (372) 
-19.675

>  <r_i_glide_ecoul>  (372) 
-3.63167

>  <r_i_glide_erotb>  (372) 
0.559261

>  <r_i_glide_esite>  (372) 
-0.0221287

>  <r_i_glide_emodel>  (372) 
-28.9974

>  <r_i_glide_energy>  (372) 
-23.3066

>  <r_i_glide_einternal>  (372) 
0.312064

>  <r_i_glide_intrahb_reward>  (372) 
-0

>  <i_i_glide_confnum>  (372) 
1

>  <i_i_glide_posenum>  (372) 
18

>  <r_i_glide_eff_state_penalty>  (372) 
0

>  <ligand_id>  (372) 
102

>  <original_smiles>  (372) 
c1cnc(N2CCOCC2)cn1

>  <smiles>  (372) 
[H]c1nc([H])c(N2C([H])([H])C([H])([H])OC([H])([H])C2([H])[H])nc1[H]

$$$$
102:0:1
     RDKit          3D

 23 24  0  0  1  0  0  0  0  0999 V2000
    7.8811   -3.8624    0.2319 C   0  0  0  0  0  0  0  0  0  0  0  0
    8.0076   -2.7846   -0.6710 C   0  0  0  0  0  0  0  0  0  0  0  0
    6.9365   -2.2608   -1.3076 N   0  0  0  0  0  0  0  0  0  0  0  0
    5.7261   -2.8205   -1.0590 C   0  0  0  0  0  0  0  0  0  0  0  0
    4.5986   -2.2788   -1.7099 N   0  0  0  0  0  0  0  0  0  0  0  0
    3.3874   -3.0546   -1.9520 C   0  0  0  0  0  0  0  0  0  0  0  0
    3.0416   -3.0370   -3.4518 C   0  0  0  0  0  0  0  0  0  0  0  0
    2.9792   -1.6947   -3.9218 O   0  0  0  0  0  0  0  0  0  0  0  0
    4.2102   -1.0033   -3.7604 C   0  0  0  0  0  0  0  0  0  0  0  0
    4.5884   -0.9350   -2.2748 C   0  0  0  0  0  0  0  0  0  0  0  0
    5.6143   -3.9070   -0.1509 C   0  0  0  0  0  0  0  0  0  0  0  0
    6.6851   -4.4274    0.4941 N   0  0  0  0  0  0  0  0  0  0  0  0
    8.7356   -4.2717    0.7458 H   0  0  0  0  0  0  0  0  0  0  0  0
    8.9708   -2.3407   -0.8722 H   0  0  0  0  0  0  0  0  0  0  0  0
    3.4903   -4.0972   -1.6503 H   0  0  0  0  0  0  0  0  0  0  0  0
    2.5715   -2.6305   -1.3646 H   0  0  0  0  0  0  0  0  0  0  0  0
    3.7835   -3.5976   -4.0220 H   0  0  0  0  0  0  0  0  0  0  0  0
    2.0809   -3.5228   -3.6202 H   0  0  0  0  0  0  0  0  0  0  0  0
    4.9938   -1.5097   -4.3209 H   0  0  0  0  0  0  0  0  0  0  0  0
    4.1155   -0.0016   -4.1740 H   0  0  0  0  0  0  0  0  0  0  0  0
    3.8555   -0.3372   -1.7339 H   0  0  0  0  0  0  0  0  0  0  0  0
    5.5374   -0.4181   -2.1594 H   0  0  0  0  0  0  0  0  0  0  0  0
    4.6650   -4.3573    0.1021 H   0  0  0  0  0  0  0  0  0  0  0  0
  1 12  2  0
  1  2  1  0
  1 13  1  0
  2  3  2  0
  2 14  1  0
  3  4  1  0
  4  5  1  0
  4 11  2  0
  5 10  1  0
  5  6  1  0
  6  7  1  0
  6 15  1  0
  6 16  1  0
  7  8  1  0
  7 17  1  0
  7 18  1  0
  8  9  1  0
  9 10  1  0
  9 19  1  0
  9 20  1  0
 10 21  1  0
 10 22  1  0
 11 12  1  0
 11 23  1  0
M  END
>  <i_m_ct_stereo_status>  (373) 
1

>  <s_m_source_file>  (373) 
/var/tmp/pbs.5076255.sched01/tmp0q3ly_rt/135fqi89qhj.sdf

>  <i_m_source_file_index>  (373) 
21

>  <i_lp_mmshare_version>  (373) 
48012

>  <i_f3d_flags>  (373) 
0

>  <s_epik_input>  (373) 
W2NIXTFuW2NIXVtjSF1uYzFOMltDSDJdW0NIMl1PW0NIMl1bQ0gyXTI=

>  <s_epik_cmdline>  (373) 
J2VwaWtfcHl0aG9uJywgJy1waHQnLCAnMi4wJywgJy1waCcsICc3LjAnLCAnLXRuJywgJzgnLCAnLW1hJywgJzIwMCcsICctaW1hZScsICc8aW5maWxlLm1hZT4nLCAnLW9tYWUnLCAnPG91dGZpbGUubWFlPic=

>  <r_lp_tautomer_probability>  (373) 
1

>  <r_epik_Ionization_Penalty>  (373) 
2.25005e-05

>  <r_epik_Ionization_Penalty_Charging>  (373) 
0

>  <r_epik_Ionization_Penalty_Neutral>  (373) 
2.25005e-05

>  <r_epik_State_Penalty>  (373) 
-0

>  <r_epik_Charging_Adjusted_Penalty>  (373) 
0

>  <i_epik_Tot_Q>  (373) 
0

>  <i_epik_Tot_abs_Q>  (373) 
0

>  <s_lp_Force_Field>  (373) 
OPLS3e

>  <r_lp_Energy>  (373) 
26.3243

>  <b_lp_Chiralities_Consistent>  (373) 
1

>  <s_lp_Variant>  (373) 
102:0-1

>  <s_i_glide_gridfile>  (373) 
pfpi4k_grid

>  <i_i_glide_lignum>  (373) 
21

>  <i_i_glide_rotatable_bonds>  (373) 
1

>  <r_i_docking_score>  (373) 
-3.92889

>  <r_i_glide_ligand_efficiency>  (373) 
-0.327408

>  <r_i_glide_ligand_efficiency_sa>  (373) 
-0.749576

>  <r_i_glide_ligand_efficiency_ln>  (373) 
-1.1274

>  <r_i_glide_gscore>  (373) 
-3.92889

>  <r_i_glide_lipo>  (373) 
-0.610127

>  <r_i_glide_hbond>  (373) 
-0.16

>  <r_i_glide_metal>  (373) 
-0

>  <r_i_glide_rewards>  (373) 
-2.25

>  <r_i_glide_evdw>  (373) 
-21.2756

>  <r_i_glide_ecoul>  (373) 
-2.56432

>  <r_i_glide_erotb>  (373) 
0.559261

>  <r_i_glide_esite>  (373) 
-0.0195973

>  <r_i_glide_emodel>  (373) 
-29.6849

>  <r_i_glide_energy>  (373) 
-23.8399

>  <r_i_glide_einternal>  (373) 
0.00366298

>  <r_i_glide_intrahb_reward>  (373) 
-0

>  <i_i_glide_confnum>  (373) 
5

>  <i_i_glide_posenum>  (373) 
1

>  <r_i_glide_eff_state_penalty>  (373) 
0

>  <ligand_id>  (373) 
102

>  <original_smiles>  (373) 
c1cnc(N2CCOCC2)cn1

>  <smiles>  (373) 
[H]c1nc([H])c(N2C([H])([H])C([H])([H])OC([H])([H])C2([H])[H])nc1[H]

$$$$
102:0:2
     RDKit          3D

 23 24  0  0  1  0  0  0  0  0999 V2000
   -0.2328   -7.8007    2.4663 C   0  0  0  0  0  0  0  0  0  0  0  0
   -0.9155   -7.9475    3.6895 C   0  0  0  0  0  0  0  0  0  0  0  0
   -0.7763   -7.0476    4.6886 N   0  0  0  0  0  0  0  0  0  0  0  0
    0.0742   -6.0078    4.4893 C   0  0  0  0  0  0  0  0  0  0  0  0
    0.2161   -5.0633    5.5279 N   0  0  0  0  0  0  0  0  0  0  0  0
    0.6779   -3.6972    5.2970 C   0  0  0  0  0  0  0  0  0  0  0  0
   -0.3354   -2.6949    5.8810 C   0  0  0  0  0  0  0  0  0  0  0  0
   -0.5992   -2.9968    7.2514 O   0  0  0  0  0  0  0  0  0  0  0  0
   -1.1428   -4.3049    7.4235 C   0  0  0  0  0  0  0  0  0  0  0  0
   -0.1534   -5.3631    6.9084 C   0  0  0  0  0  0  0  0  0  0  0  0
    0.7621   -5.8810    3.2552 C   0  0  0  0  0  0  0  0  0  0  0  0
    0.5886   -6.7545    2.2351 N   0  0  0  0  0  0  0  0  0  0  0  0
   -0.3397   -8.5274    1.6760 H   0  0  0  0  0  0  0  0  0  0  0  0
   -1.5769   -8.7843    3.8640 H   0  0  0  0  0  0  0  0  0  0  0  0
    1.6471   -3.5728    5.7815 H   0  0  0  0  0  0  0  0  0  0  0  0
    0.8153   -3.4671    4.2422 H   0  0  0  0  0  0  0  0  0  0  0  0
    0.0559   -1.6802    5.7989 H   0  0  0  0  0  0  0  0  0  0  0  0
   -1.2642   -2.7109    5.3106 H   0  0  0  0  0  0  0  0  0  0  0  0
   -1.3454   -4.4679    8.4825 H   0  0  0  0  0  0  0  0  0  0  0  0
   -2.0971   -4.3847    6.9023 H   0  0  0  0  0  0  0  0  0  0  0  0
   -0.5819   -6.3556    7.0319 H   0  0  0  0  0  0  0  0  0  0  0  0
    0.7529   -5.3508    7.5132 H   0  0  0  0  0  0  0  0  0  0  0  0
    1.4542   -5.0755    3.0552 H   0  0  0  0  0  0  0  0  0  0  0  0
  1 12  2  0
  1  2  1  0
  1 13  1  0
  2  3  2  0
  2 14  1  0
  3  4  1  0
  4  5  1  0
  4 11  2  0
  5 10  1  0
  5  6  1  0
  6  7  1  0
  6 15  1  0
  6 16  1  0
  7  8  1  0
  7 17  1  0
  7 18  1  0
  8  9  1  0
  9 10  1  0
  9 19  1  0
  9 20  1  0
 10 21  1  0
 10 22  1  0
 11 12  1  0
 11 23  1  0
M  END
>  <i_m_ct_stereo_status>  (374) 
1

>  <s_m_source_file>  (374) 
/var/tmp/pbs.5076255.sched01/tmp0q3ly_rt/135fqi89qhj.sdf

>  <i_m_source_file_index>  (374) 
21

>  <i_lp_mmshare_version>  (374) 
48012

>  <i_f3d_flags>  (374) 
0

>  <s_epik_input>  (374) 
W2NIXTFuW2NIXVtjSF1uYzFOMltDSDJdW0NIMl1PW0NIMl1bQ0gyXTI=

>  <s_epik_cmdline>  (374) 
J2VwaWtfcHl0aG9uJywgJy1waHQnLCAnMi4wJywgJy1waCcsICc3LjAnLCAnLXRuJywgJzgnLCAnLW1hJywgJzIwMCcsICctaW1hZScsICc8aW5maWxlLm1hZT4nLCAnLW9tYWUnLCAnPG91dGZpbGUubWFlPic=

>  <r_lp_tautomer_probability>  (374) 
1

>  <r_epik_Ionization_Penalty>  (374) 
2.25005e-05

>  <r_epik_Ionization_Penalty_Charging>  (374) 
0

>  <r_epik_Ionization_Penalty_Neutral>  (374) 
2.25005e-05

>  <r_epik_State_Penalty>  (374) 
-0

>  <r_epik_Charging_Adjusted_Penalty>  (374) 
0

>  <i_epik_Tot_Q>  (374) 
0

>  <i_epik_Tot_abs_Q>  (374) 
0

>  <s_lp_Force_Field>  (374) 
OPLS3e

>  <r_lp_Energy>  (374) 
26.3243

>  <b_lp_Chiralities_Consistent>  (374) 
1

>  <s_lp_Variant>  (374) 
102:0-1

>  <s_i_glide_gridfile>  (374) 
pfpi4k_grid

>  <i_i_glide_lignum>  (374) 
21

>  <i_i_glide_rotatable_bonds>  (374) 
1

>  <r_i_docking_score>  (374) 
-2.93482

>  <r_i_glide_ligand_efficiency>  (374) 
-0.244568

>  <r_i_glide_ligand_efficiency_sa>  (374) 
-0.559922

>  <r_i_glide_ligand_efficiency_ln>  (374) 
-0.842151

>  <r_i_glide_gscore>  (374) 
-2.93482

>  <r_i_glide_lipo>  (374) 
-0.0279642

>  <r_i_glide_hbond>  (374) 
-0.0124973

>  <r_i_glide_metal>  (374) 
-0

>  <r_i_glide_rewards>  (374) 
-2.25

>  <r_i_glide_evdw>  (374) 
-14.3937

>  <r_i_glide_ecoul>  (374) 
-3.18819

>  <r_i_glide_erotb>  (374) 
0.559261

>  <r_i_glide_esite>  (374) 
-0.00570695

>  <r_i_glide_emodel>  (374) 
-21.9447

>  <r_i_glide_energy>  (374) 
-17.5819

>  <r_i_glide_einternal>  (374) 
0.00486048

>  <r_i_glide_intrahb_reward>  (374) 
-0

>  <i_i_glide_confnum>  (374) 
1

>  <i_i_glide_posenum>  (374) 
2

>  <r_i_glide_eff_state_penalty>  (374) 
0

>  <ligand_id>  (374) 
102

>  <original_smiles>  (374) 
c1cnc(N2CCOCC2)cn1

>  <smiles>  (374) 
[H]c1nc([H])c(N2C([H])([H])C([H])([H])OC([H])([H])C2([H])[H])nc1[H]

$$$$
104:0:0
     RDKit          3D

 77 82  0  0  1  0  0  0  0  0999 V2000
    6.2096   -4.2148    6.1316 C   0  0  0  0  0  0  0  0  0  0  0  0
    4.9009   -3.9271    5.3641 C   0  0  2  0  0  0  0  0  0  0  0  0
    5.2036   -3.4218    3.9449 C   0  0  0  0  0  0  0  0  0  0  0  0
    3.9559   -3.3549    3.0399 C   0  0  2  0  0  0  0  0  0  0  0  0
    4.4006   -3.2788    1.5227 C   0  0  1  0  0  0  0  0  0  0  0  0
    3.5346   -3.9126    0.4110 C   0  0  1  0  0  0  0  0  0  0  0  0
    2.4328   -4.6613    0.8708 O   0  0  0  0  0  0  0  0  0  0  0  0
    3.1454   -2.7655   -0.5190 C   0  0  2  0  0  0  0  0  0  0  0  0
    3.1184   -3.1956   -1.8606 O   0  0  0  0  0  0  0  0  0  0  0  0
    4.2448   -2.6906   -2.4965 C   0  0  0  0  0  0  0  0  0  0  0  0
    5.0073   -3.8441   -3.1495 C   0  0  0  0  0  0  0  0  0  0  0  0
    3.7774   -1.6462   -3.5255 C   0  0  0  0  0  0  0  0  0  0  0  0
    5.0939   -2.1009   -1.5657 O   0  0  0  0  0  0  0  0  0  0  0  0
    4.2938   -1.7604   -0.4501 C   0  0  2  0  0  0  0  0  0  0  0  0
    5.0010   -1.9636    0.9243 C   0  0  2  0  0  0  0  0  0  0  0  0
    6.5203   -2.1437    0.7207 C   0  0  0  0  0  0  0  0  0  0  0  0
    4.8294   -0.7075    1.8045 C   0  0  0  0  0  0  0  0  0  0  0  0
    3.3932   -0.3518    2.1829 C   0  0  0  0  0  0  0  0  0  0  0  0
    2.8974   -0.9104    3.5353 C   0  0  2  0  0  0  0  0  0  0  0  0
    2.8003   -2.4686    3.6639 C   0  0  1  0  0  0  0  0  0  0  0  0
    1.4434   -2.8353    3.0291 C   0  0  0  0  0  0  0  0  0  0  0  0
    0.3343   -2.2610    3.7216 O   0  0  0  0  0  0  0  0  0  0  0  0
    0.6598   -1.3217    4.7005 C   0  0  1  0  0  0  0  0  0  0  0  0
   -0.5101   -0.7370    5.2405 O   0  0  0  0  0  0  0  0  0  0  0  0
    1.4170   -2.0937    5.8102 C   0  0  1  0  0  0  0  0  0  0  0  0
    0.5575   -2.9964    6.4886 O   0  0  0  0  0  0  0  0  0  0  0  0
    2.6114   -2.8701    5.1760 C   0  0  2  0  0  0  0  0  0  0  0  0
    3.8908   -2.9898    6.0918 C   0  0  0  0  0  0  0  0  0  0  0  0
    3.4810   -3.6525    7.4286 C   0  0  0  0  0  0  0  0  0  0  0  0
    4.5555   -1.6356    6.4510 C   0  0  0  0  0  0  0  0  0  0  0  0
    1.5452   -0.2224    4.0049 C   0  0  0  0  0  0  0  0  0  0  0  0
    1.8631    0.9263    4.9908 C   0  0  0  0  0  0  0  0  0  0  0  0
    0.7049    0.3952    2.8437 C   0  0  0  0  0  0  0  0  0  0  0  0
    6.7908   -3.3163    6.3399 H   0  0  0  0  0  0  0  0  0  0  0  0
    6.8435   -4.8862    5.5525 H   0  0  0  0  0  0  0  0  0  0  0  0
    6.0174   -4.7245    7.0745 H   0  0  0  0  0  0  0  0  0  0  0  0
    4.4199   -4.8994    5.2559 H   0  0  0  0  0  0  0  0  0  0  0  0
    5.7040   -2.4623    3.9846 H   0  0  0  0  0  0  0  0  0  0  0  0
    5.9204   -4.1172    3.5034 H   0  0  0  0  0  0  0  0  0  0  0  0
    3.5726   -4.3682    3.1165 H   0  0  0  0  0  0  0  0  0  0  0  0
    5.2211   -3.9967    1.5065 H   0  0  0  0  0  0  0  0  0  0  0  0
    4.1549   -4.6061   -0.1643 H   0  0  0  0  0  0  0  0  0  0  0  0
    1.9387   -4.1113    1.4584 H   0  0  0  0  0  0  0  0  0  0  0  0
    2.2197   -2.3057   -0.1972 H   0  0  0  0  0  0  0  0  0  0  0  0
    5.3160   -4.5591   -2.3867 H   0  0  0  0  0  0  0  0  0  0  0  0
    5.8979   -3.4647   -3.6564 H   0  0  0  0  0  0  0  0  0  0  0  0
    4.3692   -4.3538   -3.8724 H   0  0  0  0  0  0  0  0  0  0  0  0
    3.2131   -0.8482   -3.0399 H   0  0  0  0  0  0  0  0  0  0  0  0
    3.1185   -2.1344   -4.2486 H   0  0  0  0  0  0  0  0  0  0  0  0
    4.6247   -1.2180   -4.0616 H   0  0  0  0  0  0  0  0  0  0  0  0
    3.9342   -0.7444   -0.6072 H   0  0  0  0  0  0  0  0  0  0  0  0
    6.9771   -1.2644    0.2625 H   0  0  0  0  0  0  0  0  0  0  0  0
    6.7567   -3.0091    0.0961 H   0  0  0  0  0  0  0  0  0  0  0  0
    7.0060   -2.3072    1.6797 H   0  0  0  0  0  0  0  0  0  0  0  0
    5.4518   -0.7483    2.6977 H   0  0  0  0  0  0  0  0  0  0  0  0
    5.2342    0.1339    1.2420 H   0  0  0  0  0  0  0  0  0  0  0  0
    3.3809    0.7350    2.2645 H   0  0  0  0  0  0  0  0  0  0  0  0
    2.7025   -0.5875    1.3739 H   0  0  0  0  0  0  0  0  0  0  0  0
    3.6600   -0.5872    4.2344 H   0  0  0  0  0  0  0  0  0  0  0  0
    1.4127   -2.4983    1.9970 H   0  0  0  0  0  0  0  0  0  0  0  0
    1.2772   -3.9122    3.0306 H   0  0  0  0  0  0  0  0  0  0  0  0
   -0.8582   -0.1494    4.5852 H   0  0  0  0  0  0  0  0  0  0  0  0
    1.7523   -1.3778    6.5570 H   0  0  0  0  0  0  0  0  0  0  0  0
    0.2988   -3.6633    5.8707 H   0  0  0  0  0  0  0  0  0  0  0  0
    2.2690   -3.9053    5.1091 H   0  0  0  0  0  0  0  0  0  0  0  0
    2.7565   -3.0494    7.9781 H   0  0  0  0  0  0  0  0  0  0  0  0
    4.3303   -3.7750    8.1010 H   0  0  0  0  0  0  0  0  0  0  0  0
    3.0415   -4.6371    7.2687 H   0  0  0  0  0  0  0  0  0  0  0  0
    3.8415   -0.8969    6.8097 H   0  0  0  0  0  0  0  0  0  0  0  0
    5.1026   -1.1920    5.6259 H   0  0  0  0  0  0  0  0  0  0  0  0
    5.2861   -1.7596    7.2515 H   0  0  0  0  0  0  0  0  0  0  0  0
    0.9573    1.4298    5.3338 H   0  0  0  0  0  0  0  0  0  0  0  0
    2.4872    1.6802    4.5098 H   0  0  0  0  0  0  0  0  0  0  0  0
    2.4026    0.5893    5.8722 H   0  0  0  0  0  0  0  0  0  0  0  0
   -0.2489    0.7916    3.1974 H   0  0  0  0  0  0  0  0  0  0  0  0
    0.4785   -0.3255    2.0581 H   0  0  0  0  0  0  0  0  0  0  0  0
    1.2105    1.2399    2.3736 H   0  0  0  0  0  0  0  0  0  0  0  0
  1  2  1  0
  1 34  1  0
  1 35  1  0
  1 36  1  0
  2 28  1  0
  2  3  1  0
  2 37  1  6
  3  4  1  0
  3 38  1  0
  3 39  1  0
  4 20  1  0
  4  5  1  0
  4 40  1  6
  5 15  1  0
  5  6  1  0
  5 41  1  1
  6  7  1  0
  6  8  1  0
  6 42  1  6
  7 43  1  0
  8 14  1  0
  8  9  1  0
  8 44  1  1
  9 10  1  0
 10 11  1  0
 10 12  1  0
 10 13  1  0
 11 45  1  0
 11 46  1  0
 11 47  1  0
 12 48  1  0
 12 49  1  0
 12 50  1  0
 13 14  1  0
 14 15  1  0
 14 51  1  6
 15 16  1  6
 15 17  1  0
 16 52  1  0
 16 53  1  0
 16 54  1  0
 17 18  1  0
 17 55  1  0
 17 56  1  0
 18 19  1  0
 18 57  1  0
 18 58  1  0
 19 31  1  0
 19 20  1  0
 19 59  1  1
 20 27  1  0
 20 21  1  6
 21 22  1  0
 21 60  1  0
 21 61  1  0
 22 23  1  0
 23 24  1  1
 23 25  1  0
 23 31  1  0
 24 62  1  0
 25 26  1  0
 25 27  1  0
 25 63  1  1
 26 64  1  0
 27 28  1  0
 27 65  1  6
 28 29  1  0
 28 30  1  0
 29 66  1  0
 29 67  1  0
 29 68  1  0
 30 69  1  0
 30 70  1  0
 30 71  1  0
 31 32  1  0
 31 33  1  0
 32 72  1  0
 32 73  1  0
 32 74  1  0
 33 75  1  0
 33 76  1  0
 33 77  1  0
M  END
>  <i_m_ct_stereo_status>  (375) 
1

>  <s_m_source_file>  (375) 
/var/tmp/pbs.5076255.sched01/tmp0q3ly_rt/135fqi89qhj.sdf

>  <i_m_source_file_index>  (375) 
23

>  <i_lp_mmshare_version>  (375) 
48012

>  <i_f3d_flags>  (375) 
0

>  <s_epik_input>  (375) 
W0NIM11bQ0BIXShbQ0gyXTEpQyhbQ0gzXSkoW0NIM10pW0NASF0yW0NASF0oW09IXSlbQ0BdKFtPSF0pKE9bQ0gyXTMpQyhbQ0gzXSkoW0NIM10pW0NAQEhdNFtDSDJdW0NIMl1bQ0BAXShbQ0gzXSkoW0NASF01W0NAQEhdMVtDQF0yMzQpW0NAQEhdNltDQEhdKFtDQEBIXTVbT0hdKU9DKE82KShbQ0gzXSlbQ0gzXQ==

>  <s_epik_cmdline>  (375) 
J2VwaWtfcHl0aG9uJywgJy1waHQnLCAnMi4wJywgJy1waCcsICc3LjAnLCAnLXRuJywgJzgnLCAnLW1hJywgJzIwMCcsICctaW1hZScsICc8aW5maWxlLm1hZT4nLCAnLW9tYWUnLCAnPG91dGZpbGUubWFlPic=

>  <r_lp_tautomer_probability>  (375) 
1

>  <r_epik_Ionization_Penalty>  (375) 
1.80303e-07

>  <r_epik_Ionization_Penalty_Charging>  (375) 
0

>  <r_epik_Ionization_Penalty_Neutral>  (375) 
1.80303e-07

>  <r_epik_State_Penalty>  (375) 
-0

>  <r_epik_Charging_Adjusted_Penalty>  (375) 
0

>  <i_epik_Tot_Q>  (375) 
0

>  <i_epik_Tot_abs_Q>  (375) 
0

>  <s_lp_Force_Field>  (375) 
OPLS3e

>  <r_lp_Energy>  (375) 
87.0847

>  <b_lp_Chiralities_Consistent>  (375) 
1

>  <s_lp_Variant>  (375) 
104:0-1

>  <s_i_glide_gridfile>  (375) 
pfpi4k_grid

>  <i_i_glide_lignum>  (375) 
23

>  <i_i_glide_rotatable_bonds>  (375) 
3

>  <r_i_docking_score>  (375) 
-2.60166

>  <r_i_glide_ligand_efficiency>  (375) 
-0.0788382

>  <r_i_glide_ligand_efficiency_sa>  (375) 
-0.252876

>  <r_i_glide_ligand_efficiency_ln>  (375) 
-0.578596

>  <r_i_glide_gscore>  (375) 
-2.60166

>  <r_i_glide_lipo>  (375) 
-0.56493

>  <r_i_glide_hbond>  (375) 
0

>  <r_i_glide_metal>  (375) 
-0

>  <r_i_glide_rewards>  (375) 
-0.292617

>  <r_i_glide_evdw>  (375) 
-30.3195

>  <r_i_glide_ecoul>  (375) 
-1.48411

>  <r_i_glide_erotb>  (375) 
0

>  <r_i_glide_esite>  (375) 
-0.00552165

>  <r_i_glide_emodel>  (375) 
-37.5062

>  <r_i_glide_energy>  (375) 
-31.8037

>  <r_i_glide_einternal>  (375) 
0.267995

>  <r_i_glide_intrahb_reward>  (375) 
-0

>  <i_i_glide_confnum>  (375) 
1

>  <i_i_glide_posenum>  (375) 
11

>  <r_i_glide_eff_state_penalty>  (375) 
0

>  <ligand_id>  (375) 
104

>  <original_smiles>  (375) 
CC1CC2C3C(O)C4OC(C)(C)OC4C3(C)CCC3C24COC(O)(C(O)C4C1(C)C)C3(C)C

>  <smiles>  (375) 
[H]OC1([H])C2([H])OC(C([H])([H])[H])(C([H])([H])[H])OC2([H])C2(C([H])([H])[H])C([H])([H])C([H])([H])C3([H])C(C([H])([H])[H])(C([H])([H])[H])C4(O[H])OC([H])([H])C35C([H])(C([H])([H])C([H])(C([H])([H])[H])C(C([H])([H])[H])(C([H])([H])[H])C5([H])C4([H])O[H])C12[H]

$$$$
104:0:1
     RDKit          3D

 77 82  0  0  1  0  0  0  0  0999 V2000
    5.6378   -2.0733    7.4488 C   0  0  0  0  0  0  0  0  0  0  0  0
    4.3572   -2.2102    6.5964 C   0  0  2  0  0  0  0  0  0  0  0  0
    4.6674   -1.9414    5.1128 C   0  0  0  0  0  0  0  0  0  0  0  0
    3.4917   -2.3233    4.1798 C   0  0  2  0  0  0  0  0  0  0  0  0
    4.0207   -2.4722    2.6993 C   0  0  1  0  0  0  0  0  0  0  0  0
    3.3611   -3.4726    1.7234 C   0  0  1  0  0  0  0  0  0  0  0  0
    2.3644   -4.3025    2.2766 O   0  0  0  0  0  0  0  0  0  0  0  0
    2.8408   -2.6521    0.5493 C   0  0  2  0  0  0  0  0  0  0  0  0
    3.0020   -3.3649   -0.6632 O   0  0  0  0  0  0  0  0  0  0  0  0
    4.0441   -2.7698   -1.3631 C   0  0  0  0  0  0  0  0  0  0  0  0
    5.0695   -3.8462   -1.7311 C   0  0  0  0  0  0  0  0  0  0  0  0
    3.4594   -2.0643   -2.6022 C   0  0  0  0  0  0  0  0  0  0  0  0
    4.6919   -1.8471   -0.5524 O   0  0  0  0  0  0  0  0  0  0  0  0
    3.7710   -1.4488    0.4447 C   0  0  2  0  0  0  0  0  0  0  0  0
    4.4014   -1.2165    1.8541 C   0  0  2  0  0  0  0  0  0  0  0  0
    5.9394   -1.1165    1.7347 C   0  0  0  0  0  0  0  0  0  0  0  0
    3.9186    0.1260    2.4340 C   0  0  0  0  0  0  0  0  0  0  0  0
    2.4193    0.2609    2.6841 C   0  0  0  0  0  0  0  0  0  0  0  0
    1.9453   -0.0955    4.1092 C   0  0  2  0  0  0  0  0  0  0  0  0
    2.1345   -1.5871    4.5550 C   0  0  1  0  0  0  0  0  0  0  0  0
    0.9111   -2.3401    3.9675 C   0  0  0  0  0  0  0  0  0  0  0  0
   -0.3352   -1.8500    4.4802 O   0  0  0  0  0  0  0  0  0  0  0  0
   -0.2510   -0.6958    5.2598 C   0  0  1  0  0  0  0  0  0  0  0  0
   -1.5386   -0.2518    5.6426 O   0  0  0  0  0  0  0  0  0  0  0  0
    0.5618   -1.0714    6.5297 C   0  0  1  0  0  0  0  0  0  0  0  0
   -0.1615   -1.9652    7.3635 O   0  0  0  0  0  0  0  0  0  0  0  0
    1.9227   -1.7012    6.1120 C   0  0  2  0  0  0  0  0  0  0  0  0
    3.1351   -1.3706    7.0739 C   0  0  0  0  0  0  0  0  0  0  0  0
    2.7645   -1.8156    8.5113 C   0  0  0  0  0  0  0  0  0  0  0  0
    3.5053    0.1356    7.1572 C   0  0  0  0  0  0  0  0  0  0  0  0
    0.4664    0.4027    4.3868 C   0  0  0  0  0  0  0  0  0  0  0  0
    0.4948    1.7644    5.1211 C   0  0  0  0  0  0  0  0  0  0  0  0
   -0.3868    0.6240    3.1023 C   0  0  0  0  0  0  0  0  0  0  0  0
    6.0231   -1.0540    7.4800 H   0  0  0  0  0  0  0  0  0  0  0  0
    6.4283   -2.7071    7.0451 H   0  0  0  0  0  0  0  0  0  0  0  0
    5.4784   -2.4097    8.4720 H   0  0  0  0  0  0  0  0  0  0  0  0
    4.0774   -3.2633    6.6745 H   0  0  0  0  0  0  0  0  0  0  0  0
    4.9758   -0.9111    4.9624 H   0  0  0  0  0  0  0  0  0  0  0  0
    5.5459   -2.5374    4.8546 H   0  0  0  0  0  0  0  0  0  0  0  0
    3.3039   -3.3573    4.4614 H   0  0  0  0  0  0  0  0  0  0  0  0
    4.9612   -2.9986    2.8574 H   0  0  0  0  0  0  0  0  0  0  0  0
    4.1362   -4.1377    1.3352 H   0  0  0  0  0  0  0  0  0  0  0  0
    2.7776   -4.8810    2.8970 H   0  0  0  0  0  0  0  0  0  0  0  0
    1.8142   -2.3319    0.7133 H   0  0  0  0  0  0  0  0  0  0  0  0
    5.4591   -4.3104   -0.8246 H   0  0  0  0  0  0  0  0  0  0  0  0
    5.8966   -3.3992   -2.2812 H   0  0  0  0  0  0  0  0  0  0  0  0
    4.6151   -4.6190   -2.3515 H   0  0  0  0  0  0  0  0  0  0  0  0
    2.7234   -1.3124   -2.3122 H   0  0  0  0  0  0  0  0  0  0  0  0
    2.9591   -2.8038   -3.2274 H   0  0  0  0  0  0  0  0  0  0  0  0
    4.2511   -1.5889   -3.1828 H   0  0  0  0  0  0  0  0  0  0  0  0
    3.2333   -0.5769    0.0661 H   0  0  0  0  0  0  0  0  0  0  0  0
    6.2291   -0.2862    1.0867 H   0  0  0  0  0  0  0  0  0  0  0  0
    6.3780   -2.0268    1.3201 H   0  0  0  0  0  0  0  0  0  0  0  0
    6.4019   -0.9542    2.7100 H   0  0  0  0  0  0  0  0  0  0  0  0
    4.4739    0.4049    3.3274 H   0  0  0  0  0  0  0  0  0  0  0  0
    4.1810    0.8910    1.7059 H   0  0  0  0  0  0  0  0  0  0  0  0
    2.2037    1.3186    2.5319 H   0  0  0  0  0  0  0  0  0  0  0  0
    1.8450   -0.2663    1.9237 H   0  0  0  0  0  0  0  0  0  0  0  0
    2.5892    0.5026    4.7425 H   0  0  0  0  0  0  0  0  0  0  0  0
    0.8815   -2.2552    2.8837 H   0  0  0  0  0  0  0  0  0  0  0  0
    0.9506   -3.4027    4.2050 H   0  0  0  0  0  0  0  0  0  0  0  0
   -1.9502    0.1081    4.8690 H   0  0  0  0  0  0  0  0  0  0  0  0
    0.7064   -0.1720    7.1223 H   0  0  0  0  0  0  0  0  0  0  0  0
    0.4471   -2.3430    7.9823 H   0  0  0  0  0  0  0  0  0  0  0  0
    1.7871   -2.7752    6.2566 H   0  0  0  0  0  0  0  0  0  0  0  0
    1.9079   -1.2658    8.9024 H   0  0  0  0  0  0  0  0  0  0  0  0
    3.5738   -1.6270    9.2170 H   0  0  0  0  0  0  0  0  0  0  0  0
    2.5352   -2.8816    8.5542 H   0  0  0  0  0  0  0  0  0  0  0  0
    2.6426    0.7751    7.3304 H   0  0  0  0  0  0  0  0  0  0  0  0
    4.0175    0.5026    6.2717 H   0  0  0  0  0  0  0  0  0  0  0  0
    4.1879    0.3238    7.9869 H   0  0  0  0  0  0  0  0  0  0  0  0
   -0.5122    2.1369    5.3160 H   0  0  0  0  0  0  0  0  0  0  0  0
    0.9980    2.5097    4.5033 H   0  0  0  0  0  0  0  0  0  0  0  0
    1.0254    1.7266    6.0694 H   0  0  0  0  0  0  0  0  0  0  0  0
   -1.4270    0.8628    3.3303 H   0  0  0  0  0  0  0  0  0  0  0  0
   -0.3876   -0.2547    2.4693 H   0  0  0  0  0  0  0  0  0  0  0  0
   -0.0163    1.4471    2.4889 H   0  0  0  0  0  0  0  0  0  0  0  0
  1  2  1  0
  1 34  1  0
  1 35  1  0
  1 36  1  0
  2 28  1  0
  2  3  1  0
  2 37  1  6
  3  4  1  0
  3 38  1  0
  3 39  1  0
  4 20  1  0
  4  5  1  0
  4 40  1  1
  5 15  1  0
  5  6  1  0
  5 41  1  1
  6  7  1  0
  6  8  1  0
  6 42  1  6
  7 43  1  0
  8 14  1  0
  8  9  1  0
  8 44  1  1
  9 10  1  0
 10 11  1  0
 10 12  1  0
 10 13  1  0
 11 45  1  0
 11 46  1  0
 11 47  1  0
 12 48  1  0
 12 49  1  0
 12 50  1  0
 13 14  1  0
 14 15  1  0
 14 51  1  6
 15 16  1  6
 15 17  1  0
 16 52  1  0
 16 53  1  0
 16 54  1  0
 17 18  1  0
 17 55  1  0
 17 56  1  0
 18 19  1  0
 18 57  1  0
 18 58  1  0
 19 31  1  0
 19 20  1  0
 19 59  1  1
 20 27  1  0
 20 21  1  6
 21 22  1  0
 21 60  1  0
 21 61  1  0
 22 23  1  0
 23 24  1  1
 23 25  1  0
 23 31  1  0
 24 62  1  0
 25 26  1  0
 25 27  1  0
 25 63  1  1
 26 64  1  0
 27 28  1  0
 27 65  1  6
 28 29  1  0
 28 30  1  0
 29 66  1  0
 29 67  1  0
 29 68  1  0
 30 69  1  0
 30 70  1  0
 30 71  1  0
 31 32  1  0
 31 33  1  0
 32 72  1  0
 32 73  1  0
 32 74  1  0
 33 75  1  0
 33 76  1  0
 33 77  1  0
M  END
>  <i_m_ct_stereo_status>  (376) 
1

>  <s_m_source_file>  (376) 
/var/tmp/pbs.5076255.sched01/tmp0q3ly_rt/135fqi89qhj.sdf

>  <i_m_source_file_index>  (376) 
23

>  <i_lp_mmshare_version>  (376) 
48012

>  <i_f3d_flags>  (376) 
0

>  <s_epik_input>  (376) 
W0NIM11bQ0BIXShbQ0gyXTEpQyhbQ0gzXSkoW0NIM10pW0NASF0yW0NASF0oW09IXSlbQ0BdKFtPSF0pKE9bQ0gyXTMpQyhbQ0gzXSkoW0NIM10pW0NAQEhdNFtDSDJdW0NIMl1bQ0BAXShbQ0gzXSkoW0NASF01W0NAQEhdMVtDQF0yMzQpW0NAQEhdNltDQEhdKFtDQEBIXTVbT0hdKU9DKE82KShbQ0gzXSlbQ0gzXQ==

>  <s_epik_cmdline>  (376) 
J2VwaWtfcHl0aG9uJywgJy1waHQnLCAnMi4wJywgJy1waCcsICc3LjAnLCAnLXRuJywgJzgnLCAnLW1hJywgJzIwMCcsICctaW1hZScsICc8aW5maWxlLm1hZT4nLCAnLW9tYWUnLCAnPG91dGZpbGUubWFlPic=

>  <r_lp_tautomer_probability>  (376) 
1

>  <r_epik_Ionization_Penalty>  (376) 
1.80303e-07

>  <r_epik_Ionization_Penalty_Charging>  (376) 
0

>  <r_epik_Ionization_Penalty_Neutral>  (376) 
1.80303e-07

>  <r_epik_State_Penalty>  (376) 
-0

>  <r_epik_Charging_Adjusted_Penalty>  (376) 
0

>  <i_epik_Tot_Q>  (376) 
0

>  <i_epik_Tot_abs_Q>  (376) 
0

>  <s_lp_Force_Field>  (376) 
OPLS3e

>  <r_lp_Energy>  (376) 
87.0847

>  <b_lp_Chiralities_Consistent>  (376) 
1

>  <s_lp_Variant>  (376) 
104:0-1

>  <s_i_glide_gridfile>  (376) 
pfpi4k_grid

>  <i_i_glide_lignum>  (376) 
23

>  <i_i_glide_rotatable_bonds>  (376) 
3

>  <r_i_docking_score>  (376) 
-2.45459

>  <r_i_glide_ligand_efficiency>  (376) 
-0.0743814

>  <r_i_glide_ligand_efficiency_sa>  (376) 
-0.238581

>  <r_i_glide_ligand_efficiency_ln>  (376) 
-0.545887

>  <r_i_glide_gscore>  (376) 
-2.45459

>  <r_i_glide_lipo>  (376) 
-0.238408

>  <r_i_glide_hbond>  (376) 
0

>  <r_i_glide_metal>  (376) 
-0

>  <r_i_glide_rewards>  (376) 
-0.241127

>  <r_i_glide_evdw>  (376) 
-27.9766

>  <r_i_glide_ecoul>  (376) 
-3.58129

>  <r_i_glide_erotb>  (376) 
0

>  <r_i_glide_esite>  (376) 
-0.0390238

>  <r_i_glide_emodel>  (376) 
-36.5462

>  <r_i_glide_energy>  (376) 
-31.5579

>  <r_i_glide_einternal>  (376) 
0.946469

>  <r_i_glide_intrahb_reward>  (376) 
-0

>  <i_i_glide_confnum>  (376) 
2

>  <i_i_glide_posenum>  (376) 
28

>  <r_i_glide_eff_state_penalty>  (376) 
0

>  <ligand_id>  (376) 
104

>  <original_smiles>  (376) 
CC1CC2C3C(O)C4OC(C)(C)OC4C3(C)CCC3C24COC(O)(C(O)C4C1(C)C)C3(C)C

>  <smiles>  (376) 
[H]OC1([H])C2([H])OC(C([H])([H])[H])(C([H])([H])[H])OC2([H])C2(C([H])([H])[H])C([H])([H])C([H])([H])C3([H])C(C([H])([H])[H])(C([H])([H])[H])C4(O[H])OC([H])([H])C35C([H])(C([H])([H])C([H])(C([H])([H])[H])C(C([H])([H])[H])(C([H])([H])[H])C5([H])C4([H])O[H])C12[H]

$$$$
104:0:2
     RDKit          3D

 77 82  0  0  1  0  0  0  0  0999 V2000
    6.2060   -4.2217    6.1245 C   0  0  0  0  0  0  0  0  0  0  0  0
    4.8983   -3.9302    5.3564 C   0  0  2  0  0  0  0  0  0  0  0  0
    5.2026   -3.4257    3.9374 C   0  0  0  0  0  0  0  0  0  0  0  0
    3.9578   -3.3562    3.0316 C   0  0  2  0  0  0  0  0  0  0  0  0
    4.4018   -3.2786    1.5161 C   0  0  1  0  0  0  0  0  0  0  0  0
    3.5340   -3.9094    0.4007 C   0  0  1  0  0  0  0  0  0  0  0  0
    2.4182   -4.6514    0.8549 O   0  0  0  0  0  0  0  0  0  0  0  0
    3.1463   -2.7635   -0.5265 C   0  0  2  0  0  0  0  0  0  0  0  0
    3.1228   -3.1981   -1.8711 O   0  0  0  0  0  0  0  0  0  0  0  0
    4.2462   -2.6900   -2.5058 C   0  0  0  0  0  0  0  0  0  0  0  0
    5.0115   -3.8430   -3.1593 C   0  0  0  0  0  0  0  0  0  0  0  0
    3.7761   -1.6461   -3.5342 C   0  0  0  0  0  0  0  0  0  0  0  0
    5.0938   -2.1014   -1.5737 O   0  0  0  0  0  0  0  0  0  0  0  0
    4.2936   -1.7630   -0.4564 C   0  0  2  0  0  0  0  0  0  0  0  0
    5.0022   -1.9648    0.9193 C   0  0  2  0  0  0  0  0  0  0  0  0
    6.5254   -2.1469    0.7189 C   0  0  0  0  0  0  0  0  0  0  0  0
    4.8312   -0.7099    1.7990 C   0  0  0  0  0  0  0  0  0  0  0  0
    3.3930   -0.3536    2.1757 C   0  0  0  0  0  0  0  0  0  0  0  0
    2.8949   -0.9125    3.5281 C   0  0  2  0  0  0  0  0  0  0  0  0
    2.7993   -2.4725    3.6528 C   0  0  1  0  0  0  0  0  0  0  0  0
    1.4418   -2.8388    3.0156 C   0  0  0  0  0  0  0  0  0  0  0  0
    0.3329   -2.2623    3.7106 O   0  0  0  0  0  0  0  0  0  0  0  0
    0.6580   -1.3246    4.6892 C   0  0  1  0  0  0  0  0  0  0  0  0
   -0.5092   -0.7395    5.2309 O   0  0  0  0  0  0  0  0  0  0  0  0
    1.4139   -2.0987    5.8003 C   0  0  1  0  0  0  0  0  0  0  0  0
    0.5539   -3.0019    6.4780 O   0  0  0  0  0  0  0  0  0  0  0  0
    2.6088   -2.8745    5.1662 C   0  0  2  0  0  0  0  0  0  0  0  0
    3.8881   -2.9947    6.0838 C   0  0  0  0  0  0  0  0  0  0  0  0
    3.4769   -3.6580    7.4207 C   0  0  0  0  0  0  0  0  0  0  0  0
    4.5531   -1.6402    6.4440 C   0  0  0  0  0  0  0  0  0  0  0  0
    1.5443   -0.2244    3.9973 C   0  0  0  0  0  0  0  0  0  0  0  0
    1.8624    0.9243    4.9852 C   0  0  0  0  0  0  0  0  0  0  0  0
    0.7039    0.3944    2.8361 C   0  0  0  0  0  0  0  0  0  0  0  0
    6.7875   -3.3240    6.3335 H   0  0  0  0  0  0  0  0  0  0  0  0
    6.8398   -4.8929    5.5454 H   0  0  0  0  0  0  0  0  0  0  0  0
    6.0133   -4.7320    7.0669 H   0  0  0  0  0  0  0  0  0  0  0  0
    4.4160   -4.9030    5.2455 H   0  0  0  0  0  0  0  0  0  0  0  0
    5.7041   -2.4650    3.9788 H   0  0  0  0  0  0  0  0  0  0  0  0
    5.9199   -4.1189    3.4974 H   0  0  0  0  0  0  0  0  0  0  0  0
    3.5699   -4.3682    3.1101 H   0  0  0  0  0  0  0  0  0  0  0  0
    5.2214   -3.9982    1.4997 H   0  0  0  0  0  0  0  0  0  0  0  0
    4.1483   -4.6072   -0.1707 H   0  0  0  0  0  0  0  0  0  0  0  0
    2.7365   -5.4498    1.2450 H   0  0  0  0  0  0  0  0  0  0  0  0
    2.2188   -2.3115   -0.2078 H   0  0  0  0  0  0  0  0  0  0  0  0
    5.3178   -4.5557   -2.3965 H   0  0  0  0  0  0  0  0  0  0  0  0
    5.8985   -3.4613   -3.6644 H   0  0  0  0  0  0  0  0  0  0  0  0
    4.3725   -4.3503   -3.8805 H   0  0  0  0  0  0  0  0  0  0  0  0
    3.2121   -0.8470   -3.0472 H   0  0  0  0  0  0  0  0  0  0  0  0
    3.1186   -2.1319   -4.2558 H   0  0  0  0  0  0  0  0  0  0  0  0
    4.6234   -1.2165   -4.0691 H   0  0  0  0  0  0  0  0  0  0  0  0
    3.9326   -0.7443   -0.6116 H   0  0  0  0  0  0  0  0  0  0  0  0
    6.9776   -1.2683    0.2569 H   0  0  0  0  0  0  0  0  0  0  0  0
    6.7578   -3.0105    0.0907 H   0  0  0  0  0  0  0  0  0  0  0  0
    7.0063   -2.3086    1.6783 H   0  0  0  0  0  0  0  0  0  0  0  0
    5.4514   -0.7512    2.6920 H   0  0  0  0  0  0  0  0  0  0  0  0
    5.2352    0.1314    1.2368 H   0  0  0  0  0  0  0  0  0  0  0  0
    3.3810    0.7331    2.2587 H   0  0  0  0  0  0  0  0  0  0  0  0
    2.7031   -0.5894    1.3670 H   0  0  0  0  0  0  0  0  0  0  0  0
    3.6583   -0.5922    4.2280 H   0  0  0  0  0  0  0  0  0  0  0  0
    1.4136   -2.5040    1.9818 H   0  0  0  0  0  0  0  0  0  0  0  0
    1.2759   -3.9157    3.0119 H   0  0  0  0  0  0  0  0  0  0  0  0
   -0.8549   -0.1465    4.5787 H   0  0  0  0  0  0  0  0  0  0  0  0
    1.7489   -1.3841    6.5479 H   0  0  0  0  0  0  0  0  0  0  0  0
    0.2907   -3.6647    5.8570 H   0  0  0  0  0  0  0  0  0  0  0  0
    2.2655   -3.9101    5.0979 H   0  0  0  0  0  0  0  0  0  0  0  0
    2.7522   -3.0565    7.9696 H   0  0  0  0  0  0  0  0  0  0  0  0
    4.3245   -3.7825    8.0929 H   0  0  0  0  0  0  0  0  0  0  0  0
    3.0368   -4.6425    7.2595 H   0  0  0  0  0  0  0  0  0  0  0  0
    3.8394   -0.9014    6.8002 H   0  0  0  0  0  0  0  0  0  0  0  0
    5.1005   -1.1971    5.6179 H   0  0  0  0  0  0  0  0  0  0  0  0
    5.2832   -1.7639    7.2428 H   0  0  0  0  0  0  0  0  0  0  0  0
    0.9588    1.4273    5.3272 H   0  0  0  0  0  0  0  0  0  0  0  0
    2.4878    1.6768    4.5045 H   0  0  0  0  0  0  0  0  0  0  0  0
    2.4015    0.5853    5.8652 H   0  0  0  0  0  0  0  0  0  0  0  0
   -0.2487    0.7900    3.1877 H   0  0  0  0  0  0  0  0  0  0  0  0
    0.4791   -0.3266    2.0495 H   0  0  0  0  0  0  0  0  0  0  0  0
    1.2105    1.2382    2.3657 H   0  0  0  0  0  0  0  0  0  0  0  0
  1  2  1  0
  1 34  1  0
  1 35  1  0
  1 36  1  0
  2 28  1  0
  2  3  1  0
  2 37  1  6
  3  4  1  0
  3 38  1  0
  3 39  1  0
  4 20  1  0
  4  5  1  0
  4 40  1  6
  5 15  1  0
  5  6  1  0
  5 41  1  1
  6  7  1  0
  6  8  1  0
  6 42  1  6
  7 43  1  0
  8 14  1  0
  8  9  1  0
  8 44  1  1
  9 10  1  0
 10 11  1  0
 10 12  1  0
 10 13  1  0
 11 45  1  0
 11 46  1  0
 11 47  1  0
 12 48  1  0
 12 49  1  0
 12 50  1  0
 13 14  1  0
 14 15  1  0
 14 51  1  6
 15 16  1  6
 15 17  1  0
 16 52  1  0
 16 53  1  0
 16 54  1  0
 17 18  1  0
 17 55  1  0
 17 56  1  0
 18 19  1  0
 18 57  1  0
 18 58  1  0
 19 31  1  0
 19 20  1  0
 19 59  1  1
 20 27  1  0
 20 21  1  6
 21 22  1  0
 21 60  1  0
 21 61  1  0
 22 23  1  0
 23 24  1  1
 23 25  1  0
 23 31  1  0
 24 62  1  0
 25 26  1  0
 25 27  1  0
 25 63  1  1
 26 64  1  0
 27 28  1  0
 27 65  1  6
 28 29  1  0
 28 30  1  0
 29 66  1  0
 29 67  1  0
 29 68  1  0
 30 69  1  0
 30 70  1  0
 30 71  1  0
 31 32  1  0
 31 33  1  0
 32 72  1  0
 32 73  1  0
 32 74  1  0
 33 75  1  0
 33 76  1  0
 33 77  1  0
M  END
>  <i_m_ct_stereo_status>  (377) 
1

>  <s_m_source_file>  (377) 
/var/tmp/pbs.5076255.sched01/tmp0q3ly_rt/135fqi89qhj.sdf

>  <i_m_source_file_index>  (377) 
23

>  <i_lp_mmshare_version>  (377) 
48012

>  <i_f3d_flags>  (377) 
0

>  <s_epik_input>  (377) 
W0NIM11bQ0BIXShbQ0gyXTEpQyhbQ0gzXSkoW0NIM10pW0NASF0yW0NASF0oW09IXSlbQ0BdKFtPSF0pKE9bQ0gyXTMpQyhbQ0gzXSkoW0NIM10pW0NAQEhdNFtDSDJdW0NIMl1bQ0BAXShbQ0gzXSkoW0NASF01W0NAQEhdMVtDQF0yMzQpW0NAQEhdNltDQEhdKFtDQEBIXTVbT0hdKU9DKE82KShbQ0gzXSlbQ0gzXQ==

>  <s_epik_cmdline>  (377) 
J2VwaWtfcHl0aG9uJywgJy1waHQnLCAnMi4wJywgJy1waCcsICc3LjAnLCAnLXRuJywgJzgnLCAnLW1hJywgJzIwMCcsICctaW1hZScsICc8aW5maWxlLm1hZT4nLCAnLW9tYWUnLCAnPG91dGZpbGUubWFlPic=

>  <r_lp_tautomer_probability>  (377) 
1

>  <r_epik_Ionization_Penalty>  (377) 
1.80303e-07

>  <r_epik_Ionization_Penalty_Charging>  (377) 
0

>  <r_epik_Ionization_Penalty_Neutral>  (377) 
1.80303e-07

>  <r_epik_State_Penalty>  (377) 
-0

>  <r_epik_Charging_Adjusted_Penalty>  (377) 
0

>  <i_epik_Tot_Q>  (377) 
0

>  <i_epik_Tot_abs_Q>  (377) 
0

>  <s_lp_Force_Field>  (377) 
OPLS3e

>  <r_lp_Energy>  (377) 
87.0847

>  <b_lp_Chiralities_Consistent>  (377) 
1

>  <s_lp_Variant>  (377) 
104:0-1

>  <s_i_glide_gridfile>  (377) 
pfpi4k_grid

>  <i_i_glide_lignum>  (377) 
23

>  <i_i_glide_rotatable_bonds>  (377) 
3

>  <r_i_docking_score>  (377) 
-2.41549

>  <r_i_glide_ligand_efficiency>  (377) 
-0.0731966

>  <r_i_glide_ligand_efficiency_sa>  (377) 
-0.234781

>  <r_i_glide_ligand_efficiency_ln>  (377) 
-0.537192

>  <r_i_glide_gscore>  (377) 
-2.41549

>  <r_i_glide_lipo>  (377) 
-0.568666

>  <r_i_glide_hbond>  (377) 
0

>  <r_i_glide_metal>  (377) 
-0

>  <r_i_glide_rewards>  (377) 
-0.294594

>  <r_i_glide_evdw>  (377) 
-30.2683

>  <r_i_glide_ecoul>  (377) 
-0.221869

>  <r_i_glide_erotb>  (377) 
0

>  <r_i_glide_esite>  (377) 
-0.00553404

>  <r_i_glide_emodel>  (377) 
-35.6106

>  <r_i_glide_energy>  (377) 
-30.4901

>  <r_i_glide_einternal>  (377) 
0.493713

>  <r_i_glide_intrahb_reward>  (377) 
-0

>  <i_i_glide_confnum>  (377) 
1

>  <i_i_glide_posenum>  (377) 
5

>  <r_i_glide_eff_state_penalty>  (377) 
0

>  <ligand_id>  (377) 
104

>  <original_smiles>  (377) 
CC1CC2C3C(O)C4OC(C)(C)OC4C3(C)CCC3C24COC(O)(C(O)C4C1(C)C)C3(C)C

>  <smiles>  (377) 
[H]OC1([H])C2([H])OC(C([H])([H])[H])(C([H])([H])[H])OC2([H])C2(C([H])([H])[H])C([H])([H])C([H])([H])C3([H])C(C([H])([H])[H])(C([H])([H])[H])C4(O[H])OC([H])([H])C35C([H])(C([H])([H])C([H])(C([H])([H])[H])C(C([H])([H])[H])(C([H])([H])[H])C5([H])C4([H])O[H])C12[H]

$$$$
105:0:0
     RDKit          3D

 79 86  0  0  1  0  0  0  0  0999 V2000
    5.7902   -4.2109    2.7333 C   0  0  0  0  0  0  0  0  0  0  0  0
    4.6544   -5.1729    2.3327 C   0  0  1  0  0  0  0  0  0  0  0  0
    3.2917   -4.4717    2.6089 C   0  0  0  0  0  0  0  0  0  0  0  0
    3.0404   -3.2184    1.7468 C   0  0  0  0  0  0  0  0  0  0  0  0
    3.2116   -3.5003    0.2439 C   0  0  1  0  0  0  0  0  0  0  0  0
    3.2036   -2.2698   -0.4631 O   0  0  0  0  0  0  0  0  0  0  0  0
    4.5286   -4.2375   -0.0683 C   0  0  0  0  0  0  0  0  0  0  0  0
    4.7697   -5.4834    0.8212 C   0  0  2  0  0  0  0  0  0  0  0  0
    3.8488   -6.6382    0.4355 C   0  0  0  0  0  0  0  0  0  0  0  0
    4.1751   -7.9174    1.1994 C   0  0  0  0  0  0  0  0  0  0  0  0
    3.9904   -7.7471    2.7273 C   0  0  1  0  0  0  0  0  0  0  0  0
    2.6243   -7.4604    3.0613 O   0  0  0  0  0  0  0  0  0  0  0  0
    1.5367   -8.3237    2.7239 C   0  0  1  0  0  0  0  0  0  0  0  0
    1.8392   -9.8222    2.8089 C   0  0  0  0  0  0  0  0  0  0  0  0
    2.3119  -10.1796    4.2299 C   0  0  2  0  0  0  0  0  0  0  0  0
    1.0997   -9.9905    5.1613 C   0  0  0  0  0  0  0  0  0  0  0  0
    0.6999   -8.4974    5.1698 C   0  0  2  0  0  0  0  0  0  0  0  0
    0.4006   -8.0234    3.7158 C   0  0  0  0  0  0  0  0  0  0  0  0
    1.7731   -7.6667    5.9372 C   0  0  0  0  0  0  0  0  0  0  0  0
    3.1962   -8.3106    5.8585 C   0  0  0  0  0  0  0  0  0  0  0  0
    3.5555   -9.3695    4.7290 C   0  0  2  0  0  0  0  0  0  0  0  0
    4.5830   -8.9190    3.6092 C   0  0  1  0  0  0  0  0  0  0  0  0
    5.1147  -10.1651    2.8215 C   0  0  0  0  0  0  0  0  0  0  0  0
    5.8948   -8.3338    4.2128 C   0  0  0  0  0  0  0  0  0  0  0  0
    6.1700   -7.0194    3.4876 C   0  0  0  0  0  0  0  0  0  0  0  0
    4.7671   -6.4799    3.2017 C   0  0  1  0  0  0  0  0  0  0  0  0
    1.8745   -6.3112    5.4926 O   0  0  0  0  0  0  0  0  0  0  0  0
    0.5833   -5.5738    5.7752 O   0  0  0  0  0  0  0  0  0  0  0  0
    0.3318   -5.6012    7.1691 C   0  0  0  0  0  0  0  0  0  0  0  0
    1.3746   -4.8361    7.9980 C   0  0  0  0  0  0  0  0  0  0  0  0
    0.6084   -4.2869    9.2036 C   0  0  0  0  0  0  0  0  0  0  0  0
   -0.7510   -3.8987    8.6331 C   0  0  0  0  0  0  0  0  0  0  0  0
   -0.9956   -4.8605    7.4584 C   0  0  0  0  0  0  0  0  0  0  0  0
    0.2046   -6.9361    7.6223 O   0  0  0  0  0  0  0  0  0  0  0  0
    1.4952   -7.6728    7.3382 O   0  0  0  0  0  0  0  0  0  0  0  0
    5.7749   -4.0067    3.8053 H   0  0  0  0  0  0  0  0  0  0  0  0
    5.7311   -3.2489    2.2275 H   0  0  0  0  0  0  0  0  0  0  0  0
    6.7653   -4.6270    2.4777 H   0  0  0  0  0  0  0  0  0  0  0  0
    2.4671   -5.1574    2.4263 H   0  0  0  0  0  0  0  0  0  0  0  0
    3.2162   -4.2089    3.6656 H   0  0  0  0  0  0  0  0  0  0  0  0
    2.0307   -2.8521    1.9343 H   0  0  0  0  0  0  0  0  0  0  0  0
    3.7047   -2.4136    2.0590 H   0  0  0  0  0  0  0  0  0  0  0  0
    2.3801   -4.1097   -0.1085 H   0  0  0  0  0  0  0  0  0  0  0  0
    2.3424   -1.8679   -0.4386 H   0  0  0  0  0  0  0  0  0  0  0  0
    4.5409   -4.5282   -1.1206 H   0  0  0  0  0  0  0  0  0  0  0  0
    5.3682   -3.5508    0.0401 H   0  0  0  0  0  0  0  0  0  0  0  0
    5.7849   -5.8248    0.6113 H   0  0  0  0  0  0  0  0  0  0  0  0
    2.7988   -6.3838    0.5748 H   0  0  0  0  0  0  0  0  0  0  0  0
    3.9930   -6.8242   -0.6266 H   0  0  0  0  0  0  0  0  0  0  0  0
    3.5625   -8.7249    0.8080 H   0  0  0  0  0  0  0  0  0  0  0  0
    5.2033   -8.1866    0.9621 H   0  0  0  0  0  0  0  0  0  0  0  0
    1.2239   -8.0882    1.7055 H   0  0  0  0  0  0  0  0  0  0  0  0
    0.9302  -10.3831    2.5798 H   0  0  0  0  0  0  0  0  0  0  0  0
    2.5051  -10.1374    2.0200 H   0  0  0  0  0  0  0  0  0  0  0  0
    2.5759  -11.2397    4.2177 H   0  0  0  0  0  0  0  0  0  0  0  0
    0.2688  -10.6000    4.8163 H   0  0  0  0  0  0  0  0  0  0  0  0
    1.3283  -10.3423    6.1662 H   0  0  0  0  0  0  0  0  0  0  0  0
   -0.2383   -8.4143    5.7111 H   0  0  0  0  0  0  0  0  0  0  0  0
    0.1505   -6.9666    3.6917 H   0  0  0  0  0  0  0  0  0  0  0  0
   -0.4872   -8.5435    3.3698 H   0  0  0  0  0  0  0  0  0  0  0  0
    3.9278   -7.5119    5.9093 H   0  0  0  0  0  0  0  0  0  0  0  0
    3.3301   -8.8614    6.7926 H   0  0  0  0  0  0  0  0  0  0  0  0
    4.1293  -10.1172    5.2820 H   0  0  0  0  0  0  0  0  0  0  0  0
    5.5274  -10.9081    3.5057 H   0  0  0  0  0  0  0  0  0  0  0  0
    5.9305   -9.9065    2.1449 H   0  0  0  0  0  0  0  0  0  0  0  0
    4.3983  -10.7023    2.2155 H   0  0  0  0  0  0  0  0  0  0  0  0
    5.8198   -8.1619    5.2841 H   0  0  0  0  0  0  0  0  0  0  0  0
    6.7588   -8.9923    4.1085 H   0  0  0  0  0  0  0  0  0  0  0  0
    6.7718   -6.3486    4.1001 H   0  0  0  0  0  0  0  0  0  0  0  0
    6.7164   -7.1989    2.5583 H   0  0  0  0  0  0  0  0  0  0  0  0
    4.3775   -6.2082    4.1831 H   0  0  0  0  0  0  0  0  0  0  0  0
    2.2347   -5.4291    8.2953 H   0  0  0  0  0  0  0  0  0  0  0  0
    1.7514   -3.9971    7.4183 H   0  0  0  0  0  0  0  0  0  0  0  0
    0.4748   -5.0621    9.9623 H   0  0  0  0  0  0  0  0  0  0  0  0
    1.1047   -3.4364    9.6776 H   0  0  0  0  0  0  0  0  0  0  0  0
   -1.5386   -3.9490    9.3919 H   0  0  0  0  0  0  0  0  0  0  0  0
   -0.7029   -2.8705    8.2689 H   0  0  0  0  0  0  0  0  0  0  0  0
   -1.3523   -4.2877    6.5978 H   0  0  0  0  0  0  0  0  0  0  0  0
   -1.7915   -5.5557    7.7261 H   0  0  0  0  0  0  0  0  0  0  0  0
  2  1  1  1
  1 36  1  0
  1 37  1  0
  1 38  1  0
  2  8  1  0
  2 26  1  0
  2  3  1  0
  3  4  1  0
  3 39  1  0
  3 40  1  0
  4  5  1  0
  4 41  1  0
  4 42  1  0
  5  6  1  0
  5  7  1  0
  5 43  1  6
  6 44  1  0
  7  8  1  0
  7 45  1  0
  7 46  1  0
  8  9  1  0
  8 47  1  1
  9 10  1  0
  9 48  1  0
  9 49  1  0
 10 11  1  0
 10 50  1  0
 10 51  1  0
 11 22  1  0
 11 26  1  0
 11 12  1  6
 12 13  1  0
 13 18  1  0
 13 14  1  0
 13 52  1  6
 14 15  1  0
 14 53  1  0
 14 54  1  0
 15 21  1  0
 15 16  1  0
 15 55  1  6
 16 17  1  0
 16 56  1  0
 16 57  1  0
 17 18  1  0
 17 19  1  0
 17 58  1  1
 18 59  1  0
 18 60  1  0
 19 35  1  0
 19 20  1  0
 19 27  1  0
 20 21  1  0
 20 61  1  0
 20 62  1  0
 21 22  1  0
 21 63  1  1
 22 23  1  6
 22 24  1  0
 23 64  1  0
 23 65  1  0
 23 66  1  0
 24 25  1  0
 24 67  1  0
 24 68  1  0
 25 26  1  0
 25 69  1  0
 25 70  1  0
 26 71  1  1
 27 28  1  0
 28 29  1  0
 29 33  1  0
 29 30  1  0
 29 34  1  0
 30 31  1  0
 30 72  1  0
 30 73  1  0
 31 32  1  0
 31 74  1  0
 31 75  1  0
 32 33  1  0
 32 76  1  0
 32 77  1  0
 33 78  1  0
 33 79  1  0
 34 35  1  0
M  END
>  <i_m_ct_stereo_status>  (378) 
1

>  <s_m_source_file>  (378) 
/var/tmp/pbs.5076255.sched01/tmp0q3ly_rt/135fqi89qhj.sdf

>  <i_m_source_file_index>  (378) 
24

>  <i_lp_mmshare_version>  (378) 
48012

>  <i_f3d_flags>  (378) 
0

>  <s_epik_input>  (378) 
W0NIMl0xW0NIMl1bQ0BASF0oW09IXSlbQ0gyXVtDQEhdKFtDSDJdW0NIMl0yKVtDQF0xKFtDSDNdKVtDQEBIXTNbQ0gyXVtDSDJdW0NAQF0oW0NAXTIzNCkoW0NIM10pW0NAQEhdNVtDQEBIXTZbQ0gyXVtDQEhdKE80KVtDSDJdW0NAQEhdKFtDSDJdNilDNyhbQ0gyXTUpT09DOChPTzcpW0NIMl1bQ0gyXVtDSDJdW0NIMl04

>  <s_epik_cmdline>  (378) 
J2VwaWtfcHl0aG9uJywgJy1waHQnLCAnMi4wJywgJy1waCcsICc3LjAnLCAnLXRuJywgJzgnLCAnLW1hJywgJzIwMCcsICctaW1hZScsICc8aW5maWxlLm1hZT4nLCAnLW9tYWUnLCAnPG91dGZpbGUubWFlPic=

>  <r_lp_tautomer_probability>  (378) 
1

>  <r_epik_Ionization_Penalty>  (378) 
2.61528e-06

>  <r_epik_Ionization_Penalty_Charging>  (378) 
0

>  <r_epik_Ionization_Penalty_Neutral>  (378) 
2.61528e-06

>  <r_epik_State_Penalty>  (378) 
-0

>  <r_epik_Charging_Adjusted_Penalty>  (378) 
0

>  <i_epik_Tot_Q>  (378) 
0

>  <i_epik_Tot_abs_Q>  (378) 
0

>  <s_lp_Force_Field>  (378) 
OPLS3e

>  <r_lp_Energy>  (378) 
94.2435

>  <b_lp_Chiralities_Consistent>  (378) 
1

>  <s_lp_Variant>  (378) 
105:0-1

>  <s_i_glide_gridfile>  (378) 
pfpi4k_grid

>  <i_i_glide_lignum>  (378) 
24

>  <i_i_glide_rotatable_bonds>  (378) 
1

>  <r_i_docking_score>  (378) 
-2.38637

>  <r_i_glide_ligand_efficiency>  (378) 
-0.068182

>  <r_i_glide_ligand_efficiency_sa>  (378) 
-0.223028

>  <r_i_glide_ligand_efficiency_ln>  (378) 
-0.523861

>  <r_i_glide_gscore>  (378) 
-2.38637

>  <r_i_glide_lipo>  (378) 
-0.318836

>  <r_i_glide_hbond>  (378) 
-0.16

>  <r_i_glide_metal>  (378) 
-0

>  <r_i_glide_rewards>  (378) 
-0.077345

>  <r_i_glide_evdw>  (378) 
-26.561

>  <r_i_glide_ecoul>  (378) 
-3.29234

>  <r_i_glide_erotb>  (378) 
0

>  <r_i_glide_esite>  (378) 
-0.00828845

>  <r_i_glide_emodel>  (378) 
-34.3545

>  <r_i_glide_energy>  (378) 
-29.8533

>  <r_i_glide_einternal>  (378) 
0.379181

>  <r_i_glide_intrahb_reward>  (378) 
-0

>  <i_i_glide_confnum>  (378) 
2

>  <i_i_glide_posenum>  (378) 
13

>  <r_i_glide_eff_state_penalty>  (378) 
0

>  <ligand_id>  (378) 
105

>  <original_smiles>  (378) 
CC12CCC(O)CC1CCC13OC4CC5CC(C4)C4(CC5C1(C)CCC23)OOC1(CCCC1)OO4

>  <smiles>  (378) 
[H]OC1([H])C([H])([H])C([H])([H])C2(C([H])([H])[H])C([H])(C([H])([H])C([H])([H])C34OC5([H])C([H])([H])C6([H])C([H])([H])C([H])(C5([H])[H])C([H])(C([H])([H])C65OOC6(OO5)C([H])([H])C([H])([H])C([H])([H])C6([H])[H])C3(C([H])([H])[H])C([H])([H])C([H])([H])C42[H])C1([H])[H]

$$$$
105:0:1
     RDKit          3D

 79 86  0  0  1  0  0  0  0  0999 V2000
   -0.8704   -6.6319    4.8547 C   0  0  0  0  0  0  0  0  0  0  0  0
    0.5847   -6.9788    5.2372 C   0  0  1  0  0  0  0  0  0  0  0  0
    1.4425   -5.6800    5.1530 C   0  0  0  0  0  0  0  0  0  0  0  0
    1.0516   -4.5992    6.1773 C   0  0  0  0  0  0  0  0  0  0  0  0
    1.0296   -5.1462    7.6133 C   0  0  1  0  0  0  0  0  0  0  0  0
    0.4451   -4.1724    8.4545 O   0  0  0  0  0  0  0  0  0  0  0  0
    0.2349   -6.4537    7.7426 C   0  0  0  0  0  0  0  0  0  0  0  0
    0.6299   -7.5234    6.6985 C   0  0  2  0  0  0  0  0  0  0  0  0
    1.9942   -8.1480    7.0269 C   0  0  0  0  0  0  0  0  0  0  0  0
    2.3148   -9.2929    6.0695 C   0  0  0  0  0  0  0  0  0  0  0  0
    2.4023   -8.8357    4.5878 C   0  0  1  0  0  0  0  0  0  0  0  0
    3.4668   -7.8912    4.3866 O   0  0  0  0  0  0  0  0  0  0  0  0
    4.8314   -8.1782    4.6962 C   0  0  1  0  0  0  0  0  0  0  0  0
    5.2828   -9.6121    4.4033 C   0  0  0  0  0  0  0  0  0  0  0  0
    5.0527   -9.9412    2.9196 C   0  0  2  0  0  0  0  0  0  0  0  0
    6.0300   -9.0681    2.1077 C   0  0  0  0  0  0  0  0  0  0  0  0
    5.6704   -7.5796    2.3154 C   0  0  2  0  0  0  0  0  0  0  0  0
    5.6942   -7.2397    3.8367 C   0  0  0  0  0  0  0  0  0  0  0  0
    4.3469   -7.2561    1.6031 C   0  0  0  0  0  0  0  0  0  0  0  0
    3.3996   -8.4924    1.4856 C   0  0  0  0  0  0  0  0  0  0  0  0
    3.5729   -9.7403    2.4378 C   0  0  2  0  0  0  0  0  0  0  0  0
    2.4492  -10.0005    3.5236 C   0  0  1  0  0  0  0  0  0  0  0  0
    2.5718  -11.4521    4.1016 C   0  0  0  0  0  0  0  0  0  0  0  0
    1.0286  -10.0263    2.8868 C   0  0  0  0  0  0  0  0  0  0  0  0
    0.1535   -9.1192    3.7403 C   0  0  0  0  0  0  0  0  0  0  0  0
    1.1240   -8.0335    4.2079 C   0  0  1  0  0  0  0  0  0  0  0  0
    3.6070   -6.1857    2.2127 O   0  0  0  0  0  0  0  0  0  0  0  0
    4.4062   -4.9143    2.1345 O   0  0  0  0  0  0  0  0  0  0  0  0
    4.6007   -4.5684    0.7612 C   0  0  0  0  0  0  0  0  0  0  0  0
    3.2827   -4.2692    0.0639 C   0  0  0  0  0  0  0  0  0  0  0  0
    3.0288   -2.7668    0.2249 C   0  0  0  0  0  0  0  0  0  0  0  0
    4.3157   -2.1596    0.7913 C   0  0  0  0  0  0  0  0  0  0  0  0
    5.3741   -3.2631    0.6837 C   0  0  0  0  0  0  0  0  0  0  0  0
    5.3454   -5.6144    0.1473 O   0  0  0  0  0  0  0  0  0  0  0  0
    4.5671   -6.8844    0.2234 O   0  0  0  0  0  0  0  0  0  0  0  0
   -0.9317   -6.2707    3.8270 H   0  0  0  0  0  0  0  0  0  0  0  0
   -1.2854   -5.8618    5.4940 H   0  0  0  0  0  0  0  0  0  0  0  0
   -1.5406   -7.4872    4.9424 H   0  0  0  0  0  0  0  0  0  0  0  0
    2.4916   -5.9082    5.3170 H   0  0  0  0  0  0  0  0  0  0  0  0
    1.3966   -5.2599    4.1447 H   0  0  0  0  0  0  0  0  0  0  0  0
    1.7692   -3.7788    6.1225 H   0  0  0  0  0  0  0  0  0  0  0  0
    0.0883   -4.1614    5.9167 H   0  0  0  0  0  0  0  0  0  0  0  0
    2.0565   -5.3195    7.9426 H   0  0  0  0  0  0  0  0  0  0  0  0
    0.5954   -4.4209    9.3556 H   0  0  0  0  0  0  0  0  0  0  0  0
    0.3477   -6.8613    8.7463 H   0  0  0  0  0  0  0  0  0  0  0  0
   -0.8326   -6.2377    7.6483 H   0  0  0  0  0  0  0  0  0  0  0  0
   -0.1011   -8.3269    6.7774 H   0  0  0  0  0  0  0  0  0  0  0  0
    2.7906   -7.4083    6.9825 H   0  0  0  0  0  0  0  0  0  0  0  0
    1.9836   -8.5311    8.0484 H   0  0  0  0  0  0  0  0  0  0  0  0
    3.2331   -9.7688    6.4002 H   0  0  0  0  0  0  0  0  0  0  0  0
    1.5349  -10.0484    6.1869 H   0  0  0  0  0  0  0  0  0  0  0  0
    4.9824   -7.9728    5.7539 H   0  0  0  0  0  0  0  0  0  0  0  0
    6.3460   -9.7043    4.6313 H   0  0  0  0  0  0  0  0  0  0  0  0
    4.8367  -10.3125    5.0915 H   0  0  0  0  0  0  0  0  0  0  0  0
    5.3141  -10.9859    2.7750 H   0  0  0  0  0  0  0  0  0  0  0  0
    7.0494   -9.2577    2.4456 H   0  0  0  0  0  0  0  0  0  0  0  0
    6.0113   -9.3405    1.0519 H   0  0  0  0  0  0  0  0  0  0  0  0
    6.4568   -6.9818    1.8635 H   0  0  0  0  0  0  0  0  0  0  0  0
    5.4130   -6.2075    4.0163 H   0  0  0  0  0  0  0  0  0  0  0  0
    6.7204   -7.3213    4.1912 H   0  0  0  0  0  0  0  0  0  0  0  0
    2.3772   -8.1368    1.4601 H   0  0  0  0  0  0  0  0  0  0  0  0
    3.5713   -8.9173    0.4892 H   0  0  0  0  0  0  0  0  0  0  0  0
    3.4162  -10.5780    1.7667 H   0  0  0  0  0  0  0  0  0  0  0  0
    2.5681  -12.1887    3.2944 H   0  0  0  0  0  0  0  0  0  0  0  0
    1.7251  -11.7130    4.7358 H   0  0  0  0  0  0  0  0  0  0  0  0
    3.4522  -11.6784    4.6848 H   0  0  0  0  0  0  0  0  0  0  0  0
    1.0284   -9.6917    1.8505 H   0  0  0  0  0  0  0  0  0  0  0  0
    0.5836  -11.0213    2.8385 H   0  0  0  0  0  0  0  0  0  0  0  0
   -0.6943   -8.7371    3.1695 H   0  0  0  0  0  0  0  0  0  0  0  0
   -0.2432   -9.6716    4.5949 H   0  0  0  0  0  0  0  0  0  0  0  0
    1.3461   -7.4693    3.3028 H   0  0  0  0  0  0  0  0  0  0  0  0
    3.3860   -4.4699   -0.9955 H   0  0  0  0  0  0  0  0  0  0  0  0
    2.4362   -4.8697    0.4057 H   0  0  0  0  0  0  0  0  0  0  0  0
    2.7645   -2.3138   -0.7414 H   0  0  0  0  0  0  0  0  0  0  0  0
    2.1987   -2.5555    0.9026 H   0  0  0  0  0  0  0  0  0  0  0  0
    4.6011   -1.2398    0.2556 H   0  0  0  0  0  0  0  0  0  0  0  0
    4.1505   -1.8801    1.8328 H   0  0  0  0  0  0  0  0  0  0  0  0
    6.1686   -3.1452    1.4305 H   0  0  0  0  0  0  0  0  0  0  0  0
    5.8338   -3.1724   -0.2955 H   0  0  0  0  0  0  0  0  0  0  0  0
  2  1  1  6
  1 36  1  0
  1 37  1  0
  1 38  1  0
  2  8  1  0
  2 26  1  0
  2  3  1  0
  3  4  1  0
  3 39  1  0
  3 40  1  0
  4  5  1  0
  4 41  1  0
  4 42  1  0
  5  6  1  0
  5  7  1  0
  5 43  1  1
  6 44  1  0
  7  8  1  0
  7 45  1  0
  7 46  1  0
  8  9  1  0
  8 47  1  6
  9 10  1  0
  9 48  1  0
  9 49  1  0
 10 11  1  0
 10 50  1  0
 10 51  1  0
 11 22  1  0
 11 26  1  0
 11 12  1  1
 12 13  1  0
 13 18  1  0
 13 14  1  0
 13 52  1  1
 14 15  1  0
 14 53  1  0
 14 54  1  0
 15 21  1  0
 15 16  1  0
 15 55  1  1
 16 17  1  0
 16 56  1  0
 16 57  1  0
 17 18  1  0
 17 19  1  0
 17 58  1  6
 18 59  1  0
 18 60  1  0
 19 35  1  0
 19 20  1  0
 19 27  1  0
 20 21  1  0
 20 61  1  0
 20 62  1  0
 21 22  1  0
 21 63  1  6
 22 23  1  1
 22 24  1  0
 23 64  1  0
 23 65  1  0
 23 66  1  0
 24 25  1  0
 24 67  1  0
 24 68  1  0
 25 26  1  0
 25 69  1  0
 25 70  1  0
 26 71  1  6
 27 28  1  0
 28 29  1  0
 29 33  1  0
 29 30  1  0
 29 34  1  0
 30 31  1  0
 30 72  1  0
 30 73  1  0
 31 32  1  0
 31 74  1  0
 31 75  1  0
 32 33  1  0
 32 76  1  0
 32 77  1  0
 33 78  1  0
 33 79  1  0
 34 35  1  0
M  END
>  <i_m_ct_stereo_status>  (379) 
1

>  <s_m_source_file>  (379) 
/var/tmp/pbs.5076255.sched01/tmp0q3ly_rt/135fqi89qhj.sdf

>  <i_m_source_file_index>  (379) 
24

>  <i_lp_mmshare_version>  (379) 
48012

>  <i_f3d_flags>  (379) 
0

>  <s_epik_input>  (379) 
W0NIMl0xW0NIMl1bQ0BASF0oW09IXSlbQ0gyXVtDQEhdKFtDSDJdW0NIMl0yKVtDQF0xKFtDSDNdKVtDQEBIXTNbQ0gyXVtDSDJdW0NAQF0oW0NAXTIzNCkoW0NIM10pW0NAQEhdNVtDQEBIXTZbQ0gyXVtDQEhdKE80KVtDSDJdW0NAQEhdKFtDSDJdNilDNyhbQ0gyXTUpT09DOChPTzcpW0NIMl1bQ0gyXVtDSDJdW0NIMl04

>  <s_epik_cmdline>  (379) 
J2VwaWtfcHl0aG9uJywgJy1waHQnLCAnMi4wJywgJy1waCcsICc3LjAnLCAnLXRuJywgJzgnLCAnLW1hJywgJzIwMCcsICctaW1hZScsICc8aW5maWxlLm1hZT4nLCAnLW9tYWUnLCAnPG91dGZpbGUubWFlPic=

>  <r_lp_tautomer_probability>  (379) 
1

>  <r_epik_Ionization_Penalty>  (379) 
2.61528e-06

>  <r_epik_Ionization_Penalty_Charging>  (379) 
0

>  <r_epik_Ionization_Penalty_Neutral>  (379) 
2.61528e-06

>  <r_epik_State_Penalty>  (379) 
-0

>  <r_epik_Charging_Adjusted_Penalty>  (379) 
0

>  <i_epik_Tot_Q>  (379) 
0

>  <i_epik_Tot_abs_Q>  (379) 
0

>  <s_lp_Force_Field>  (379) 
OPLS3e

>  <r_lp_Energy>  (379) 
94.2435

>  <b_lp_Chiralities_Consistent>  (379) 
1

>  <s_lp_Variant>  (379) 
105:0-1

>  <s_i_glide_gridfile>  (379) 
pfpi4k_grid

>  <i_i_glide_lignum>  (379) 
24

>  <i_i_glide_rotatable_bonds>  (379) 
1

>  <r_i_docking_score>  (379) 
-2.19306

>  <r_i_glide_ligand_efficiency>  (379) 
-0.0626588

>  <r_i_glide_ligand_efficiency_sa>  (379) 
-0.204961

>  <r_i_glide_ligand_efficiency_ln>  (379) 
-0.481425

>  <r_i_glide_gscore>  (379) 
-2.19306

>  <r_i_glide_lipo>  (379) 
-0.198945

>  <r_i_glide_hbond>  (379) 
0

>  <r_i_glide_metal>  (379) 
-0

>  <r_i_glide_rewards>  (379) 
-0.222587

>  <r_i_glide_evdw>  (379) 
-31.2606

>  <r_i_glide_ecoul>  (379) 
-1.39

>  <r_i_glide_erotb>  (379) 
0

>  <r_i_glide_esite>  (379) 
0

>  <r_i_glide_emodel>  (379) 
-36.728

>  <r_i_glide_energy>  (379) 
-32.6506

>  <r_i_glide_einternal>  (379) 
0.379282

>  <r_i_glide_intrahb_reward>  (379) 
-0

>  <i_i_glide_confnum>  (379) 
4

>  <i_i_glide_posenum>  (379) 
18

>  <r_i_glide_eff_state_penalty>  (379) 
0

>  <ligand_id>  (379) 
105

>  <original_smiles>  (379) 
CC12CCC(O)CC1CCC13OC4CC5CC(C4)C4(CC5C1(C)CCC23)OOC1(CCCC1)OO4

>  <smiles>  (379) 
[H]OC1([H])C([H])([H])C([H])([H])C2(C([H])([H])[H])C([H])(C([H])([H])C([H])([H])C34OC5([H])C([H])([H])C6([H])C([H])([H])C([H])(C5([H])[H])C([H])(C([H])([H])C65OOC6(OO5)C([H])([H])C([H])([H])C([H])([H])C6([H])[H])C3(C([H])([H])[H])C([H])([H])C([H])([H])C42[H])C1([H])[H]

$$$$
105:0:2
     RDKit          3D

 79 86  0  0  1  0  0  0  0  0999 V2000
   -0.5380   -5.9593    5.3709 C   0  0  0  0  0  0  0  0  0  0  0  0
    0.7870   -6.7026    5.6669 C   0  0  1  0  0  0  0  0  0  0  0  0
    1.9374   -5.6527    5.6510 C   0  0  0  0  0  0  0  0  0  0  0  0
    1.8351   -4.5985    6.7687 C   0  0  0  0  0  0  0  0  0  0  0  0
    1.6972   -5.2438    8.1577 C   0  0  1  0  0  0  0  0  0  0  0  0
    1.3796   -4.2343    9.0921 O   0  0  0  0  0  0  0  0  0  0  0  0
    0.6053   -6.3282    8.2115 C   0  0  0  0  0  0  0  0  0  0  0  0
    0.7232   -7.3691    7.0736 C   0  0  2  0  0  0  0  0  0  0  0  0
    1.9061   -8.3260    7.3056 C   0  0  0  0  0  0  0  0  0  0  0  0
    1.9236   -9.4331    6.2518 C   0  0  0  0  0  0  0  0  0  0  0  0
    2.0875   -8.8894    4.8061 C   0  0  1  0  0  0  0  0  0  0  0  0
    3.3430   -8.2130    4.6405 O   0  0  0  0  0  0  0  0  0  0  0  0
    4.6057   -8.8388    4.8739 C   0  0  1  0  0  0  0  0  0  0  0  0
    4.6922  -10.3097    4.4567 C   0  0  0  0  0  0  0  0  0  0  0  0
    4.3640  -10.4491    2.9604 C   0  0  2  0  0  0  0  0  0  0  0  0
    5.5119   -9.7737    2.1837 C   0  0  0  0  0  0  0  0  0  0  0  0
    5.5283   -8.2659    2.5159 C   0  0  2  0  0  0  0  0  0  0  0  0
    5.6564   -8.0655    4.0571 C   0  0  0  0  0  0  0  0  0  0  0  0
    4.3000   -7.5701    1.8623 C   0  0  0  0  0  0  0  0  0  0  0  0
    3.0800   -8.5391    1.6975 C   0  0  0  0  0  0  0  0  0  0  0  0
    2.9678   -9.8703    2.5455 C   0  0  2  0  0  0  0  0  0  0  0  0
    1.8329   -9.9421    3.6507 C   0  0  1  0  0  0  0  0  0  0  0  0
    1.6102  -11.4235    4.1135 C   0  0  0  0  0  0  0  0  0  0  0  0
    0.4331   -9.5691    3.0774 C   0  0  0  0  0  0  0  0  0  0  0  0
   -0.1824   -8.5502    4.0316 C   0  0  0  0  0  0  0  0  0  0  0  0
    1.0321   -7.7709    4.5394 C   0  0  1  0  0  0  0  0  0  0  0  0
    3.8510   -6.4226    2.6071 O   0  0  0  0  0  0  0  0  0  0  0  0
    4.9252   -5.3446    2.5939 O   0  0  0  0  0  0  0  0  0  0  0  0
    5.1763   -4.9722    1.2386 C   0  0  0  0  0  0  0  0  0  0  0  0
    3.9542   -4.2943    0.6014 C   0  0  0  0  0  0  0  0  0  0  0  0
    4.0717   -2.7918    0.8936 C   0  0  0  0  0  0  0  0  0  0  0  0
    5.4802   -2.5584    1.4590 C   0  0  0  0  0  0  0  0  0  0  0  0
    6.2425   -3.8631    1.2198 C   0  0  0  0  0  0  0  0  0  0  0  0
    5.6501   -6.0988    0.5032 O   0  0  0  0  0  0  0  0  0  0  0  0
    4.5947   -7.1775    0.5045 O   0  0  0  0  0  0  0  0  0  0  0  0
   -0.5264   -5.5153    4.3757 H   0  0  0  0  0  0  0  0  0  0  0  0
   -0.7404   -5.1559    6.0757 H   0  0  0  0  0  0  0  0  0  0  0  0
   -1.3913   -6.6322    5.4202 H   0  0  0  0  0  0  0  0  0  0  0  0
    2.9042   -6.1407    5.7558 H   0  0  0  0  0  0  0  0  0  0  0  0
    1.9737   -5.1504    4.6825 H   0  0  0  0  0  0  0  0  0  0  0  0
    2.7289   -3.9729    6.7525 H   0  0  0  0  0  0  0  0  0  0  0  0
    1.0037   -3.9200    6.5779 H   0  0  0  0  0  0  0  0  0  0  0  0
    2.6545   -5.6844    8.4384 H   0  0  0  0  0  0  0  0  0  0  0  0
    1.4406   -4.5961    9.9661 H   0  0  0  0  0  0  0  0  0  0  0  0
    0.6389   -6.8328    9.1781 H   0  0  0  0  0  0  0  0  0  0  0  0
   -0.3769   -5.8567    8.1702 H   0  0  0  0  0  0  0  0  0  0  0  0
   -0.1778   -7.9825    7.1187 H   0  0  0  0  0  0  0  0  0  0  0  0
    2.8569   -7.7962    7.2911 H   0  0  0  0  0  0  0  0  0  0  0  0
    1.8250   -8.7794    8.2934 H   0  0  0  0  0  0  0  0  0  0  0  0
    2.7041  -10.1440    6.5103 H   0  0  0  0  0  0  0  0  0  0  0  0
    0.9881   -9.9866    6.3420 H   0  0  0  0  0  0  0  0  0  0  0  0
    4.8204   -8.7636    5.9399 H   0  0  0  0  0  0  0  0  0  0  0  0
    5.7061  -10.6734    4.6372 H   0  0  0  0  0  0  0  0  0  0  0  0
    4.1024  -10.9398    5.1044 H   0  0  0  0  0  0  0  0  0  0  0  0
    4.3697  -11.5146    2.7301 H   0  0  0  0  0  0  0  0  0  0  0  0
    6.4598  -10.2288    2.4637 H   0  0  0  0  0  0  0  0  0  0  0  0
    5.4034   -9.9452    1.1136 H   0  0  0  0  0  0  0  0  0  0  0  0
    6.4271   -7.8345    2.0814 H   0  0  0  0  0  0  0  0  0  0  0  0
    5.6344   -7.0137    4.3269 H   0  0  0  0  0  0  0  0  0  0  0  0
    6.6371   -8.4212    4.3633 H   0  0  0  0  0  0  0  0  0  0  0  0
    2.1689   -7.9486    1.7340 H   0  0  0  0  0  0  0  0  0  0  0  0
    3.1302   -8.9051    0.6682 H   0  0  0  0  0  0  0  0  0  0  0  0
    2.6177  -10.5939    1.8079 H   0  0  0  0  0  0  0  0  0  0  0  0
    1.4118  -12.0688    3.2548 H   0  0  0  0  0  0  0  0  0  0  0  0
    0.7376  -11.5238    4.7604 H   0  0  0  0  0  0  0  0  0  0  0  0
    2.4212  -11.9014    4.6462 H   0  0  0  0  0  0  0  0  0  0  0  0
    0.4910   -9.1519    2.0753 H   0  0  0  0  0  0  0  0  0  0  0  0
   -0.2409  -10.4205    2.9720 H   0  0  0  0  0  0  0  0  0  0  0  0
   -0.9161   -7.9269    3.5213 H   0  0  0  0  0  0  0  0  0  0  0  0
   -0.6927   -9.0541    4.8563 H   0  0  0  0  0  0  0  0  0  0  0  0
    1.3695   -7.2037    3.6722 H   0  0  0  0  0  0  0  0  0  0  0  0
    3.9755   -4.4440   -0.4746 H   0  0  0  0  0  0  0  0  0  0  0  0
    3.0052   -4.7015    0.9470 H   0  0  0  0  0  0  0  0  0  0  0  0
    3.9086   -2.2080   -0.0189 H   0  0  0  0  0  0  0  0  0  0  0  0
    3.3272   -2.4596    1.6194 H   0  0  0  0  0  0  0  0  0  0  0  0
    5.9736   -1.6987    0.9908 H   0  0  0  0  0  0  0  0  0  0  0  0
    5.4108   -2.3471    2.5273 H   0  0  0  0  0  0  0  0  0  0  0  0
    7.0391   -4.0202    1.9496 H   0  0  0  0  0  0  0  0  0  0  0  0
    6.7026   -3.8148    0.2323 H   0  0  0  0  0  0  0  0  0  0  0  0
  2  1  1  6
  1 36  1  0
  1 37  1  0
  1 38  1  0
  2  8  1  0
  2 26  1  0
  2  3  1  0
  3  4  1  0
  3 39  1  0
  3 40  1  0
  4  5  1  0
  4 41  1  0
  4 42  1  0
  5  6  1  0
  5  7  1  0
  5 43  1  1
  6 44  1  0
  7  8  1  0
  7 45  1  0
  7 46  1  0
  8  9  1  0
  8 47  1  6
  9 10  1  0
  9 48  1  0
  9 49  1  0
 10 11  1  0
 10 50  1  0
 10 51  1  0
 11 22  1  0
 11 26  1  0
 11 12  1  1
 12 13  1  0
 13 18  1  0
 13 14  1  0
 13 52  1  1
 14 15  1  0
 14 53  1  0
 14 54  1  0
 15 21  1  0
 15 16  1  0
 15 55  1  6
 16 17  1  0
 16 56  1  0
 16 57  1  0
 17 18  1  0
 17 19  1  0
 17 58  1  6
 18 59  1  0
 18 60  1  0
 19 35  1  0
 19 20  1  0
 19 27  1  0
 20 21  1  0
 20 61  1  0
 20 62  1  0
 21 22  1  0
 21 63  1  6
 22 23  1  1
 22 24  1  0
 23 64  1  0
 23 65  1  0
 23 66  1  0
 24 25  1  0
 24 67  1  0
 24 68  1  0
 25 26  1  0
 25 69  1  0
 25 70  1  0
 26 71  1  6
 27 28  1  0
 28 29  1  0
 29 33  1  0
 29 30  1  0
 29 34  1  0
 30 31  1  0
 30 72  1  0
 30 73  1  0
 31 32  1  0
 31 74  1  0
 31 75  1  0
 32 33  1  0
 32 76  1  0
 32 77  1  0
 33 78  1  0
 33 79  1  0
 34 35  1  0
M  END
>  <i_m_ct_stereo_status>  (380) 
1

>  <s_m_source_file>  (380) 
/var/tmp/pbs.5076255.sched01/tmp0q3ly_rt/135fqi89qhj.sdf

>  <i_m_source_file_index>  (380) 
24

>  <i_lp_mmshare_version>  (380) 
48012

>  <i_f3d_flags>  (380) 
0

>  <s_epik_input>  (380) 
W0NIMl0xW0NIMl1bQ0BASF0oW09IXSlbQ0gyXVtDQEhdKFtDSDJdW0NIMl0yKVtDQF0xKFtDSDNdKVtDQEBIXTNbQ0gyXVtDSDJdW0NAQF0oW0NAXTIzNCkoW0NIM10pW0NAQEhdNVtDQEBIXTZbQ0gyXVtDQEhdKE80KVtDSDJdW0NAQEhdKFtDSDJdNilDNyhbQ0gyXTUpT09DOChPTzcpW0NIMl1bQ0gyXVtDSDJdW0NIMl04

>  <s_epik_cmdline>  (380) 
J2VwaWtfcHl0aG9uJywgJy1waHQnLCAnMi4wJywgJy1waCcsICc3LjAnLCAnLXRuJywgJzgnLCAnLW1hJywgJzIwMCcsICctaW1hZScsICc8aW5maWxlLm1hZT4nLCAnLW9tYWUnLCAnPG91dGZpbGUubWFlPic=

>  <r_lp_tautomer_probability>  (380) 
1

>  <r_epik_Ionization_Penalty>  (380) 
2.61528e-06

>  <r_epik_Ionization_Penalty_Charging>  (380) 
0

>  <r_epik_Ionization_Penalty_Neutral>  (380) 
2.61528e-06

>  <r_epik_State_Penalty>  (380) 
-0

>  <r_epik_Charging_Adjusted_Penalty>  (380) 
0

>  <i_epik_Tot_Q>  (380) 
0

>  <i_epik_Tot_abs_Q>  (380) 
0

>  <s_lp_Force_Field>  (380) 
OPLS3e

>  <r_lp_Energy>  (380) 
94.2435

>  <b_lp_Chiralities_Consistent>  (380) 
1

>  <s_lp_Variant>  (380) 
105:0-1

>  <s_i_glide_gridfile>  (380) 
pfpi4k_grid

>  <i_i_glide_lignum>  (380) 
24

>  <i_i_glide_rotatable_bonds>  (380) 
1

>  <r_i_docking_score>  (380) 
-2.11477

>  <r_i_glide_ligand_efficiency>  (380) 
-0.0604219

>  <r_i_glide_ligand_efficiency_sa>  (380) 
-0.197644

>  <r_i_glide_ligand_efficiency_ln>  (380) 
-0.464238

>  <r_i_glide_gscore>  (380) 
-2.11477

>  <r_i_glide_lipo>  (380) 
-0.24137

>  <r_i_glide_hbond>  (380) 
0

>  <r_i_glide_metal>  (380) 
-0

>  <r_i_glide_rewards>  (380) 
-0.186873

>  <r_i_glide_evdw>  (380) 
-30.373

>  <r_i_glide_ecoul>  (380) 
-1.11916

>  <r_i_glide_erotb>  (380) 
0

>  <r_i_glide_esite>  (380) 
0

>  <r_i_glide_emodel>  (380) 
-35.4879

>  <r_i_glide_energy>  (380) 
-31.4922

>  <r_i_glide_einternal>  (380) 
0.343979

>  <r_i_glide_intrahb_reward>  (380) 
-0

>  <i_i_glide_confnum>  (380) 
4

>  <i_i_glide_posenum>  (380) 
1

>  <r_i_glide_eff_state_penalty>  (380) 
0

>  <ligand_id>  (380) 
105

>  <original_smiles>  (380) 
CC12CCC(O)CC1CCC13OC4CC5CC(C4)C4(CC5C1(C)CCC23)OOC1(CCCC1)OO4

>  <smiles>  (380) 
[H]OC1([H])C([H])([H])C([H])([H])C2(C([H])([H])[H])C([H])(C([H])([H])C([H])([H])C34OC5([H])C([H])([H])C6([H])C([H])([H])C([H])(C5([H])[H])C([H])(C([H])([H])C65OOC6(OO5)C([H])([H])C([H])([H])C([H])([H])C6([H])[H])C3(C([H])([H])[H])C([H])([H])C([H])([H])C42[H])C1([H])[H]

$$$$
106:0:0
     RDKit          3D

 83 89  0  0  1  0  0  0  0  0999 V2000
   -1.3823    1.8685    2.5008 C   0  0  0  0  0  0  0  0  0  0  0  0
   -0.7554    1.2088    3.7315 C   0  0  1  0  0  0  0  0  0  0  0  0
    0.7838    1.0052    3.5814 C   0  0  0  0  0  0  0  0  0  0  0  0
    1.5211    0.5749    4.9119 C   0  0  1  0  0  0  0  0  0  0  0  0
    2.8522    1.3888    4.9107 C   0  0  0  0  0  0  0  0  0  0  0  0
    0.7144    1.0989    6.1365 C   0  0  0  0  0  0  0  0  0  0  0  0
   -0.7968    1.0977    5.9001 C   0  0  1  0  0  0  0  0  0  0  0  0
   -1.0147    1.9958    4.8388 O   0  0  0  0  0  0  0  0  0  0  0  0
   -1.3873   -0.1973    5.3254 C   0  0  2  0  0  0  0  0  0  0  0  0
   -0.6847   -1.5125    5.6873 C   0  0  0  0  0  0  0  0  0  0  0  0
    0.5488   -1.8849    4.8146 C   0  0  2  0  0  0  0  0  0  0  0  0
    0.7937   -3.4341    4.7664 C   0  0  2  0  0  0  0  0  0  0  0  0
    0.8421   -4.2030    6.0951 C   0  0  0  0  0  0  0  0  0  0  0  0
    0.6213   -3.6960    7.1943 O   0  0  0  0  0  0  0  0  0  0  0  0
    1.1046   -5.7024    5.9704 C   0  0  0  0  0  0  0  0  0  0  0  0
    0.3217   -6.4652    6.5371 O   0  0  0  0  0  0  0  0  0  0  0  0
    2.2800   -6.1630    5.0337 C   0  0  2  0  0  0  0  0  0  0  0  0
    2.1662   -5.3803    3.6598 C   0  0  1  0  0  0  0  0  0  0  0  0
    3.3596   -5.5504    2.6732 C   0  0  0  0  0  0  0  0  0  0  0  0
    0.9284   -5.9808    2.9460 C   0  0  0  0  0  0  0  0  0  0  0  0
    0.9964   -7.5177    2.7751 C   0  0  0  0  0  0  0  0  0  0  0  0
    1.2841   -8.3654    4.0606 C   0  0  1  0  0  0  0  0  0  0  0  0
    1.4403   -9.9100    3.7385 C   0  0  0  0  0  0  0  0  0  0  0  0
    1.1184  -10.7755    4.9825 C   0  0  0  0  0  0  0  0  0  0  0  0
    0.4021  -10.3764    2.6927 C   0  0  0  0  0  0  0  0  0  0  0  0
    2.8739  -10.2745    3.2403 C   0  0  1  0  0  0  0  0  0  0  0  0
    3.1318   -9.8552    1.9098 O   0  0  0  0  0  0  0  0  0  0  0  0
    3.9870   -9.7216    4.1438 C   0  0  0  0  0  0  0  0  0  0  0  0
    3.8385   -8.2079    4.4101 C   0  0  0  0  0  0  0  0  0  0  0  0
    2.4416   -7.7555    4.9515 C   0  0  1  0  0  0  0  0  0  0  0  0
    2.4314   -8.3100    6.4185 C   0  0  0  0  0  0  0  0  0  0  0  0
    2.0139   -3.8455    3.9500 C   0  0  0  0  0  0  0  0  0  0  0  0
    2.9223   -2.9034    3.5989 C   0  0  0  0  0  0  0  0  0  0  0  0
    2.8303   -1.4142    3.8874 C   0  0  0  0  0  0  0  0  0  0  0  0
    1.8292   -0.9997    5.0067 C   0  0  1  0  0  0  0  0  0  0  0  0
    2.5223   -1.3675    6.3548 C   0  0  0  0  0  0  0  0  0  0  0  0
   -1.3764   -0.0093    3.9299 O   0  0  0  0  0  0  0  0  0  0  0  0
   -2.4580    1.9821    2.6348 H   0  0  0  0  0  0  0  0  0  0  0  0
   -1.1934    1.2548    1.6178 H   0  0  0  0  0  0  0  0  0  0  0  0
   -0.9475    2.8571    2.3484 H   0  0  0  0  0  0  0  0  0  0  0  0
    0.9414    0.3161    2.7542 H   0  0  0  0  0  0  0  0  0  0  0  0
    1.1666    1.9676    3.2378 H   0  0  0  0  0  0  0  0  0  0  0  0
    3.4545    1.2393    5.8046 H   0  0  0  0  0  0  0  0  0  0  0  0
    2.6518    2.4613    4.8755 H   0  0  0  0  0  0  0  0  0  0  0  0
    3.4752    1.1837    4.0401 H   0  0  0  0  0  0  0  0  0  0  0  0
    0.9507    0.5704    7.0560 H   0  0  0  0  0  0  0  0  0  0  0  0
    0.9837    2.1344    6.3481 H   0  0  0  0  0  0  0  0  0  0  0  0
   -1.3239    1.4237    6.7949 H   0  0  0  0  0  0  0  0  0  0  0  0
   -2.4331   -0.2561    5.6248 H   0  0  0  0  0  0  0  0  0  0  0  0
   -0.4496   -1.5046    6.7495 H   0  0  0  0  0  0  0  0  0  0  0  0
   -1.4224   -2.3025    5.5515 H   0  0  0  0  0  0  0  0  0  0  0  0
    0.2395   -1.7010    3.7878 H   0  0  0  0  0  0  0  0  0  0  0  0
   -0.0773   -3.8277    4.2511 H   0  0  0  0  0  0  0  0  0  0  0  0
    3.1790   -5.7922    5.5251 H   0  0  0  0  0  0  0  0  0  0  0  0
    3.3649   -6.4862    2.1233 H   0  0  0  0  0  0  0  0  0  0  0  0
    4.3222   -5.4333    3.1737 H   0  0  0  0  0  0  0  0  0  0  0  0
    3.3082   -4.8278    1.8571 H   0  0  0  0  0  0  0  0  0  0  0  0
    0.0041   -5.7624    3.4784 H   0  0  0  0  0  0  0  0  0  0  0  0
    0.8184   -5.5186    1.9652 H   0  0  0  0  0  0  0  0  0  0  0  0
    0.0268   -7.8100    2.3738 H   0  0  0  0  0  0  0  0  0  0  0  0
    1.7004   -7.7707    1.9872 H   0  0  0  0  0  0  0  0  0  0  0  0
    0.3631   -8.2753    4.6382 H   0  0  0  0  0  0  0  0  0  0  0  0
    0.9619  -11.8226    4.7190 H   0  0  0  0  0  0  0  0  0  0  0  0
    0.2158  -10.4390    5.4960 H   0  0  0  0  0  0  0  0  0  0  0  0
    1.9236  -10.7934    5.7116 H   0  0  0  0  0  0  0  0  0  0  0  0
    0.4594  -11.4522    2.5292 H   0  0  0  0  0  0  0  0  0  0  0  0
    0.5745   -9.9224    1.7173 H   0  0  0  0  0  0  0  0  0  0  0  0
   -0.6179  -10.1479    3.0047 H   0  0  0  0  0  0  0  0  0  0  0  0
    2.9626  -11.3606    3.2167 H   0  0  0  0  0  0  0  0  0  0  0  0
    3.5387  -10.5730    1.4377 H   0  0  0  0  0  0  0  0  0  0  0  0
    4.0181  -10.2827    5.0742 H   0  0  0  0  0  0  0  0  0  0  0  0
    4.9590   -9.9097    3.6863 H   0  0  0  0  0  0  0  0  0  0  0  0
    4.6199   -7.8801    5.0977 H   0  0  0  0  0  0  0  0  0  0  0  0
    4.0970   -7.7570    3.4703 H   0  0  0  0  0  0  0  0  0  0  0  0
    3.0639   -9.1774    6.5845 H   0  0  0  0  0  0  0  0  0  0  0  0
    1.4372   -8.6112    6.7480 H   0  0  0  0  0  0  0  0  0  0  0  0
    2.8043   -7.5723    7.1295 H   0  0  0  0  0  0  0  0  0  0  0  0
    3.8196   -3.1496    3.0531 H   0  0  0  0  0  0  0  0  0  0  0  0
    3.8343   -1.0765    4.1449 H   0  0  0  0  0  0  0  0  0  0  0  0
    2.6008   -0.9468    2.9324 H   0  0  0  0  0  0  0  0  0  0  0  0
    2.9464   -2.3699    6.3202 H   0  0  0  0  0  0  0  0  0  0  0  0
    1.8371   -1.3624    7.2008 H   0  0  0  0  0  0  0  0  0  0  0  0
    3.3574   -0.7186    6.6075 H   0  0  0  0  0  0  0  0  0  0  0  0
  2  1  1  6
  1 38  1  0
  1 39  1  0
  1 40  1  0
  2  8  1  0
  2 37  1  0
  2  3  1  0
  3  4  1  0
  3 41  1  0
  3 42  1  0
  4 35  1  0
  4  5  1  6
  4  6  1  0
  5 43  1  0
  5 44  1  0
  5 45  1  0
  6  7  1  0
  6 46  1  0
  6 47  1  0
  7  8  1  0
  7  9  1  0
  7 48  1  1
  9 10  1  0
  9 37  1  0
  9 49  1  1
 10 11  1  0
 10 50  1  0
 10 51  1  0
 11 35  1  0
 11 12  1  0
 11 52  1  6
 12 32  1  0
 12 13  1  0
 12 53  1  6
 13 14  2  0
 13 15  1  0
 15 16  2  0
 15 17  1  0
 17 30  1  0
 17 18  1  0
 17 54  1  1
 18 19  1  6
 18 20  1  0
 18 32  1  0
 19 55  1  0
 19 56  1  0
 19 57  1  0
 20 21  1  0
 20 58  1  0
 20 59  1  0
 21 22  1  0
 21 60  1  0
 21 61  1  0
 22 30  1  0
 22 23  1  0
 22 62  1  1
 23 24  1  0
 23 25  1  0
 23 26  1  0
 24 63  1  0
 24 64  1  0
 24 65  1  0
 25 66  1  0
 25 67  1  0
 25 68  1  0
 26 27  1  0
 26 28  1  0
 26 69  1  6
 27 70  1  0
 28 29  1  0
 28 71  1  0
 28 72  1  0
 29 30  1  0
 29 73  1  0
 29 74  1  0
 30 31  1  1
 31 75  1  0
 31 76  1  0
 31 77  1  0
 32 33  2  0
 33 34  1  0
 33 78  1  0
 34 35  1  0
 34 79  1  0
 34 80  1  0
 35 36  1  1
 36 81  1  0
 36 82  1  0
 36 83  1  0
M  END
>  <i_m_ct_stereo_status>  (381) 
1

>  <s_m_source_file>  (381) 
/var/tmp/pbs.5076255.sched01/tmp0q3ly_rt/135fqi89qhj.sdf

>  <i_m_source_file_index>  (381) 
25

>  <i_lp_mmshare_version>  (381) 
48012

>  <i_f3d_flags>  (381) 
0

>  <s_epik_input>  (381) 
W0NIM11bQ0BAXTEyW0NIMl1bQ0BdMyhbQ0gzXSlbQ0BAXTQoW0NIM10pW0NASF0oW0NIMl1bQ0BIXShPMilbQ0BIXShPMSlbQ0gyXTMpW0NASF01Qyg9W0NIXVtDSDJdNClbQ0BAXTYoW0NIM10pW0NAQEhdKEMoPU8pQzU9TylbQ0BAXTcoW0NIM10pW0NAQEhdKFtDSDJdW0NIMl02KUMoW0NIM10pKFtDSDNdKVtDQEBIXShbT0hdKVtDSDJdW0NIMl03

>  <s_epik_cmdline>  (381) 
J2VwaWtfcHl0aG9uJywgJy1waHQnLCAnMi4wJywgJy1waCcsICc3LjAnLCAnLXRuJywgJzgnLCAnLW1hJywgJzIwMCcsICctaW1hZScsICc8aW5maWxlLm1hZT4nLCAnLW9tYWUnLCAnPG91dGZpbGUubWFlPic=

>  <r_lp_tautomer_probability>  (381) 
1

>  <r_epik_Ionization_Penalty>  (381) 
1.45475e-06

>  <r_epik_Ionization_Penalty_Charging>  (381) 
0

>  <r_epik_Ionization_Penalty_Neutral>  (381) 
1.45475e-06

>  <r_epik_State_Penalty>  (381) 
-0

>  <r_epik_Charging_Adjusted_Penalty>  (381) 
0

>  <i_epik_Tot_Q>  (381) 
0

>  <i_epik_Tot_abs_Q>  (381) 
0

>  <s_lp_Force_Field>  (381) 
OPLS3e

>  <r_lp_Energy>  (381) 
95.2355

>  <b_lp_Chiralities_Consistent>  (381) 
1

>  <s_lp_Variant>  (381) 
106:0-1

>  <s_i_glide_gridfile>  (381) 
pfpi4k_grid

>  <i_i_glide_lignum>  (381) 
25

>  <i_i_glide_rotatable_bonds>  (381) 
1

>  <r_i_docking_score>  (381) 
-2.36185

>  <r_i_glide_ligand_efficiency>  (381) 
-0.0638338

>  <r_i_glide_ligand_efficiency_sa>  (381) 
-0.212709

>  <r_i_glide_ligand_efficiency_ln>  (381) 
-0.51223

>  <r_i_glide_gscore>  (381) 
-2.36185

>  <r_i_glide_lipo>  (381) 
-0.167647

>  <r_i_glide_hbond>  (381) 
-0.16

>  <r_i_glide_metal>  (381) 
-0

>  <r_i_glide_rewards>  (381) 
0

>  <r_i_glide_evdw>  (381) 
-31.5165

>  <r_i_glide_ecoul>  (381) 
-2.86507

>  <r_i_glide_erotb>  (381) 
0

>  <r_i_glide_esite>  (381) 
-0.0286179

>  <r_i_glide_emodel>  (381) 
-38.9537

>  <r_i_glide_energy>  (381) 
-34.3816

>  <r_i_glide_einternal>  (381) 
1.24175

>  <r_i_glide_intrahb_reward>  (381) 
-0

>  <i_i_glide_confnum>  (381) 
1

>  <i_i_glide_posenum>  (381) 
11

>  <r_i_glide_eff_state_penalty>  (381) 
0

>  <ligand_id>  (381) 
106

>  <original_smiles>  (381) 
CC12CC3(C)CC(O1)C(CC1C4C(=O)C(=O)C5C(C)(CCC6C(C)(C)C(O)CCC56C)C4=CCC13C)O2

>  <smiles>  (381) 
[H]OC1([H])C([H])([H])C([H])([H])C2(C([H])([H])[H])C3([H])C(=O)C(=O)C4([H])C(=C([H])C([H])([H])C5(C([H])([H])[H])C4([H])C([H])([H])C4([H])OC6(C([H])([H])[H])OC4([H])C([H])([H])C5(C([H])([H])[H])C6([H])[H])C3(C([H])([H])[H])C([H])([H])C([H])([H])C2([H])C1(C([H])([H])[H])C([H])([H])[H]

$$$$
106:0:1
     RDKit          3D

 83 89  0  0  1  0  0  0  0  0999 V2000
   -1.7960   -8.9063    2.4773 C   0  0  0  0  0  0  0  0  0  0  0  0
   -0.4208   -8.3930    2.8950 C   0  0  1  0  0  0  0  0  0  0  0  0
   -0.3217   -8.1356    4.4272 C   0  0  0  0  0  0  0  0  0  0  0  0
    1.1439   -7.8653    4.9519 C   0  0  1  0  0  0  0  0  0  0  0  0
    1.2302   -8.6386    6.3043 C   0  0  0  0  0  0  0  0  0  0  0  0
    2.1642   -8.5668    4.0054 C   0  0  0  0  0  0  0  0  0  0  0  0
    1.7150   -8.5736    2.5437 C   0  0  1  0  0  0  0  0  0  0  0  0
    0.5274   -9.3244    2.5210 O   0  0  0  0  0  0  0  0  0  0  0  0
    1.2280   -7.2299    1.9801 C   0  0  2  0  0  0  0  0  0  0  0  0
    1.8584   -5.9590    2.5670 C   0  0  0  0  0  0  0  0  0  0  0  0
    1.2247   -5.4414    3.8920 C   0  0  2  0  0  0  0  0  0  0  0  0
    1.4009   -3.8917    4.0685 C   0  0  2  0  0  0  0  0  0  0  0  0
    2.8075   -3.2999    3.8995 C   0  0  0  0  0  0  0  0  0  0  0  0
    3.7980   -3.9521    3.5712 O   0  0  0  0  0  0  0  0  0  0  0  0
    2.9129   -1.7914    4.1083 C   0  0  0  0  0  0  0  0  0  0  0  0
    3.4671   -1.1287    3.2315 O   0  0  0  0  0  0  0  0  0  0  0  0
    2.2178   -1.1831    5.3782 C   0  0  2  0  0  0  0  0  0  0  0  0
    0.7544   -1.7828    5.4885 C   0  0  1  0  0  0  0  0  0  0  0  0
   -0.0172   -1.4537    6.7970 C   0  0  0  0  0  0  0  0  0  0  0  0
   -0.0530   -1.1316    4.3358 C   0  0  0  0  0  0  0  0  0  0  0  0
   -0.0114    0.4161    4.3576 C   0  0  0  0  0  0  0  0  0  0  0  0
    1.3986    1.0992    4.4287 C   0  0  1  0  0  0  0  0  0  0  0  0
    1.2994    2.6770    4.5561 C   0  0  0  0  0  0  0  0  0  0  0  0
    2.5881    3.3648    4.0267 C   0  0  0  0  0  0  0  0  0  0  0  0
    0.1672    3.2492    3.6654 C   0  0  0  0  0  0  0  0  0  0  0  0
    1.0666    3.1329    6.0278 C   0  0  1  0  0  0  0  0  0  0  0  0
   -0.2512    2.8763    6.4726 O   0  0  0  0  0  0  0  0  0  0  0  0
    2.0389    2.5007    7.0307 C   0  0  0  0  0  0  0  0  0  0  0  0
    2.0882    0.9644    6.9146 C   0  0  0  0  0  0  0  0  0  0  0  0
    2.3623    0.4092    5.4786 C   0  0  1  0  0  0  0  0  0  0  0  0
    3.8715    0.7693    5.2434 C   0  0  0  0  0  0  0  0  0  0  0  0
    0.8255   -3.3460    5.3700 C   0  0  0  0  0  0  0  0  0  0  0  0
    0.4912   -4.2096    6.3603 C   0  0  0  0  0  0  0  0  0  0  0  0
    0.5754   -5.7252    6.2977 C   0  0  0  0  0  0  0  0  0  0  0  0
    1.4809   -6.3089    5.1729 C   0  0  1  0  0  0  0  0  0  0  0  0
    2.9487   -6.1030    5.6562 C   0  0  0  0  0  0  0  0  0  0  0  0
   -0.1696   -7.2241    2.1972 O   0  0  0  0  0  0  0  0  0  0  0  0
   -1.8175   -9.0552    1.3962 H   0  0  0  0  0  0  0  0  0  0  0  0
   -2.5621   -8.1805    2.7526 H   0  0  0  0  0  0  0  0  0  0  0  0
   -2.0078   -9.8528    2.9679 H   0  0  0  0  0  0  0  0  0  0  0  0
   -1.0256   -7.3417    4.6701 H   0  0  0  0  0  0  0  0  0  0  0  0
   -0.7220   -9.0384    4.8915 H   0  0  0  0  0  0  0  0  0  0  0  0
    2.2131   -8.5923    6.7685 H   0  0  0  0  0  0  0  0  0  0  0  0
    1.0348   -9.7034    6.1584 H   0  0  0  0  0  0  0  0  0  0  0  0
    0.4910   -8.3044    7.0310 H   0  0  0  0  0  0  0  0  0  0  0  0
    3.1675   -8.1580    4.0865 H   0  0  0  0  0  0  0  0  0  0  0  0
    2.2808   -9.6135    4.2895 H   0  0  0  0  0  0  0  0  0  0  0  0
    2.4739   -9.0312    1.9111 H   0  0  0  0  0  0  0  0  0  0  0  0
    1.3843   -7.2440    0.9019 H   0  0  0  0  0  0  0  0  0  0  0  0
    2.9335   -6.1061    2.6513 H   0  0  0  0  0  0  0  0  0  0  0  0
    1.7292   -5.1771    1.8202 H   0  0  0  0  0  0  0  0  0  0  0  0
    0.1506   -5.4989    3.7387 H   0  0  0  0  0  0  0  0  0  0  0  0
    0.8179   -3.4581    3.2610 H   0  0  0  0  0  0  0  0  0  0  0  0
    2.7826   -1.5914    6.2158 H   0  0  0  0  0  0  0  0  0  0  0  0
   -0.4374   -0.4541    6.8369 H   0  0  0  0  0  0  0  0  0  0  0  0
    0.5961   -1.6107    7.6860 H   0  0  0  0  0  0  0  0  0  0  0  0
   -0.9146   -2.0675    6.8781 H   0  0  0  0  0  0  0  0  0  0  0  0
    0.3027   -1.4453    3.3556 H   0  0  0  0  0  0  0  0  0  0  0  0
   -1.0919   -1.4646    4.3777 H   0  0  0  0  0  0  0  0  0  0  0  0
   -0.5048    0.7310    3.4380 H   0  0  0  0  0  0  0  0  0  0  0  0
   -0.6540    0.7870    5.1501 H   0  0  0  0  0  0  0  0  0  0  0  0
    1.8220    0.9086    3.4421 H   0  0  0  0  0  0  0  0  0  0  0  0
    2.4343    4.4314    3.8567 H   0  0  0  0  0  0  0  0  0  0  0  0
    2.9193    2.9361    3.0789 H   0  0  0  0  0  0  0  0  0  0  0  0
    3.4224    3.3070    4.7211 H   0  0  0  0  0  0  0  0  0  0  0  0
    0.1585    4.3397    3.6741 H   0  0  0  0  0  0  0  0  0  0  0  0
   -0.8297    2.9290    3.9675 H   0  0  0  0  0  0  0  0  0  0  0  0
    0.3014    2.9386    2.6277 H   0  0  0  0  0  0  0  0  0  0  0  0
    1.1843    4.2146    6.0786 H   0  0  0  0  0  0  0  0  0  0  0  0
   -0.8444    3.2999    5.8749 H   0  0  0  0  0  0  0  0  0  0  0  0
    3.0259    2.9382    6.9114 H   0  0  0  0  0  0  0  0  0  0  0  0
    1.7443    2.7738    8.0454 H   0  0  0  0  0  0  0  0  0  0  0  0
    2.8348    0.5729    7.6070 H   0  0  0  0  0  0  0  0  0  0  0  0
    1.1464    0.6475    7.3225 H   0  0  0  0  0  0  0  0  0  0  0  0
    4.2345    1.6228    5.8094 H   0  0  0  0  0  0  0  0  0  0  0  0
    4.0924    1.0002    4.2007 H   0  0  0  0  0  0  0  0  0  0  0  0
    4.5289   -0.0450    5.5456 H   0  0  0  0  0  0  0  0  0  0  0  0
    0.1195   -3.8710    7.3138 H   0  0  0  0  0  0  0  0  0  0  0  0
    0.9309   -6.0656    7.2706 H   0  0  0  0  0  0  0  0  0  0  0  0
   -0.4530   -6.0710    6.2251 H   0  0  0  0  0  0  0  0  0  0  0  0
    3.1023   -5.0937    6.0345 H   0  0  0  0  0  0  0  0  0  0  0  0
    3.6785   -6.2371    4.8590 H   0  0  0  0  0  0  0  0  0  0  0  0
    3.2347   -6.7585    6.4744 H   0  0  0  0  0  0  0  0  0  0  0  0
  2  1  1  1
  1 38  1  0
  1 39  1  0
  1 40  1  0
  2  8  1  0
  2 37  1  0
  2  3  1  0
  3  4  1  0
  3 41  1  0
  3 42  1  0
  4 35  1  0
  4  5  1  1
  4  6  1  0
  5 43  1  0
  5 44  1  0
  5 45  1  0
  6  7  1  0
  6 46  1  0
  6 47  1  0
  7  8  1  0
  7  9  1  0
  7 48  1  6
  9 10  1  0
  9 37  1  0
  9 49  1  6
 10 11  1  0
 10 50  1  0
 10 51  1  0
 11 35  1  0
 11 12  1  0
 11 52  1  6
 12 32  1  0
 12 13  1  0
 12 53  1  6
 13 14  2  0
 13 15  1  0
 15 16  2  0
 15 17  1  0
 17 30  1  0
 17 18  1  0
 17 54  1  1
 18 19  1  1
 18 20  1  0
 18 32  1  0
 19 55  1  0
 19 56  1  0
 19 57  1  0
 20 21  1  0
 20 58  1  0
 20 59  1  0
 21 22  1  0
 21 60  1  0
 21 61  1  0
 22 30  1  0
 22 23  1  0
 22 62  1  6
 23 24  1  0
 23 25  1  0
 23 26  1  0
 24 63  1  0
 24 64  1  0
 24 65  1  0
 25 66  1  0
 25 67  1  0
 25 68  1  0
 26 27  1  0
 26 28  1  0
 26 69  1  6
 27 70  1  0
 28 29  1  0
 28 71  1  0
 28 72  1  0
 29 30  1  0
 29 73  1  0
 29 74  1  0
 30 31  1  6
 31 75  1  0
 31 76  1  0
 31 77  1  0
 32 33  2  0
 33 34  1  0
 33 78  1  0
 34 35  1  0
 34 79  1  0
 34 80  1  0
 35 36  1  1
 36 81  1  0
 36 82  1  0
 36 83  1  0
M  END
>  <i_m_ct_stereo_status>  (382) 
1

>  <s_m_source_file>  (382) 
/var/tmp/pbs.5076255.sched01/tmp0q3ly_rt/135fqi89qhj.sdf

>  <i_m_source_file_index>  (382) 
25

>  <i_lp_mmshare_version>  (382) 
48012

>  <i_f3d_flags>  (382) 
0

>  <s_epik_input>  (382) 
W0NIM11bQ0BAXTEyW0NIMl1bQ0BdMyhbQ0gzXSlbQ0BAXTQoW0NIM10pW0NASF0oW0NIMl1bQ0BIXShPMilbQ0BIXShPMSlbQ0gyXTMpW0NASF01Qyg9W0NIXVtDSDJdNClbQ0BAXTYoW0NIM10pW0NAQEhdKEMoPU8pQzU9TylbQ0BAXTcoW0NIM10pW0NAQEhdKFtDSDJdW0NIMl02KUMoW0NIM10pKFtDSDNdKVtDQEBIXShbT0hdKVtDSDJdW0NIMl03

>  <s_epik_cmdline>  (382) 
J2VwaWtfcHl0aG9uJywgJy1waHQnLCAnMi4wJywgJy1waCcsICc3LjAnLCAnLXRuJywgJzgnLCAnLW1hJywgJzIwMCcsICctaW1hZScsICc8aW5maWxlLm1hZT4nLCAnLW9tYWUnLCAnPG91dGZpbGUubWFlPic=

>  <r_lp_tautomer_probability>  (382) 
1

>  <r_epik_Ionization_Penalty>  (382) 
1.45475e-06

>  <r_epik_Ionization_Penalty_Charging>  (382) 
0

>  <r_epik_Ionization_Penalty_Neutral>  (382) 
1.45475e-06

>  <r_epik_State_Penalty>  (382) 
-0

>  <r_epik_Charging_Adjusted_Penalty>  (382) 
0

>  <i_epik_Tot_Q>  (382) 
0

>  <i_epik_Tot_abs_Q>  (382) 
0

>  <s_lp_Force_Field>  (382) 
OPLS3e

>  <r_lp_Energy>  (382) 
95.2355

>  <b_lp_Chiralities_Consistent>  (382) 
1

>  <s_lp_Variant>  (382) 
106:0-1

>  <s_i_glide_gridfile>  (382) 
pfpi4k_grid

>  <i_i_glide_lignum>  (382) 
25

>  <i_i_glide_rotatable_bonds>  (382) 
1

>  <r_i_docking_score>  (382) 
-2.03052

>  <r_i_glide_ligand_efficiency>  (382) 
-0.0548789

>  <r_i_glide_ligand_efficiency_sa>  (382) 
-0.182869

>  <r_i_glide_ligand_efficiency_ln>  (382) 
-0.440372

>  <r_i_glide_gscore>  (382) 
-2.03052

>  <r_i_glide_lipo>  (382) 
-0.228325

>  <r_i_glide_hbond>  (382) 
-0.00357239

>  <r_i_glide_metal>  (382) 
-0

>  <r_i_glide_rewards>  (382) 
-0.000795322

>  <r_i_glide_evdw>  (382) 
-32.3737

>  <r_i_glide_ecoul>  (382) 
-0.894404

>  <r_i_glide_erotb>  (382) 
0

>  <r_i_glide_esite>  (382) 
-0.0449807

>  <r_i_glide_emodel>  (382) 
-37.7561

>  <r_i_glide_energy>  (382) 
-33.2681

>  <r_i_glide_einternal>  (382) 
0.344844

>  <r_i_glide_intrahb_reward>  (382) 
-0

>  <i_i_glide_confnum>  (382) 
2

>  <i_i_glide_posenum>  (382) 
7

>  <r_i_glide_eff_state_penalty>  (382) 
0

>  <ligand_id>  (382) 
106

>  <original_smiles>  (382) 
CC12CC3(C)CC(O1)C(CC1C4C(=O)C(=O)C5C(C)(CCC6C(C)(C)C(O)CCC56C)C4=CCC13C)O2

>  <smiles>  (382) 
[H]OC1([H])C([H])([H])C([H])([H])C2(C([H])([H])[H])C3([H])C(=O)C(=O)C4([H])C(=C([H])C([H])([H])C5(C([H])([H])[H])C4([H])C([H])([H])C4([H])OC6(C([H])([H])[H])OC4([H])C([H])([H])C5(C([H])([H])[H])C6([H])[H])C3(C([H])([H])[H])C([H])([H])C([H])([H])C2([H])C1(C([H])([H])[H])C([H])([H])[H]

$$$$
106:0:2
     RDKit          3D

 83 89  0  0  1  0  0  0  0  0999 V2000
   -1.7754   -8.8861    2.7483 C   0  0  0  0  0  0  0  0  0  0  0  0
   -0.3897   -8.2860    3.0005 C   0  0  1  0  0  0  0  0  0  0  0  0
   -0.1193   -8.0054    4.5111 C   0  0  0  0  0  0  0  0  0  0  0  0
    1.3800   -7.6384    4.8543 C   0  0  1  0  0  0  0  0  0  0  0  0
    1.6793   -8.3860    6.1896 C   0  0  0  0  0  0  0  0  0  0  0  0
    2.3211   -8.2873    3.7952 C   0  0  0  0  0  0  0  0  0  0  0  0
    1.6987   -8.3419    2.3990 C   0  0  1  0  0  0  0  0  0  0  0  0
    0.5632   -9.1622    2.5192 O   0  0  0  0  0  0  0  0  0  0  0  0
    1.0682   -7.0378    1.8936 C   0  0  2  0  0  0  0  0  0  0  0  0
    1.6881   -5.7266    2.3979 C   0  0  0  0  0  0  0  0  0  0  0  0
    1.1847   -5.2287    3.7848 C   0  0  2  0  0  0  0  0  0  0  0  0
    1.2838   -3.6679    3.9310 C   0  0  2  0  0  0  0  0  0  0  0  0
    2.6203   -2.9929    3.5878 C   0  0  0  0  0  0  0  0  0  0  0  0
    3.6016   -3.5865    3.1466 O   0  0  0  0  0  0  0  0  0  0  0  0
    2.6526   -1.4770    3.7757 C   0  0  0  0  0  0  0  0  0  0  0  0
    3.0526   -0.7929    2.8340 O   0  0  0  0  0  0  0  0  0  0  0  0
    2.0791   -0.8975    5.1181 C   0  0  2  0  0  0  0  0  0  0  0  0
    0.6815   -1.5856    5.4095 C   0  0  1  0  0  0  0  0  0  0  0  0
    0.0547   -1.2884    6.8008 C   0  0  0  0  0  0  0  0  0  0  0  0
   -0.2982   -0.9985    4.3614 C   0  0  0  0  0  0  0  0  0  0  0  0
   -0.3563    0.5483    4.3688 C   0  0  0  0  0  0  0  0  0  0  0  0
    1.0067    1.3182    4.2650 C   0  0  1  0  0  0  0  0  0  0  0  0
    0.8251    2.8894    4.3951 C   0  0  0  0  0  0  0  0  0  0  0  0
    1.9943    3.6474    3.7082 C   0  0  0  0  0  0  0  0  0  0  0  0
   -0.4436    3.3781    3.6490 C   0  0  0  0  0  0  0  0  0  0  0  0
    0.7458    3.3546    5.8815 C   0  0  1  0  0  0  0  0  0  0  0  0
   -0.4898    3.0311    6.4881 O   0  0  0  0  0  0  0  0  0  0  0  0
    1.8696    2.7887    6.7611 C   0  0  0  0  0  0  0  0  0  0  0  0
    2.0003    1.2563    6.6491 C   0  0  0  0  0  0  0  0  0  0  0  0
    2.1330    0.7021    5.1925 C   0  0  1  0  0  0  0  0  0  0  0  0
    3.5771    1.1507    4.7732 C   0  0  0  0  0  0  0  0  0  0  0  0
    0.8354   -3.1423    5.2893 C   0  0  0  0  0  0  0  0  0  0  0  0
    0.6778   -4.0134    6.3163 C   0  0  0  0  0  0  0  0  0  0  0  0
    0.8468   -5.5207    6.2505 C   0  0  0  0  0  0  0  0  0  0  0  0
    1.6453   -6.0623    5.0274 C   0  0  1  0  0  0  0  0  0  0  0  0
    3.1450   -5.7600    5.3271 C   0  0  0  0  0  0  0  0  0  0  0  0
   -0.2913   -7.1113    2.2746 O   0  0  0  0  0  0  0  0  0  0  0  0
   -1.9241   -9.0537    1.6809 H   0  0  0  0  0  0  0  0  0  0  0  0
   -2.5448   -8.2085    3.1203 H   0  0  0  0  0  0  0  0  0  0  0  0
   -1.8576   -9.8413    3.2690 H   0  0  0  0  0  0  0  0  0  0  0  0
   -0.8363   -7.2534    4.8355 H   0  0  0  0  0  0  0  0  0  0  0  0
   -0.4023   -8.9255    5.0260 H   0  0  0  0  0  0  0  0  0  0  0  0
    2.7061   -8.2726    6.5309 H   0  0  0  0  0  0  0  0  0  0  0  0
    1.5334   -9.4623    6.0752 H   0  0  0  0  0  0  0  0  0  0  0  0
    1.0147   -8.0881    6.9999 H   0  0  0  0  0  0  0  0  0  0  0  0
    3.2994   -7.8160    3.7517 H   0  0  0  0  0  0  0  0  0  0  0  0
    2.5371   -9.3210    4.0676 H   0  0  0  0  0  0  0  0  0  0  0  0
    2.4037   -8.7584    1.6810 H   0  0  0  0  0  0  0  0  0  0  0  0
    1.0929   -7.0541    0.8043 H   0  0  0  0  0  0  0  0  0  0  0  0
    2.7723   -5.8049    2.3484 H   0  0  0  0  0  0  0  0  0  0  0  0
    1.4230   -4.9630    1.6709 H   0  0  0  0  0  0  0  0  0  0  0  0
    0.1067   -5.3563    3.7645 H   0  0  0  0  0  0  0  0  0  0  0  0
    0.5851   -3.2797    3.1962 H   0  0  0  0  0  0  0  0  0  0  0  0
    2.7665   -1.2595    5.8819 H   0  0  0  0  0  0  0  0  0  0  0  0
   -0.4226   -0.3180    6.8864 H   0  0  0  0  0  0  0  0  0  0  0  0
    0.7807   -1.3957    7.6095 H   0  0  0  0  0  0  0  0  0  0  0  0
   -0.7813   -1.9599    6.9952 H   0  0  0  0  0  0  0  0  0  0  0  0
   -0.0367   -1.2981    3.3476 H   0  0  0  0  0  0  0  0  0  0  0  0
   -1.3017   -1.3973    4.5241 H   0  0  0  0  0  0  0  0  0  0  0  0
   -0.9727    0.8180    3.5116 H   0  0  0  0  0  0  0  0  0  0  0  0
   -0.9264    0.8869    5.2275 H   0  0  0  0  0  0  0  0  0  0  0  0
    1.3188    1.1426    3.2341 H   0  0  0  0  0  0  0  0  0  0  0  0
    1.7547    4.6998    3.5546 H   0  0  0  0  0  0  0  0  0  0  0  0
    2.2336    3.2294    2.7287 H   0  0  0  0  0  0  0  0  0  0  0  0
    2.9084    3.6491    4.2958 H   0  0  0  0  0  0  0  0  0  0  0  0
   -0.5146    4.4658    3.6576 H   0  0  0  0  0  0  0  0  0  0  0  0
   -1.3721    3.0048    4.0806 H   0  0  0  0  0  0  0  0  0  0  0  0
   -0.4233    3.0623    2.6039 H   0  0  0  0  0  0  0  0  0  0  0  0
    0.8068    4.4416    5.9106 H   0  0  0  0  0  0  0  0  0  0  0  0
   -0.5980    2.0969    6.4397 H   0  0  0  0  0  0  0  0  0  0  0  0
    2.8054    3.2824    6.5186 H   0  0  0  0  0  0  0  0  0  0  0  0
    1.6884    3.0577    7.8029 H   0  0  0  0  0  0  0  0  0  0  0  0
    2.8495    0.9197    7.2454 H   0  0  0  0  0  0  0  0  0  0  0  0
    1.1401    0.8835    7.1733 H   0  0  0  0  0  0  0  0  0  0  0  0
    3.9518    2.0318    5.2854 H   0  0  0  0  0  0  0  0  0  0  0  0
    3.6556    1.3802    3.7104 H   0  0  0  0  0  0  0  0  0  0  0  0
    4.3159    0.3819    4.9974 H   0  0  0  0  0  0  0  0  0  0  0  0
    0.4036   -3.6859    7.3064 H   0  0  0  0  0  0  0  0  0  0  0  0
    1.3382   -5.8257    7.1748 H   0  0  0  0  0  0  0  0  0  0  0  0
   -0.1596   -5.9302    6.3046 H   0  0  0  0  0  0  0  0  0  0  0  0
    3.2782   -4.7382    5.6784 H   0  0  0  0  0  0  0  0  0  0  0  0
    3.7803   -5.8592    4.4485 H   0  0  0  0  0  0  0  0  0  0  0  0
    3.5682   -6.3854    6.1086 H   0  0  0  0  0  0  0  0  0  0  0  0
  2  1  1  1
  1 38  1  0
  1 39  1  0
  1 40  1  0
  2  8  1  0
  2 37  1  0
  2  3  1  0
  3  4  1  0
  3 41  1  0
  3 42  1  0
  4 35  1  0
  4  5  1  1
  4  6  1  0
  5 43  1  0
  5 44  1  0
  5 45  1  0
  6  7  1  0
  6 46  1  0
  6 47  1  0
  7  8  1  0
  7  9  1  0
  7 48  1  6
  9 10  1  0
  9 37  1  0
  9 49  1  6
 10 11  1  0
 10 50  1  0
 10 51  1  0
 11 35  1  0
 11 12  1  0
 11 52  1  6
 12 32  1  0
 12 13  1  0
 12 53  1  6
 13 14  2  0
 13 15  1  0
 15 16  2  0
 15 17  1  0
 17 30  1  0
 17 18  1  0
 17 54  1  1
 18 19  1  1
 18 20  1  0
 18 32  1  0
 19 55  1  0
 19 56  1  0
 19 57  1  0
 20 21  1  0
 20 58  1  0
 20 59  1  0
 21 22  1  0
 21 60  1  0
 21 61  1  0
 22 30  1  0
 22 23  1  0
 22 62  1  6
 23 24  1  0
 23 25  1  0
 23 26  1  0
 24 63  1  0
 24 64  1  0
 24 65  1  0
 25 66  1  0
 25 67  1  0
 25 68  1  0
 26 27  1  0
 26 28  1  0
 26 69  1  6
 27 70  1  0
 28 29  1  0
 28 71  1  0
 28 72  1  0
 29 30  1  0
 29 73  1  0
 29 74  1  0
 30 31  1  6
 31 75  1  0
 31 76  1  0
 31 77  1  0
 32 33  2  0
 33 34  1  0
 33 78  1  0
 34 35  1  0
 34 79  1  0
 34 80  1  0
 35 36  1  1
 36 81  1  0
 36 82  1  0
 36 83  1  0
M  END
>  <i_m_ct_stereo_status>  (383) 
1

>  <s_m_source_file>  (383) 
/var/tmp/pbs.5076255.sched01/tmp0q3ly_rt/135fqi89qhj.sdf

>  <i_m_source_file_index>  (383) 
25

>  <i_lp_mmshare_version>  (383) 
48012

>  <i_f3d_flags>  (383) 
0

>  <s_epik_input>  (383) 
W0NIM11bQ0BAXTEyW0NIMl1bQ0BdMyhbQ0gzXSlbQ0BAXTQoW0NIM10pW0NASF0oW0NIMl1bQ0BIXShPMilbQ0BIXShPMSlbQ0gyXTMpW0NASF01Qyg9W0NIXVtDSDJdNClbQ0BAXTYoW0NIM10pW0NAQEhdKEMoPU8pQzU9TylbQ0BAXTcoW0NIM10pW0NAQEhdKFtDSDJdW0NIMl02KUMoW0NIM10pKFtDSDNdKVtDQEBIXShbT0hdKVtDSDJdW0NIMl03

>  <s_epik_cmdline>  (383) 
J2VwaWtfcHl0aG9uJywgJy1waHQnLCAnMi4wJywgJy1waCcsICc3LjAnLCAnLXRuJywgJzgnLCAnLW1hJywgJzIwMCcsICctaW1hZScsICc8aW5maWxlLm1hZT4nLCAnLW9tYWUnLCAnPG91dGZpbGUubWFlPic=

>  <r_lp_tautomer_probability>  (383) 
1

>  <r_epik_Ionization_Penalty>  (383) 
1.45475e-06

>  <r_epik_Ionization_Penalty_Charging>  (383) 
0

>  <r_epik_Ionization_Penalty_Neutral>  (383) 
1.45475e-06

>  <r_epik_State_Penalty>  (383) 
-0

>  <r_epik_Charging_Adjusted_Penalty>  (383) 
0

>  <i_epik_Tot_Q>  (383) 
0

>  <i_epik_Tot_abs_Q>  (383) 
0

>  <s_lp_Force_Field>  (383) 
OPLS3e

>  <r_lp_Energy>  (383) 
95.2355

>  <b_lp_Chiralities_Consistent>  (383) 
1

>  <s_lp_Variant>  (383) 
106:0-1

>  <s_i_glide_gridfile>  (383) 
pfpi4k_grid

>  <i_i_glide_lignum>  (383) 
25

>  <i_i_glide_rotatable_bonds>  (383) 
1

>  <r_i_docking_score>  (383) 
-1.96403

>  <r_i_glide_ligand_efficiency>  (383) 
-0.0530818

>  <r_i_glide_ligand_efficiency_sa>  (383) 
-0.17688

>  <r_i_glide_ligand_efficiency_ln>  (383) 
-0.425951

>  <r_i_glide_gscore>  (383) 
-1.96403

>  <r_i_glide_lipo>  (383) 
-0.0592967

>  <r_i_glide_hbond>  (383) 
-0.0695529

>  <r_i_glide_metal>  (383) 
-0

>  <r_i_glide_rewards>  (383) 
-0.00142495

>  <r_i_glide_evdw>  (383) 
-32.3694

>  <r_i_glide_ecoul>  (383) 
-1.12534

>  <r_i_glide_erotb>  (383) 
0

>  <r_i_glide_esite>  (383) 
-0.0464777

>  <r_i_glide_emodel>  (383) 
-37.9719

>  <r_i_glide_energy>  (383) 
-33.4948

>  <r_i_glide_einternal>  (383) 
0.0137096

>  <r_i_glide_intrahb_reward>  (383) 
-0

>  <i_i_glide_confnum>  (383) 
1

>  <i_i_glide_posenum>  (383) 
36

>  <r_i_glide_eff_state_penalty>  (383) 
0

>  <ligand_id>  (383) 
106

>  <original_smiles>  (383) 
CC12CC3(C)CC(O1)C(CC1C4C(=O)C(=O)C5C(C)(CCC6C(C)(C)C(O)CCC56C)C4=CCC13C)O2

>  <smiles>  (383) 
[H]OC1([H])C([H])([H])C([H])([H])C2(C([H])([H])[H])C3([H])C(=O)C(=O)C4([H])C(=C([H])C([H])([H])C5(C([H])([H])[H])C4([H])C([H])([H])C4([H])OC6(C([H])([H])[H])OC4([H])C([H])([H])C5(C([H])([H])[H])C6([H])[H])C3(C([H])([H])[H])C([H])([H])C([H])([H])C2([H])C1(C([H])([H])[H])C([H])([H])[H]

$$$$
107:0:0
     RDKit          3D

 23 25  0  0  1  0  0  0  0  0999 V2000
    1.5790    1.1341    1.5952 C   0  0  0  0  0  0  0  0  0  0  0  0
    0.7504    0.8279    2.8139 C   0  0  0  0  0  0  0  0  0  0  0  0
    0.7537   -0.4583    3.1957 N   0  0  0  0  0  0  0  0  0  0  0  0
   -0.0036   -0.7403    4.3202 N   0  0  0  0  0  0  0  0  0  0  0  0
   -0.1871   -1.9253    4.9335 C   0  0  0  0  0  0  0  0  0  0  0  0
   -1.0058   -1.6875    5.9836 N   0  0  0  0  0  0  0  0  0  0  0  0
   -1.3440   -0.3028    6.0147 N   0  0  0  0  0  0  0  0  0  0  0  0
   -0.7039    0.1935    4.9907 C   0  0  0  0  0  0  0  0  0  0  0  0
   -0.6884    1.5428    4.5680 C   0  0  0  0  0  0  0  0  0  0  0  0
    0.0430    1.8450    3.4875 C   0  0  0  0  0  0  0  0  0  0  0  0
   -0.0798    3.2163    3.2787 N   0  0  0  0  0  0  0  0  0  0  0  0
   -0.8911    3.7420    4.2083 C   0  0  0  0  0  0  0  0  0  0  0  0
   -1.2344    4.9221    4.2768 O   0  0  0  0  0  0  0  0  0  0  0  0
   -1.2751    2.7434    5.0318 N   0  0  0  0  0  0  0  0  0  0  0  0
   -2.1406    2.8702    6.2055 C   0  0  0  0  0  0  0  0  0  0  0  0
    1.5337    2.1850    1.3166 H   0  0  0  0  0  0  0  0  0  0  0  0
    1.2160    0.5471    0.7620 H   0  0  0  0  0  0  0  0  0  0  0  0
    2.6162    0.8615    1.7575 H   0  0  0  0  0  0  0  0  0  0  0  0
    0.2406   -2.8735    4.6306 H   0  0  0  0  0  0  0  0  0  0  0  0
   -2.4782    3.8998    6.3409 H   0  0  0  0  0  0  0  0  0  0  0  0
   -1.6154    2.5693    7.1129 H   0  0  0  0  0  0  0  0  0  0  0  0
   -3.0254    2.2496    6.0974 H   0  0  0  0  0  0  0  0  0  0  0  0
    0.2929    3.7150    2.4705 H   0  0  0  0  0  0  0  0  0  0  0  0
  1  2  1  0
  1 16  1  0
  1 17  1  0
  1 18  1  0
  2 10  1  0
  2  3  2  0
  3  4  1  0
  4  8  1  0
  4  5  1  0
  5  6  2  0
  5 19  1  0
  6  7  1  0
  7  8  2  0
  8  9  1  0
  9 14  1  0
  9 10  2  0
 10 11  1  0
 11 12  1  0
 11 23  1  0
 12 13  2  0
 12 14  1  0
 14 15  1  0
 15 20  1  0
 15 21  1  0
 15 22  1  0
M  END
>  <i_m_ct_stereo_status>  (384) 
1

>  <s_m_source_file>  (384) 
/var/tmp/pbs.5076255.sched01/tmp0q3ly_rt/135fqi89qhj.sdf

>  <i_m_source_file_index>  (384) 
26

>  <i_lp_mmshare_version>  (384) 
48012

>  <i_f3d_flags>  (384) 
0

>  <s_epik_input>  (384) 
W0NIM11uMWMoW09IXSluYyhjKG4yKVtDSDNdKWMxYyhuMjMpbm5bY0hdMw==

>  <s_epik_cmdline>  (384) 
J2VwaWtfcHl0aG9uJywgJy1waHQnLCAnMi4wJywgJy1waCcsICc3LjAnLCAnLXRuJywgJzgnLCAnLW1hJywgJzIwMCcsICctaW1hZScsICc8aW5maWxlLm1hZT4nLCAnLW9tYWUnLCAnPG91dGZpbGUubWFlPic=

>  <r_epik_Ionization_Penalty>  (384) 
0.00923722

>  <r_epik_Ionization_Penalty_Charging>  (384) 
0.00923709

>  <r_epik_Ionization_Penalty_Neutral>  (384) 
1.33123e-07

>  <r_epik_State_Penalty>  (384) 
0.00700421

>  <r_epik_Charging_Adjusted_Penalty>  (384) 
0.0162413

>  <i_epik_Tot_Q>  (384) 
0

>  <i_epik_Tot_abs_Q>  (384) 
0

>  <s_lp_Force_Field>  (384) 
OPLS3e

>  <r_lp_Energy>  (384) 
11.7621

>  <b_lp_Chiralities_Consistent>  (384) 
1

>  <s_lp_Variant>  (384) 
107:0-1

>  <s_i_glide_gridfile>  (384) 
pfpi4k_grid

>  <i_i_glide_lignum>  (384) 
26

>  <i_i_glide_rotatable_bonds>  (384) 
0

>  <r_i_docking_score>  (384) 
-4.97682

>  <r_i_glide_ligand_efficiency>  (384) 
-0.331788

>  <r_i_glide_ligand_efficiency_sa>  (384) 
-0.818259

>  <r_i_glide_ligand_efficiency_ln>  (384) 
-1.34217

>  <r_i_glide_gscore>  (384) 
-4.97682

>  <r_i_glide_lipo>  (384) 
-0.0864713

>  <r_i_glide_hbond>  (384) 
-0.263592

>  <r_i_glide_metal>  (384) 
-0

>  <r_i_glide_rewards>  (384) 
-2.0169

>  <r_i_glide_evdw>  (384) 
-14.5193

>  <r_i_glide_ecoul>  (384) 
-10.2647

>  <r_i_glide_erotb>  (384) 
0

>  <r_i_glide_esite>  (384) 
-0.344194

>  <r_i_glide_emodel>  (384) 
-34.6023

>  <r_i_glide_energy>  (384) 
-24.784

>  <r_i_glide_einternal>  (384) 
0

>  <r_i_glide_intrahb_reward>  (384) 
-0

>  <i_i_glide_confnum>  (384) 
1

>  <i_i_glide_posenum>  (384) 
27

>  <r_i_glide_eff_state_penalty>  (384) 
0

>  <ligand_id>  (384) 
107

>  <original_smiles>  (384) 
Cc1nn2cnnc2c2c1nc(O)n2C

>  <smiles>  (384) 
[H]c1nnc2c3c(c(C([H])([H])[H])nn12)n([H])c(=O)n3C([H])([H])[H]

$$$$
107:0:1
     RDKit          3D

 23 25  0  0  1  0  0  0  0  0999 V2000
    5.8618   -0.5825    0.9658 C   0  0  0  0  0  0  0  0  0  0  0  0
    4.8707   -1.6238    0.5065 C   0  0  0  0  0  0  0  0  0  0  0  0
    4.5385   -2.5301    1.4327 N   0  0  0  0  0  0  0  0  0  0  0  0
    3.6194   -3.4869    1.0279 N   0  0  0  0  0  0  0  0  0  0  0  0
    3.1057   -4.5136    1.7363 C   0  0  0  0  0  0  0  0  0  0  0  0
    2.2530   -5.1603    0.9166 N   0  0  0  0  0  0  0  0  0  0  0  0
    2.2212   -4.4886   -0.3328 N   0  0  0  0  0  0  0  0  0  0  0  0
    3.0809   -3.5167   -0.2054 C   0  0  0  0  0  0  0  0  0  0  0  0
    3.4719   -2.5569   -1.1781 C   0  0  0  0  0  0  0  0  0  0  0  0
    4.3596   -1.6208   -0.8108 C   0  0  0  0  0  0  0  0  0  0  0  0
    4.5780   -0.7906   -1.9093 N   0  0  0  0  0  0  0  0  0  0  0  0
    3.8323   -1.2154   -2.9484 C   0  0  0  0  0  0  0  0  0  0  0  0
    3.8125   -0.7093   -4.0689 O   0  0  0  0  0  0  0  0  0  0  0  0
    3.1413   -2.3037   -2.5324 N   0  0  0  0  0  0  0  0  0  0  0  0
    2.2032   -3.0760   -3.3340 C   0  0  0  0  0  0  0  0  0  0  0  0
    6.1023    0.1349    0.1858 H   0  0  0  0  0  0  0  0  0  0  0  0
    6.7825   -1.0635    1.2848 H   0  0  0  0  0  0  0  0  0  0  0  0
    5.4591   -0.0378    1.8149 H   0  0  0  0  0  0  0  0  0  0  0  0
    3.3308   -4.7636    2.7644 H   0  0  0  0  0  0  0  0  0  0  0  0
    2.1061   -2.6625   -4.3352 H   0  0  0  0  0  0  0  0  0  0  0  0
    1.2114   -3.0582   -2.8832 H   0  0  0  0  0  0  0  0  0  0  0  0
    2.5342   -4.1068   -3.4511 H   0  0  0  0  0  0  0  0  0  0  0  0
    5.1497    0.0388   -1.8915 H   0  0  0  0  0  0  0  0  0  0  0  0
  1  2  1  0
  1 16  1  0
  1 17  1  0
  1 18  1  0
  2 10  1  0
  2  3  2  0
  3  4  1  0
  4  8  1  0
  4  5  1  0
  5  6  2  0
  5 19  1  0
  6  7  1  0
  7  8  2  0
  8  9  1  0
  9 14  1  0
  9 10  2  0
 10 11  1  0
 11 12  1  0
 11 23  1  0
 12 13  2  0
 12 14  1  0
 14 15  1  0
 15 20  1  0
 15 21  1  0
 15 22  1  0
M  END
>  <i_m_ct_stereo_status>  (385) 
1

>  <s_m_source_file>  (385) 
/var/tmp/pbs.5076255.sched01/tmp0q3ly_rt/135fqi89qhj.sdf

>  <i_m_source_file_index>  (385) 
26

>  <i_lp_mmshare_version>  (385) 
48012

>  <i_f3d_flags>  (385) 
0

>  <s_epik_input>  (385) 
W0NIM11uMWMoW09IXSluYyhjKG4yKVtDSDNdKWMxYyhuMjMpbm5bY0hdMw==

>  <s_epik_cmdline>  (385) 
J2VwaWtfcHl0aG9uJywgJy1waHQnLCAnMi4wJywgJy1waCcsICc3LjAnLCAnLXRuJywgJzgnLCAnLW1hJywgJzIwMCcsICctaW1hZScsICc8aW5maWxlLm1hZT4nLCAnLW9tYWUnLCAnPG91dGZpbGUubWFlPic=

>  <r_epik_Ionization_Penalty>  (385) 
0.00923722

>  <r_epik_Ionization_Penalty_Charging>  (385) 
0.00923709

>  <r_epik_Ionization_Penalty_Neutral>  (385) 
1.33123e-07

>  <r_epik_State_Penalty>  (385) 
0.00700421

>  <r_epik_Charging_Adjusted_Penalty>  (385) 
0.0162413

>  <i_epik_Tot_Q>  (385) 
0

>  <i_epik_Tot_abs_Q>  (385) 
0

>  <s_lp_Force_Field>  (385) 
OPLS3e

>  <r_lp_Energy>  (385) 
11.7621

>  <b_lp_Chiralities_Consistent>  (385) 
1

>  <s_lp_Variant>  (385) 
107:0-1

>  <s_i_glide_gridfile>  (385) 
pfpi4k_grid

>  <i_i_glide_lignum>  (385) 
26

>  <i_i_glide_rotatable_bonds>  (385) 
0

>  <r_i_docking_score>  (385) 
-4.44098

>  <r_i_glide_ligand_efficiency>  (385) 
-0.296066

>  <r_i_glide_ligand_efficiency_sa>  (385) 
-0.730161

>  <r_i_glide_ligand_efficiency_ln>  (385) 
-1.19766

>  <r_i_glide_gscore>  (385) 
-4.44098

>  <r_i_glide_lipo>  (385) 
-0.335459

>  <r_i_glide_hbond>  (385) 
-0.251372

>  <r_i_glide_metal>  (385) 
-0

>  <r_i_glide_rewards>  (385) 
-2.02127

>  <r_i_glide_evdw>  (385) 
-23.0588

>  <r_i_glide_ecoul>  (385) 
-3.22025

>  <r_i_glide_erotb>  (385) 
0

>  <r_i_glide_esite>  (385) 
-0.196909

>  <r_i_glide_emodel>  (385) 
-35.0363

>  <r_i_glide_energy>  (385) 
-26.279

>  <r_i_glide_einternal>  (385) 
0

>  <r_i_glide_intrahb_reward>  (385) 
-0

>  <i_i_glide_confnum>  (385) 
2

>  <i_i_glide_posenum>  (385) 
5

>  <r_i_glide_eff_state_penalty>  (385) 
0

>  <ligand_id>  (385) 
107

>  <original_smiles>  (385) 
Cc1nn2cnnc2c2c1nc(O)n2C

>  <smiles>  (385) 
[H]c1nnc2c3c(c(C([H])([H])[H])nn12)n([H])c(=O)n3C([H])([H])[H]

$$$$
107:0:2
     RDKit          3D

 23 25  0  0  1  0  0  0  0  0999 V2000
    3.1661    5.5007    3.8453 C   0  0  0  0  0  0  0  0  0  0  0  0
    2.5502    4.1518    4.1262 C   0  0  0  0  0  0  0  0  0  0  0  0
    3.4160    3.1936    4.4817 N   0  0  0  0  0  0  0  0  0  0  0  0
    2.8576    1.9489    4.7252 N   0  0  0  0  0  0  0  0  0  0  0  0
    3.4685    0.8049    5.0912 C   0  0  0  0  0  0  0  0  0  0  0  0
    2.4987   -0.1252    5.2223 N   0  0  0  0  0  0  0  0  0  0  0  0
    1.2390    0.4674    4.9190 N   0  0  0  0  0  0  0  0  0  0  0  0
    1.5379    1.7008    4.6315 C   0  0  0  0  0  0  0  0  0  0  0  0
    0.6432    2.7328    4.2589 C   0  0  0  0  0  0  0  0  0  0  0  0
    1.1579    3.9460    4.0155 C   0  0  0  0  0  0  0  0  0  0  0  0
    0.0993    4.7884    3.6793 N   0  0  0  0  0  0  0  0  0  0  0  0
   -1.0529    4.0910    3.7094 C   0  0  0  0  0  0  0  0  0  0  0  0
   -2.1730    4.5460    3.4801 O   0  0  0  0  0  0  0  0  0  0  0  0
   -0.7575    2.8203    4.0698 N   0  0  0  0  0  0  0  0  0  0  0  0
   -1.7112    1.7273    4.2466 C   0  0  0  0  0  0  0  0  0  0  0  0
    2.4225    6.2437    3.5663 H   0  0  0  0  0  0  0  0  0  0  0  0
    3.8774    5.4205    3.0292 H   0  0  0  0  0  0  0  0  0  0  0  0
    3.6937    5.8554    4.7262 H   0  0  0  0  0  0  0  0  0  0  0  0
    4.5306    0.6701    5.2529 H   0  0  0  0  0  0  0  0  0  0  0  0
   -2.7313    2.0606    4.0400 H   0  0  0  0  0  0  0  0  0  0  0  0
   -1.6909    1.3504    5.2698 H   0  0  0  0  0  0  0  0  0  0  0  0
   -1.4930    0.9096    3.5589 H   0  0  0  0  0  0  0  0  0  0  0  0
    0.2168    5.7505    3.3953 H   0  0  0  0  0  0  0  0  0  0  0  0
  1  2  1  0
  1 16  1  0
  1 17  1  0
  1 18  1  0
  2 10  1  0
  2  3  2  0
  3  4  1  0
  4  8  1  0
  4  5  1  0
  5  6  2  0
  5 19  1  0
  6  7  1  0
  7  8  2  0
  8  9  1  0
  9 14  1  0
  9 10  2  0
 10 11  1  0
 11 12  1  0
 11 23  1  0
 12 13  2  0
 12 14  1  0
 14 15  1  0
 15 20  1  0
 15 21  1  0
 15 22  1  0
M  END
>  <i_m_ct_stereo_status>  (386) 
1

>  <s_m_source_file>  (386) 
/var/tmp/pbs.5076255.sched01/tmp0q3ly_rt/135fqi89qhj.sdf

>  <i_m_source_file_index>  (386) 
26

>  <i_lp_mmshare_version>  (386) 
48012

>  <i_f3d_flags>  (386) 
0

>  <s_epik_input>  (386) 
W0NIM11uMWMoW09IXSluYyhjKG4yKVtDSDNdKWMxYyhuMjMpbm5bY0hdMw==

>  <s_epik_cmdline>  (386) 
J2VwaWtfcHl0aG9uJywgJy1waHQnLCAnMi4wJywgJy1waCcsICc3LjAnLCAnLXRuJywgJzgnLCAnLW1hJywgJzIwMCcsICctaW1hZScsICc8aW5maWxlLm1hZT4nLCAnLW9tYWUnLCAnPG91dGZpbGUubWFlPic=

>  <r_epik_Ionization_Penalty>  (386) 
0.00923722

>  <r_epik_Ionization_Penalty_Charging>  (386) 
0.00923709

>  <r_epik_Ionization_Penalty_Neutral>  (386) 
1.33123e-07

>  <r_epik_State_Penalty>  (386) 
0.00700421

>  <r_epik_Charging_Adjusted_Penalty>  (386) 
0.0162413

>  <i_epik_Tot_Q>  (386) 
0

>  <i_epik_Tot_abs_Q>  (386) 
0

>  <s_lp_Force_Field>  (386) 
OPLS3e

>  <r_lp_Energy>  (386) 
11.7621

>  <b_lp_Chiralities_Consistent>  (386) 
1

>  <s_lp_Variant>  (386) 
107:0-1

>  <s_i_glide_gridfile>  (386) 
pfpi4k_grid

>  <i_i_glide_lignum>  (386) 
26

>  <i_i_glide_rotatable_bonds>  (386) 
0

>  <r_i_docking_score>  (386) 
-3.79218

>  <r_i_glide_ligand_efficiency>  (386) 
-0.252812

>  <r_i_glide_ligand_efficiency_sa>  (386) 
-0.623489

>  <r_i_glide_ligand_efficiency_ln>  (386) 
-1.02269

>  <r_i_glide_gscore>  (386) 
-3.79218

>  <r_i_glide_lipo>  (386) 
-0.062277

>  <r_i_glide_hbond>  (386) 
-0.16

>  <r_i_glide_metal>  (386) 
-0

>  <r_i_glide_rewards>  (386) 
-2.0169

>  <r_i_glide_evdw>  (386) 
-13.7707

>  <r_i_glide_ecoul>  (386) 
-4.12608

>  <r_i_glide_erotb>  (386) 
0

>  <r_i_glide_esite>  (386) 
-0.245567

>  <r_i_glide_emodel>  (386) 
-25.4009

>  <r_i_glide_energy>  (386) 
-17.8967

>  <r_i_glide_einternal>  (386) 
0

>  <r_i_glide_intrahb_reward>  (386) 
-0

>  <i_i_glide_confnum>  (386) 
1

>  <i_i_glide_posenum>  (386) 
32

>  <r_i_glide_eff_state_penalty>  (386) 
0

>  <ligand_id>  (386) 
107

>  <original_smiles>  (386) 
Cc1nn2cnnc2c2c1nc(O)n2C

>  <smiles>  (386) 
[H]c1nnc2c3c(c(C([H])([H])[H])nn12)n([H])c(=O)n3C([H])([H])[H]

$$$$
107:1:0
     RDKit          3D

 22 24  0  0  1  0  0  0  0  0999 V2000
   -1.9992   -7.6726    3.9441 C   0  0  0  0  0  0  0  0  0  0  0  0
   -0.5253   -7.9565    3.8390 C   0  0  0  0  0  0  0  0  0  0  0  0
   -0.0384   -8.6985    4.8376 N   0  0  0  0  0  0  0  0  0  0  0  0
    1.3093   -8.9880    4.7394 N   0  0  0  0  0  0  0  0  0  0  0  0
    2.0776   -9.7122    5.5716 C   0  0  0  0  0  0  0  0  0  0  0  0
    3.3299   -9.6786    5.0635 N   0  0  0  0  0  0  0  0  0  0  0  0
    3.3270   -8.9159    3.8637 N   0  0  0  0  0  0  0  0  0  0  0  0
    2.0832   -8.5409    3.7374 C   0  0  0  0  0  0  0  0  0  0  0  0
    1.5332   -7.7416    2.7092 C   0  0  0  0  0  0  0  0  0  0  0  0
    0.2208   -7.4279    2.7561 C   0  0  0  0  0  0  0  0  0  0  0  0
   -0.1149   -6.6512    1.7212 N   0  0  0  0  0  0  0  0  0  0  0  0
    1.0091   -6.4963    0.9722 C   0  0  0  0  0  0  0  0  0  0  0  0
    1.0975   -5.8567   -0.0742 O   0  0  0  0  0  0  0  0  0  0  0  0
    2.0497   -7.1261    1.5521 N   0  0  0  0  0  0  0  0  0  0  0  0
    3.4330   -7.1594    1.0877 C   0  0  0  0  0  0  0  0  0  0  0  0
   -2.3558   -7.0710    3.1103 H   0  0  0  0  0  0  0  0  0  0  0  0
   -2.1790   -7.1268    4.8667 H   0  0  0  0  0  0  0  0  0  0  0  0
   -2.5580   -8.6072    3.9542 H   0  0  0  0  0  0  0  0  0  0  0  0
    1.7400  -10.2148    6.4719 H   0  0  0  0  0  0  0  0  0  0  0  0
    3.5553   -6.5905    0.1614 H   0  0  0  0  0  0  0  0  0  0  0  0
    3.7482   -8.1841    0.8867 H   0  0  0  0  0  0  0  0  0  0  0  0
    4.1032   -6.7176    1.8252 H   0  0  0  0  0  0  0  0  0  0  0  0
  1  2  1  0
  1 16  1  0
  1 17  1  0
  1 18  1  0
  2 10  1  0
  2  3  2  0
  3  4  1  0
  4  8  1  0
  4  5  1  0
  5  6  2  0
  5 19  1  0
  6  7  1  0
  7  8  2  0
  8  9  1  0
  9 14  1  0
  9 10  2  0
 10 11  1  0
 11 12  1  0
 12 13  2  0
 12 14  1  0
 14 15  1  0
 15 20  1  0
 15 21  1  0
 15 22  1  0
M  CHG  1  11  -1
M  END
>  <i_m_ct_stereo_status>  (387) 
1

>  <s_m_source_file>  (387) 
/var/tmp/pbs.5076255.sched01/tmp0q3ly_rt/135fqi89qhj.sdf

>  <i_m_source_file_index>  (387) 
27

>  <i_lp_mmshare_version>  (387) 
48012

>  <i_f3d_flags>  (387) 
0

>  <s_epik_input>  (387) 
W0NIM11uMWMoW09IXSluYyhjKG4yKVtDSDNdKWMxYyhuMjMpbm5bY0hdMw==

>  <s_epik_cmdline>  (387) 
J2VwaWtfcHl0aG9uJywgJy1waHQnLCAnMi4wJywgJy1waCcsICc3LjAnLCAnLXRuJywgJzgnLCAnLW1hJywgJzIwMCcsICctaW1hZScsICc8aW5maWxlLm1hZT4nLCAnLW9tYWUnLCAnPG91dGZpbGUubWFlPic=

>  <r_epik_Ionization_Penalty>  (387) 
2.47004

>  <r_epik_Ionization_Penalty_Charging>  (387) 
2.83458e-07

>  <r_epik_Ionization_Penalty_Neutral>  (387) 
2.47004

>  <r_epik_State_Penalty>  (387) 
2.63284

>  <r_epik_Charging_Adjusted_Penalty>  (387) 
2.63284

>  <i_epik_Tot_Q>  (387) 
-1

>  <i_epik_Tot_abs_Q>  (387) 
1

>  <s_lp_Force_Field>  (387) 
OPLS3e

>  <r_lp_Energy>  (387) 
15.7408

>  <b_lp_Chiralities_Consistent>  (387) 
1

>  <s_lp_Variant>  (387) 
107:0-2

>  <s_i_glide_gridfile>  (387) 
pfpi4k_grid

>  <i_i_glide_lignum>  (387) 
27

>  <i_i_glide_rotatable_bonds>  (387) 
0

>  <r_i_docking_score>  (387) 
-4.35248

>  <r_i_glide_ligand_efficiency>  (387) 
-0.290165

>  <r_i_glide_ligand_efficiency_sa>  (387) 
-0.715608

>  <r_i_glide_ligand_efficiency_ln>  (387) 
-1.17379

>  <r_i_glide_gscore>  (387) 
-4.35248

>  <r_i_glide_lipo>  (387) 
-0.0678624

>  <r_i_glide_hbond>  (387) 
-0.716411

>  <r_i_glide_metal>  (387) 
-0

>  <r_i_glide_rewards>  (387) 
-2.02377

>  <r_i_glide_evdw>  (387) 
-15.2173

>  <r_i_glide_ecoul>  (387) 
-3.8741

>  <r_i_glide_erotb>  (387) 
0

>  <r_i_glide_esite>  (387) 
-0.202453

>  <r_i_glide_emodel>  (387) 
-28.5366

>  <r_i_glide_energy>  (387) 
-19.0914

>  <r_i_glide_einternal>  (387) 
0

>  <r_i_glide_intrahb_reward>  (387) 
-0

>  <i_i_glide_confnum>  (387) 
2

>  <i_i_glide_posenum>  (387) 
5

>  <r_i_glide_eff_state_penalty>  (387) 
0

>  <ligand_id>  (387) 
107

>  <original_smiles>  (387) 
Cc1nn2cnnc2c2c1nc(O)n2C

>  <smiles>  (387) 
[H]c1nnc2c3c([n-]c(=O)n3C([H])([H])[H])c(C([H])([H])[H])nn12

$$$$
107:1:1
     RDKit          3D

 22 24  0  0  1  0  0  0  0  0999 V2000
   -2.0775    2.8471    6.0080 C   0  0  0  0  0  0  0  0  0  0  0  0
   -1.1107    2.0503    5.1721 C   0  0  0  0  0  0  0  0  0  0  0  0
   -0.3208    2.7943    4.3889 N   0  0  0  0  0  0  0  0  0  0  0  0
    0.5755    2.0756    3.6151 N   0  0  0  0  0  0  0  0  0  0  0  0
    1.5092    2.5246    2.7507 C   0  0  0  0  0  0  0  0  0  0  0  0
    2.1331    1.4338    2.2557 N   0  0  0  0  0  0  0  0  0  0  0  0
    1.5656    0.2662    2.8342 N   0  0  0  0  0  0  0  0  0  0  0  0
    0.6458    0.7374    3.6316 C   0  0  0  0  0  0  0  0  0  0  0  0
   -0.2147   -0.0161    4.4718 C   0  0  0  0  0  0  0  0  0  0  0  0
   -1.0916    0.6291    5.2651 C   0  0  0  0  0  0  0  0  0  0  0  0
   -1.7827   -0.2508    6.0100 N   0  0  0  0  0  0  0  0  0  0  0  0
   -1.3553   -1.4909    5.6488 C   0  0  0  0  0  0  0  0  0  0  0  0
   -1.7711   -2.5623    6.0822 O   0  0  0  0  0  0  0  0  0  0  0  0
   -0.3788   -1.3953    4.7237 N   0  0  0  0  0  0  0  0  0  0  0  0
    0.3656   -2.4963    4.1131 C   0  0  0  0  0  0  0  0  0  0  0  0
   -2.7004    2.2007    6.6212 H   0  0  0  0  0  0  0  0  0  0  0  0
   -2.7271    3.4337    5.3622 H   0  0  0  0  0  0  0  0  0  0  0  0
   -1.5288    3.5178    6.6653 H   0  0  0  0  0  0  0  0  0  0  0  0
    1.7092    3.5528    2.4974 H   0  0  0  0  0  0  0  0  0  0  0  0
    0.0207   -3.4633    4.4857 H   0  0  0  0  0  0  0  0  0  0  0  0
    1.4260   -2.4176    4.3439 H   0  0  0  0  0  0  0  0  0  0  0  0
    0.2348   -2.4980    3.0339 H   0  0  0  0  0  0  0  0  0  0  0  0
  1  2  1  0
  1 16  1  0
  1 17  1  0
  1 18  1  0
  2 10  1  0
  2  3  2  0
  3  4  1  0
  4  8  1  0
  4  5  1  0
  5  6  2  0
  5 19  1  0
  6  7  1  0
  7  8  2  0
  8  9  1  0
  9 14  1  0
  9 10  2  0
 10 11  1  0
 11 12  1  0
 12 13  2  0
 12 14  1  0
 14 15  1  0
 15 20  1  0
 15 21  1  0
 15 22  1  0
M  CHG  1  11  -1
M  END
>  <i_m_ct_stereo_status>  (388) 
1

>  <s_m_source_file>  (388) 
/var/tmp/pbs.5076255.sched01/tmp0q3ly_rt/135fqi89qhj.sdf

>  <i_m_source_file_index>  (388) 
27

>  <i_lp_mmshare_version>  (388) 
48012

>  <i_f3d_flags>  (388) 
0

>  <s_epik_input>  (388) 
W0NIM11uMWMoW09IXSluYyhjKG4yKVtDSDNdKWMxYyhuMjMpbm5bY0hdMw==

>  <s_epik_cmdline>  (388) 
J2VwaWtfcHl0aG9uJywgJy1waHQnLCAnMi4wJywgJy1waCcsICc3LjAnLCAnLXRuJywgJzgnLCAnLW1hJywgJzIwMCcsICctaW1hZScsICc8aW5maWxlLm1hZT4nLCAnLW9tYWUnLCAnPG91dGZpbGUubWFlPic=

>  <r_epik_Ionization_Penalty>  (388) 
2.47004

>  <r_epik_Ionization_Penalty_Charging>  (388) 
2.83458e-07

>  <r_epik_Ionization_Penalty_Neutral>  (388) 
2.47004

>  <r_epik_State_Penalty>  (388) 
2.63284

>  <r_epik_Charging_Adjusted_Penalty>  (388) 
2.63284

>  <i_epik_Tot_Q>  (388) 
-1

>  <i_epik_Tot_abs_Q>  (388) 
1

>  <s_lp_Force_Field>  (388) 
OPLS3e

>  <r_lp_Energy>  (388) 
15.7408

>  <b_lp_Chiralities_Consistent>  (388) 
1

>  <s_lp_Variant>  (388) 
107:0-2

>  <s_i_glide_gridfile>  (388) 
pfpi4k_grid

>  <i_i_glide_lignum>  (388) 
27

>  <i_i_glide_rotatable_bonds>  (388) 
0

>  <r_i_docking_score>  (388) 
-3.93347

>  <r_i_glide_ligand_efficiency>  (388) 
-0.262231

>  <r_i_glide_ligand_efficiency_sa>  (388) 
-0.646717

>  <r_i_glide_ligand_efficiency_ln>  (388) 
-1.06079

>  <r_i_glide_gscore>  (388) 
-3.93347

>  <r_i_glide_lipo>  (388) 
-0.116579

>  <r_i_glide_hbond>  (388) 
-0.17808

>  <r_i_glide_metal>  (388) 
-0

>  <r_i_glide_rewards>  (388) 
-2.02377

>  <r_i_glide_evdw>  (388) 
-15.5745

>  <r_i_glide_ecoul>  (388) 
-4.14841

>  <r_i_glide_erotb>  (388) 
0

>  <r_i_glide_esite>  (388) 
-0.214051

>  <r_i_glide_emodel>  (388) 
-28.2848

>  <r_i_glide_energy>  (388) 
-19.7229

>  <r_i_glide_einternal>  (388) 
0

>  <r_i_glide_intrahb_reward>  (388) 
-0

>  <i_i_glide_confnum>  (388) 
1

>  <i_i_glide_posenum>  (388) 
1

>  <r_i_glide_eff_state_penalty>  (388) 
0

>  <ligand_id>  (388) 
107

>  <original_smiles>  (388) 
Cc1nn2cnnc2c2c1nc(O)n2C

>  <smiles>  (388) 
[H]c1nnc2c3c([n-]c(=O)n3C([H])([H])[H])c(C([H])([H])[H])nn12

$$$$
107:1:2
     RDKit          3D

 22 24  0  0  1  0  0  0  0  0999 V2000
   -1.9287   -7.9160    3.0168 C   0  0  0  0  0  0  0  0  0  0  0  0
   -0.4917   -8.3547    2.9048 C   0  0  0  0  0  0  0  0  0  0  0  0
   -0.2025   -9.4638    3.5919 N   0  0  0  0  0  0  0  0  0  0  0  0
    1.1037   -9.8929    3.5082 N   0  0  0  0  0  0  0  0  0  0  0  0
    1.6856  -10.9581    4.0870 C   0  0  0  0  0  0  0  0  0  0  0  0
    2.9841  -10.9332    3.7181 N   0  0  0  0  0  0  0  0  0  0  0  0
    3.2075   -9.8099    2.8774 N   0  0  0  0  0  0  0  0  0  0  0  0
    2.0357   -9.2403    2.8028 C   0  0  0  0  0  0  0  0  0  0  0  0
    1.7031   -8.0609    2.0943 C   0  0  0  0  0  0  0  0  0  0  0  0
    0.4329   -7.6011    2.1363 C   0  0  0  0  0  0  0  0  0  0  0  0
    0.3099   -6.4845    1.4125 N   0  0  0  0  0  0  0  0  0  0  0  0
    1.5386   -6.2457    0.8736 C   0  0  0  0  0  0  0  0  0  0  0  0
    1.8326   -5.3320    0.1061 O   0  0  0  0  0  0  0  0  0  0  0  0
    2.4271   -7.1669    1.2877 N   0  0  0  0  0  0  0  0  0  0  0  0
    3.8443   -7.2498    0.9266 C   0  0  0  0  0  0  0  0  0  0  0  0
   -2.1098   -7.0066    2.4544 H   0  0  0  0  0  0  0  0  0  0  0  0
   -2.1763   -7.7175    4.0579 H   0  0  0  0  0  0  0  0  0  0  0  0
   -2.5824   -8.6965    2.6333 H   0  0  0  0  0  0  0  0  0  0  0  0
    1.2058  -11.6766    4.7399 H   0  0  0  0  0  0  0  0  0  0  0  0
    4.1323   -6.4318    0.2597 H   0  0  0  0  0  0  0  0  0  0  0  0
    4.0549   -8.1807    0.4023 H   0  0  0  0  0  0  0  0  0  0  0  0
    4.4814   -7.1901    1.8095 H   0  0  0  0  0  0  0  0  0  0  0  0
  1  2  1  0
  1 16  1  0
  1 17  1  0
  1 18  1  0
  2 10  1  0
  2  3  2  0
  3  4  1  0
  4  8  1  0
  4  5  1  0
  5  6  2  0
  5 19  1  0
  6  7  1  0
  7  8  2  0
  8  9  1  0
  9 14  1  0
  9 10  2  0
 10 11  1  0
 11 12  1  0
 12 13  2  0
 12 14  1  0
 14 15  1  0
 15 20  1  0
 15 21  1  0
 15 22  1  0
M  CHG  1  11  -1
M  END
>  <i_m_ct_stereo_status>  (389) 
1

>  <s_m_source_file>  (389) 
/var/tmp/pbs.5076255.sched01/tmp0q3ly_rt/135fqi89qhj.sdf

>  <i_m_source_file_index>  (389) 
27

>  <i_lp_mmshare_version>  (389) 
48012

>  <i_f3d_flags>  (389) 
0

>  <s_epik_input>  (389) 
W0NIM11uMWMoW09IXSluYyhjKG4yKVtDSDNdKWMxYyhuMjMpbm5bY0hdMw==

>  <s_epik_cmdline>  (389) 
J2VwaWtfcHl0aG9uJywgJy1waHQnLCAnMi4wJywgJy1waCcsICc3LjAnLCAnLXRuJywgJzgnLCAnLW1hJywgJzIwMCcsICctaW1hZScsICc8aW5maWxlLm1hZT4nLCAnLW9tYWUnLCAnPG91dGZpbGUubWFlPic=

>  <r_epik_Ionization_Penalty>  (389) 
2.47004

>  <r_epik_Ionization_Penalty_Charging>  (389) 
2.83458e-07

>  <r_epik_Ionization_Penalty_Neutral>  (389) 
2.47004

>  <r_epik_State_Penalty>  (389) 
2.63284

>  <r_epik_Charging_Adjusted_Penalty>  (389) 
2.63284

>  <i_epik_Tot_Q>  (389) 
-1

>  <i_epik_Tot_abs_Q>  (389) 
1

>  <s_lp_Force_Field>  (389) 
OPLS3e

>  <r_lp_Energy>  (389) 
15.7408

>  <b_lp_Chiralities_Consistent>  (389) 
1

>  <s_lp_Variant>  (389) 
107:0-2

>  <s_i_glide_gridfile>  (389) 
pfpi4k_grid

>  <i_i_glide_lignum>  (389) 
27

>  <i_i_glide_rotatable_bonds>  (389) 
0

>  <r_i_docking_score>  (389) 
-3.76744

>  <r_i_glide_ligand_efficiency>  (389) 
-0.251162

>  <r_i_glide_ligand_efficiency_sa>  (389) 
-0.61942

>  <r_i_glide_ligand_efficiency_ln>  (389) 
-1.01602

>  <r_i_glide_gscore>  (389) 
-3.76744

>  <r_i_glide_lipo>  (389) 
-0.108802

>  <r_i_glide_hbond>  (389) 
-0.29105

>  <r_i_glide_metal>  (389) 
-0

>  <r_i_glide_rewards>  (389) 
-2.12864

>  <r_i_glide_evdw>  (389) 
-20.2683

>  <r_i_glide_ecoul>  (389) 
-0.697882

>  <r_i_glide_erotb>  (389) 
0

>  <r_i_glide_esite>  (389) 
-0.120851

>  <r_i_glide_emodel>  (389) 
-29.1575

>  <r_i_glide_energy>  (389) 
-20.9662

>  <r_i_glide_einternal>  (389) 
0

>  <r_i_glide_intrahb_reward>  (389) 
-0

>  <i_i_glide_confnum>  (389) 
1

>  <i_i_glide_posenum>  (389) 
2

>  <r_i_glide_eff_state_penalty>  (389) 
0

>  <ligand_id>  (389) 
107

>  <original_smiles>  (389) 
Cc1nn2cnnc2c2c1nc(O)n2C

>  <smiles>  (389) 
[H]c1nnc2c3c([n-]c(=O)n3C([H])([H])[H])c(C([H])([H])[H])nn12

$$$$
108:0:0
     RDKit          3D

 25 27  0  0  1  0  0  0  0  0999 V2000
   -7.4218   -7.9407   -8.8889 N   0  0  0  0  0  0  0  0  0  0  0  0
   -8.6213   -7.2296   -9.0080 C   0  0  0  0  0  0  0  0  0  0  0  0
   -9.3706   -7.5476  -10.0886 N   0  0  0  0  0  0  0  0  0  0  0  0
  -10.5224   -6.8489  -10.2825 C   0  0  0  0  0  0  0  0  0  0  0  0
  -11.0320   -5.8583   -9.5140 N   0  0  0  0  0  0  0  0  0  0  0  0
  -10.2559   -5.6077   -8.4600 N   0  0  0  0  0  0  0  0  0  0  0  0
  -10.5016   -4.6632   -7.4844 C   0  0  0  0  0  0  0  0  0  0  0  0
   -9.4637   -4.6674   -6.5716 C   0  0  0  0  0  0  0  0  0  0  0  0
   -8.4989   -5.6603   -6.9318 C   0  0  0  0  0  0  0  0  0  0  0  0
   -7.2630   -5.9547   -6.1715 C   0  0  0  0  0  0  0  0  0  0  0  0
   -6.5872   -4.8989   -5.5279 C   0  0  0  0  0  0  0  0  0  0  0  0
   -5.4153   -5.1786   -4.8107 C   0  0  0  0  0  0  0  0  0  0  0  0
   -4.8802   -6.4096   -4.7199 N   0  0  0  0  0  0  0  0  0  0  0  0
   -5.5388   -7.4292   -5.3094 C   0  0  0  0  0  0  0  0  0  0  0  0
   -6.7485   -7.2574   -5.9982 C   0  0  0  0  0  0  0  0  0  0  0  0
   -9.0645   -6.2096   -8.1173 C   0  0  0  0  0  0  0  0  0  0  0  0
   -6.8647   -7.8947   -8.0485 H   0  0  0  0  0  0  0  0  0  0  0  0
  -11.0777   -7.1126  -11.1658 H   0  0  0  0  0  0  0  0  0  0  0  0
  -11.4098   -4.0862   -7.5184 H   0  0  0  0  0  0  0  0  0  0  0  0
   -9.4326   -4.0283   -5.7010 H   0  0  0  0  0  0  0  0  0  0  0  0
   -6.9463   -3.8794   -5.5723 H   0  0  0  0  0  0  0  0  0  0  0  0
   -4.8676   -4.3866   -4.3206 H   0  0  0  0  0  0  0  0  0  0  0  0
   -5.1088   -8.4108   -5.1969 H   0  0  0  0  0  0  0  0  0  0  0  0
   -7.2789   -8.1399   -6.3284 H   0  0  0  0  0  0  0  0  0  0  0  0
   -7.2759   -8.7565   -9.4638 H   0  0  0  0  0  0  0  0  0  0  0  0
  1  2  1  0
  1 17  1  0
  1 25  1  0
  2 16  1  0
  2  3  2  0
  3  4  1  0
  4  5  2  0
  4 18  1  0
  5  6  1  0
  6 16  1  0
  6  7  1  0
  7  8  2  0
  7 19  1  0
  8  9  1  0
  8 20  1  0
  9 10  1  0
  9 16  2  0
 10 15  1  0
 10 11  2  0
 11 12  1  0
 11 21  1  0
 12 13  2  0
 12 22  1  0
 13 14  1  0
 14 15  2  0
 14 23  1  0
 15 24  1  0
M  END
>  <i_m_ct_stereo_status>  (390) 
1

>  <s_m_source_file>  (390) 
/var/tmp/pbs.5076255.sched01/tmp0q3ly_rt/135fqi89qhj.sdf

>  <i_m_source_file_index>  (390) 
28

>  <i_lp_mmshare_version>  (390) 
48012

>  <i_f3d_flags>  (390) 
0

>  <s_epik_input>  (390) 
W25IXTFbY0hdbi9jKD1OXFtIXSljKG4xMiljKFtjSF1bY0hdMiktYzNbY0hdW2NIXW5bY0hdW2NIXTM=

>  <s_epik_cmdline>  (390) 
J2VwaWtfcHl0aG9uJywgJy1waHQnLCAnMi4wJywgJy1waCcsICc3LjAnLCAnLXRuJywgJzgnLCAnLW1hJywgJzIwMCcsICctaW1hZScsICc8aW5maWxlLm1hZT4nLCAnLW9tYWUnLCAnPG91dGZpbGUubWFlPic=

>  <r_epik_Ionization_Penalty>  (390) 
0.0114406

>  <r_epik_Ionization_Penalty_Charging>  (390) 
0

>  <r_epik_Ionization_Penalty_Neutral>  (390) 
0.0114406

>  <r_epik_State_Penalty>  (390) 
0.00340952

>  <r_epik_Charging_Adjusted_Penalty>  (390) 
0.00340952

>  <i_epik_Tot_Q>  (390) 
0

>  <i_epik_Tot_abs_Q>  (390) 
0

>  <s_lp_Force_Field>  (390) 
OPLS3e

>  <r_lp_Energy>  (390) 
20.4309

>  <b_lp_Chiralities_Consistent>  (390) 
1

>  <s_lp_Variant>  (390) 
108:0-1

>  <s_i_glide_gridfile>  (390) 
pfpi4k_grid

>  <i_i_glide_lignum>  (390) 
28

>  <i_i_glide_rotatable_bonds>  (390) 
1

>  <r_i_docking_score>  (390) 
-6.93745

>  <r_i_glide_ligand_efficiency>  (390) 
-0.43359

>  <r_i_glide_ligand_efficiency_sa>  (390) 
-1.09258

>  <r_i_glide_ligand_efficiency_ln>  (390) 
-1.83891

>  <r_i_glide_gscore>  (390) 
-6.93745

>  <r_i_glide_lipo>  (390) 
-1.99331

>  <r_i_glide_hbond>  (390) 
-0.338182

>  <r_i_glide_metal>  (390) 
-0

>  <r_i_glide_rewards>  (390) 
-3.36894

>  <r_i_glide_evdw>  (390) 
-23.6339

>  <r_i_glide_ecoul>  (390) 
-2.54044

>  <r_i_glide_erotb>  (390) 
0.372696

>  <r_i_glide_esite>  (390) 
-0.0469482

>  <r_i_glide_emodel>  (390) 
-38.1416

>  <r_i_glide_energy>  (390) 
-26.1744

>  <r_i_glide_einternal>  (390) 
0.264176

>  <r_i_glide_intrahb_reward>  (390) 
-0

>  <i_i_glide_confnum>  (390) 
2

>  <i_i_glide_posenum>  (390) 
33

>  <r_i_glide_eff_state_penalty>  (390) 
0

>  <ligand_id>  (390) 
108

>  <original_smiles>  (390) 
N=c1nc[nH]n2ccc(-c3ccncc3)c12

>  <smiles>  (390) 
[H]c1nc(N([H])[H])c2c(-c3c([H])c([H])nc([H])c3[H])c([H])c([H])n2n1

$$$$
108:0:1
     RDKit          3D

 25 27  0  0  1  0  0  0  0  0999 V2000
   -7.4571  -10.1018   -7.1770 N   0  0  0  0  0  0  0  0  0  0  0  0
   -8.0320   -9.6206   -8.3506 C   0  0  0  0  0  0  0  0  0  0  0  0
   -8.4208  -10.5595   -9.2389 N   0  0  0  0  0  0  0  0  0  0  0  0
   -9.0792  -10.1491  -10.3538 C   0  0  0  0  0  0  0  0  0  0  0  0
   -9.4003   -8.8850  -10.7177 N   0  0  0  0  0  0  0  0  0  0  0  0
   -8.9616   -7.9948   -9.8089 N   0  0  0  0  0  0  0  0  0  0  0  0
   -9.1536   -6.6258   -9.8749 C   0  0  0  0  0  0  0  0  0  0  0  0
   -8.5756   -6.0462   -8.7645 C   0  0  0  0  0  0  0  0  0  0  0  0
   -7.9659   -7.0438   -7.9194 C   0  0  0  0  0  0  0  0  0  0  0  0
   -7.2077   -6.7831   -6.6800 C   0  0  0  0  0  0  0  0  0  0  0  0
   -6.0962   -7.5661   -6.2959 C   0  0  0  0  0  0  0  0  0  0  0  0
   -5.4283   -7.2777   -5.0945 C   0  0  0  0  0  0  0  0  0  0  0  0
   -5.7358   -6.2201   -4.3238 N   0  0  0  0  0  0  0  0  0  0  0  0
   -6.7445   -5.4181   -4.7102 C   0  0  0  0  0  0  0  0  0  0  0  0
   -7.5080   -5.6606   -5.8679 C   0  0  0  0  0  0  0  0  0  0  0  0
   -8.2748   -8.2445   -8.6336 C   0  0  0  0  0  0  0  0  0  0  0  0
   -7.0754   -9.4855   -6.4735 H   0  0  0  0  0  0  0  0  0  0  0  0
   -9.3934  -10.9339  -11.0179 H   0  0  0  0  0  0  0  0  0  0  0  0
   -9.6904   -6.2267  -10.7132 H   0  0  0  0  0  0  0  0  0  0  0  0
   -8.5678   -4.9884   -8.5780 H   0  0  0  0  0  0  0  0  0  0  0  0
   -5.7083   -8.3500   -6.9148 H   0  0  0  0  0  0  0  0  0  0  0  0
   -4.6138   -7.9060   -4.7632 H   0  0  0  0  0  0  0  0  0  0  0  0
   -6.9484   -4.5666   -4.0800 H   0  0  0  0  0  0  0  0  0  0  0  0
   -8.2962   -4.9685   -6.1375 H   0  0  0  0  0  0  0  0  0  0  0  0
   -7.2456  -11.0841   -7.0739 H   0  0  0  0  0  0  0  0  0  0  0  0
  1  2  1  0
  1 17  1  0
  1 25  1  0
  2 16  1  0
  2  3  2  0
  3  4  1  0
  4  5  2  0
  4 18  1  0
  5  6  1  0
  6 16  1  0
  6  7  1  0
  7  8  2  0
  7 19  1  0
  8  9  1  0
  8 20  1  0
  9 10  1  0
  9 16  2  0
 10 15  1  0
 10 11  2  0
 11 12  1  0
 11 21  1  0
 12 13  2  0
 12 22  1  0
 13 14  1  0
 14 15  2  0
 14 23  1  0
 15 24  1  0
M  END
>  <i_m_ct_stereo_status>  (391) 
1

>  <s_m_source_file>  (391) 
/var/tmp/pbs.5076255.sched01/tmp0q3ly_rt/135fqi89qhj.sdf

>  <i_m_source_file_index>  (391) 
28

>  <i_lp_mmshare_version>  (391) 
48012

>  <i_f3d_flags>  (391) 
0

>  <s_epik_input>  (391) 
W25IXTFbY0hdbi9jKD1OXFtIXSljKG4xMiljKFtjSF1bY0hdMiktYzNbY0hdW2NIXW5bY0hdW2NIXTM=

>  <s_epik_cmdline>  (391) 
J2VwaWtfcHl0aG9uJywgJy1waHQnLCAnMi4wJywgJy1waCcsICc3LjAnLCAnLXRuJywgJzgnLCAnLW1hJywgJzIwMCcsICctaW1hZScsICc8aW5maWxlLm1hZT4nLCAnLW9tYWUnLCAnPG91dGZpbGUubWFlPic=

>  <r_epik_Ionization_Penalty>  (391) 
0.0114406

>  <r_epik_Ionization_Penalty_Charging>  (391) 
0

>  <r_epik_Ionization_Penalty_Neutral>  (391) 
0.0114406

>  <r_epik_State_Penalty>  (391) 
0.00340952

>  <r_epik_Charging_Adjusted_Penalty>  (391) 
0.00340952

>  <i_epik_Tot_Q>  (391) 
0

>  <i_epik_Tot_abs_Q>  (391) 
0

>  <s_lp_Force_Field>  (391) 
OPLS3e

>  <r_lp_Energy>  (391) 
20.4309

>  <b_lp_Chiralities_Consistent>  (391) 
1

>  <s_lp_Variant>  (391) 
108:0-1

>  <s_i_glide_gridfile>  (391) 
pfpi4k_grid

>  <i_i_glide_lignum>  (391) 
28

>  <i_i_glide_rotatable_bonds>  (391) 
1

>  <r_i_docking_score>  (391) 
-5.6615

>  <r_i_glide_ligand_efficiency>  (391) 
-0.353844

>  <r_i_glide_ligand_efficiency_sa>  (391) 
-0.89163

>  <r_i_glide_ligand_efficiency_ln>  (391) 
-1.50069

>  <r_i_glide_gscore>  (391) 
-5.6615

>  <r_i_glide_lipo>  (391) 
-1.97093

>  <r_i_glide_hbond>  (391) 
0

>  <r_i_glide_metal>  (391) 
-0

>  <r_i_glide_rewards>  (391) 
-2.7714

>  <r_i_glide_evdw>  (391) 
-24.0554

>  <r_i_glide_ecoul>  (391) 
-0.594001

>  <r_i_glide_erotb>  (391) 
0.372696

>  <r_i_glide_esite>  (391) 
0

>  <r_i_glide_emodel>  (391) 
-34.3263

>  <r_i_glide_energy>  (391) 
-24.6494

>  <r_i_glide_einternal>  (391) 
0.126122

>  <r_i_glide_intrahb_reward>  (391) 
-0

>  <i_i_glide_confnum>  (391) 
6

>  <i_i_glide_posenum>  (391) 
23

>  <r_i_glide_eff_state_penalty>  (391) 
0

>  <ligand_id>  (391) 
108

>  <original_smiles>  (391) 
N=c1nc[nH]n2ccc(-c3ccncc3)c12

>  <smiles>  (391) 
[H]c1nc(N([H])[H])c2c(-c3c([H])c([H])nc([H])c3[H])c([H])c([H])n2n1

$$$$
108:0:2
     RDKit          3D

 25 27  0  0  1  0  0  0  0  0999 V2000
    8.1832   -3.0607   -1.4309 N   0  0  0  0  0  0  0  0  0  0  0  0
    7.8570   -3.8171   -0.3019 C   0  0  0  0  0  0  0  0  0  0  0  0
    8.8896   -4.4080    0.3547 N   0  0  0  0  0  0  0  0  0  0  0  0
    8.6022   -5.1326    1.4725 C   0  0  0  0  0  0  0  0  0  0  0  0
    7.3886   -5.3358    2.0474 N   0  0  0  0  0  0  0  0  0  0  0  0
    6.4251   -4.7251    1.3628 N   0  0  0  0  0  0  0  0  0  0  0  0
    5.0842   -4.7061    1.7008 C   0  0  0  0  0  0  0  0  0  0  0  0
    4.3920   -3.9967    0.7375 C   0  0  0  0  0  0  0  0  0  0  0  0
    5.2896   -3.5146   -0.2763 C   0  0  0  0  0  0  0  0  0  0  0  0
    4.9090   -2.7729   -1.4846 C   0  0  0  0  0  0  0  0  0  0  0  0
    4.5963   -3.4520   -2.6798 C   0  0  0  0  0  0  0  0  0  0  0  0
    4.1492   -2.7126   -3.7892 C   0  0  0  0  0  0  0  0  0  0  0  0
    4.0290   -1.3720   -3.7866 N   0  0  0  0  0  0  0  0  0  0  0  0
    4.3078   -0.7243   -2.6389 C   0  0  0  0  0  0  0  0  0  0  0  0
    4.7566   -1.3719   -1.4724 C   0  0  0  0  0  0  0  0  0  0  0  0
    6.5391   -3.9845    0.2068 C   0  0  0  0  0  0  0  0  0  0  0  0
    7.4934   -2.6905   -2.0722 H   0  0  0  0  0  0  0  0  0  0  0  0
    9.4456   -5.5787    1.9793 H   0  0  0  0  0  0  0  0  0  0  0  0
    4.7733   -5.2119    2.6026 H   0  0  0  0  0  0  0  0  0  0  0  0
    3.3236   -3.8413    0.7518 H   0  0  0  0  0  0  0  0  0  0  0  0
    4.6334   -4.5293   -2.7282 H   0  0  0  0  0  0  0  0  0  0  0  0
    3.8923   -3.2093   -4.7135 H   0  0  0  0  0  0  0  0  0  0  0  0
    4.1958    0.3523   -2.6578 H   0  0  0  0  0  0  0  0  0  0  0  0
    4.9291   -0.8107   -0.5647 H   0  0  0  0  0  0  0  0  0  0  0  0
    9.1482   -3.0422   -1.7698 H   0  0  0  0  0  0  0  0  0  0  0  0
  1  2  1  0
  1 17  1  0
  1 25  1  0
  2 16  1  0
  2  3  2  0
  3  4  1  0
  4  5  2  0
  4 18  1  0
  5  6  1  0
  6 16  1  0
  6  7  1  0
  7  8  2  0
  7 19  1  0
  8  9  1  0
  8 20  1  0
  9 10  1  0
  9 16  2  0
 10 15  1  0
 10 11  2  0
 11 12  1  0
 11 21  1  0
 12 13  2  0
 12 22  1  0
 13 14  1  0
 14 15  2  0
 14 23  1  0
 15 24  1  0
M  END
>  <i_m_ct_stereo_status>  (392) 
1

>  <s_m_source_file>  (392) 
/var/tmp/pbs.5076255.sched01/tmp0q3ly_rt/135fqi89qhj.sdf

>  <i_m_source_file_index>  (392) 
28

>  <i_lp_mmshare_version>  (392) 
48012

>  <i_f3d_flags>  (392) 
0

>  <s_epik_input>  (392) 
W25IXTFbY0hdbi9jKD1OXFtIXSljKG4xMiljKFtjSF1bY0hdMiktYzNbY0hdW2NIXW5bY0hdW2NIXTM=

>  <s_epik_cmdline>  (392) 
J2VwaWtfcHl0aG9uJywgJy1waHQnLCAnMi4wJywgJy1waCcsICc3LjAnLCAnLXRuJywgJzgnLCAnLW1hJywgJzIwMCcsICctaW1hZScsICc8aW5maWxlLm1hZT4nLCAnLW9tYWUnLCAnPG91dGZpbGUubWFlPic=

>  <r_epik_Ionization_Penalty>  (392) 
0.0114406

>  <r_epik_Ionization_Penalty_Charging>  (392) 
0

>  <r_epik_Ionization_Penalty_Neutral>  (392) 
0.0114406

>  <r_epik_State_Penalty>  (392) 
0.00340952

>  <r_epik_Charging_Adjusted_Penalty>  (392) 
0.00340952

>  <i_epik_Tot_Q>  (392) 
0

>  <i_epik_Tot_abs_Q>  (392) 
0

>  <s_lp_Force_Field>  (392) 
OPLS3e

>  <r_lp_Energy>  (392) 
20.4309

>  <b_lp_Chiralities_Consistent>  (392) 
1

>  <s_lp_Variant>  (392) 
108:0-1

>  <s_i_glide_gridfile>  (392) 
pfpi4k_grid

>  <i_i_glide_lignum>  (392) 
28

>  <i_i_glide_rotatable_bonds>  (392) 
1

>  <r_i_docking_score>  (392) 
-4.39564

>  <r_i_glide_ligand_efficiency>  (392) 
-0.274728

>  <r_i_glide_ligand_efficiency_sa>  (392) 
-0.69227

>  <r_i_glide_ligand_efficiency_ln>  (392) 
-1.16515

>  <r_i_glide_gscore>  (392) 
-4.39564

>  <r_i_glide_lipo>  (392) 
-0.54137

>  <r_i_glide_hbond>  (392) 
-0.191225

>  <r_i_glide_metal>  (392) 
-0

>  <r_i_glide_rewards>  (392) 
-2.09199

>  <r_i_glide_evdw>  (392) 
-23.5426

>  <r_i_glide_ecoul>  (392) 
-4.55084

>  <r_i_glide_erotb>  (392) 
0.372696

>  <r_i_glide_esite>  (392) 
-0.0839965

>  <r_i_glide_emodel>  (392) 
-34.59

>  <r_i_glide_energy>  (392) 
-28.0935

>  <r_i_glide_einternal>  (392) 
2.12418

>  <r_i_glide_intrahb_reward>  (392) 
-0

>  <i_i_glide_confnum>  (392) 
1

>  <i_i_glide_posenum>  (392) 
2

>  <r_i_glide_eff_state_penalty>  (392) 
0

>  <ligand_id>  (392) 
108

>  <original_smiles>  (392) 
N=c1nc[nH]n2ccc(-c3ccncc3)c12

>  <smiles>  (392) 
[H]c1nc(N([H])[H])c2c(-c3c([H])c([H])nc([H])c3[H])c([H])c([H])n2n1

$$$$
109:0:0
     RDKit          3D

 41 44  0  0  1  0  0  0  0  0999 V2000
   -8.5549   -4.4142   -5.1144 C   0  0  0  0  0  0  0  0  0  0  0  0
   -9.2404   -5.0566   -6.0830 C   0  0  0  0  0  0  0  0  0  0  0  0
   -8.7164   -5.3136   -7.4909 C   0  0  0  0  0  0  0  0  0  0  0  0
   -8.4482   -6.7681   -7.8246 N   0  0  2  0  0  0  0  0  0  0  0  0
   -7.3839   -7.1867   -6.8218 C   0  0  0  0  0  0  0  0  0  0  0  0
   -6.7194   -8.5604   -6.7664 C   0  0  1  0  0  0  0  0  0  0  0  0
   -7.5192   -9.8456   -6.6057 C   0  0  0  0  0  0  0  0  0  0  0  0
   -7.2084  -10.1221   -8.0724 C   0  0  2  0  0  0  0  0  0  0  0  0
   -6.0010   -9.1985   -7.9472 C   0  0  0  0  0  0  0  0  0  0  0  0
   -8.2627   -9.7985   -9.1038 C   0  0  0  0  0  0  0  0  0  0  0  0
   -8.8814   -8.3877   -9.1356 C   0  0  2  0  0  0  0  0  0  0  0  0
   -8.1718   -7.0363   -9.2739 C   0  0  1  0  0  0  0  0  0  0  0  0
   -8.9650   -6.0929  -10.2140 C   0  0  0  0  0  0  0  0  0  0  0  0
  -10.5080   -6.1634   -9.9359 C   0  0  0  0  0  0  0  0  0  0  0  0
  -10.8569   -6.8621   -8.5749 C   0  0  1  0  0  0  0  0  0  0  0  0
  -11.9347   -7.7511   -8.7736 O   0  0  0  0  0  0  0  0  0  0  0  0
   -9.6417   -7.6551   -8.0203 C   0  0  2  0  0  0  0  0  0  0  0  0
   -7.5526   -4.0312   -5.2653 H   0  0  0  0  0  0  0  0  0  0  0  0
   -8.9868   -4.2576   -4.1333 H   0  0  0  0  0  0  0  0  0  0  0  0
  -10.2338   -5.4165   -5.8637 H   0  0  0  0  0  0  0  0  0  0  0  0
   -9.4258   -4.7912   -8.1219 H   0  0  0  0  0  0  0  0  0  0  0  0
   -7.7910   -4.7520   -7.6164 H   0  0  0  0  0  0  0  0  0  0  0  0
   -6.5780   -6.4604   -6.8968 H   0  0  0  0  0  0  0  0  0  0  0  0
   -7.7815   -7.0507   -5.8205 H   0  0  0  0  0  0  0  0  0  0  0  0
   -6.0007   -8.5447   -5.9476 H   0  0  0  0  0  0  0  0  0  0  0  0
   -7.0441  -10.5673   -5.9343 H   0  0  0  0  0  0  0  0  0  0  0  0
   -8.5681   -9.7092   -6.3603 H   0  0  0  0  0  0  0  0  0  0  0  0
   -6.8606  -11.1534   -8.1710 H   0  0  0  0  0  0  0  0  0  0  0  0
   -5.8135   -8.5381   -8.7880 H   0  0  0  0  0  0  0  0  0  0  0  0
   -5.0956   -9.7387   -7.6563 H   0  0  0  0  0  0  0  0  0  0  0  0
   -7.8454  -10.0184  -10.0856 H   0  0  0  0  0  0  0  0  0  0  0  0
   -9.0658  -10.5267   -8.9994 H   0  0  0  0  0  0  0  0  0  0  0  0
   -9.5641   -8.4773   -9.9765 H   0  0  0  0  0  0  0  0  0  0  0  0
   -7.1227   -7.0987   -9.5351 H   0  0  0  0  0  0  0  0  0  0  0  0
   -8.5877   -5.0727  -10.1572 H   0  0  0  0  0  0  0  0  0  0  0  0
   -8.7906   -6.3946  -11.2486 H   0  0  0  0  0  0  0  0  0  0  0  0
  -10.9445   -5.1631   -9.9595 H   0  0  0  0  0  0  0  0  0  0  0  0
  -10.9836   -6.6966  -10.7653 H   0  0  0  0  0  0  0  0  0  0  0  0
  -11.2185   -6.1334   -7.8517 H   0  0  0  0  0  0  0  0  0  0  0  0
  -12.7412   -7.2567   -8.7325 H   0  0  0  0  0  0  0  0  0  0  0  0
   -9.8824   -8.2893   -7.1776 H   0  0  0  0  0  0  0  0  0  0  0  0
  1  2  2  0
  1 18  1  0
  1 19  1  0
  2  3  1  0
  2 20  1  0
  4  3  1  6
  3 21  1  0
  3 22  1  0
  4 12  1  0
  4 17  1  0
  4  5  1  0
  5  6  1  0
  5 23  1  0
  5 24  1  0
  6  9  1  0
  6  7  1  0
  6 25  1  1
  7  8  1  0
  7 26  1  0
  7 27  1  0
  8  9  1  0
  8 10  1  0
  8 28  1  1
  9 29  1  0
  9 30  1  0
 10 11  1  0
 10 31  1  0
 10 32  1  0
 11 17  1  0
 11 12  1  0
 11 33  1  6
 12 13  1  0
 12 34  1  1
 13 14  1  0
 13 35  1  0
 13 36  1  0
 14 15  1  0
 14 37  1  0
 14 38  1  0
 15 16  1  0
 15 17  1  0
 15 39  1  1
 16 40  1  0
 17 41  1  1
M  CHG  1   4   1
M  END
>  <i_m_ct_stereo_status>  (393) 
1

>  <s_m_source_file>  (393) 
/var/tmp/pbs.5076255.sched01/tmp0q3ly_rt/135fqi89qhj.sdf

>  <i_m_source_file_index>  (393) 
29

>  <i_lp_mmshare_version>  (393) 
48012

>  <i_f3d_flags>  (393) 
0

>  <s_epik_input>  (393) 
W0NIMl09W0NIXVtDSDJdW05AQCtdMTJbQ0BIXTNbQ0BIXShbQ0BASF0yW0NASF0oW09IXSlbQ0gyXVtDSDJdMylbQ0gyXVtDQEBIXTRbQ0gyXVtDQEhdKFtDSDJdMSlbQ0gyXTQ=

>  <s_epik_cmdline>  (393) 
J2VwaWtfcHl0aG9uJywgJy1waHQnLCAnMi4wJywgJy1waCcsICc3LjAnLCAnLXRuJywgJzgnLCAnLW1hJywgJzIwMCcsICctaW1hZScsICc8aW5maWxlLm1hZT4nLCAnLW9tYWUnLCAnPG91dGZpbGUubWFlPic=

>  <r_lp_tautomer_probability>  (393) 
1

>  <r_epik_Ionization_Penalty>  (393) 
9.0442e-05

>  <r_epik_Ionization_Penalty_Charging>  (393) 
0

>  <r_epik_Ionization_Penalty_Neutral>  (393) 
9.0442e-05

>  <r_epik_State_Penalty>  (393) 
-0

>  <r_epik_Charging_Adjusted_Penalty>  (393) 
0

>  <i_epik_Tot_Q>  (393) 
1

>  <i_epik_Tot_abs_Q>  (393) 
1

>  <s_lp_Force_Field>  (393) 
OPLS3e

>  <r_lp_Energy>  (393) 
68.3347

>  <b_lp_Chiralities_Consistent>  (393) 
1

>  <s_lp_Variant>  (393) 
109:0-1

>  <s_i_glide_gridfile>  (393) 
pfpi4k_grid

>  <i_i_glide_lignum>  (393) 
29

>  <i_i_glide_rotatable_bonds>  (393) 
3

>  <r_i_docking_score>  (393) 
-4.75278

>  <r_i_glide_ligand_efficiency>  (393) 
-0.279575

>  <r_i_glide_ligand_efficiency_sa>  (393) 
-0.718867

>  <r_i_glide_ligand_efficiency_ln>  (393) 
-1.23989

>  <r_i_glide_gscore>  (393) 
-4.75278

>  <r_i_glide_lipo>  (393) 
-2.04644

>  <r_i_glide_hbond>  (393) 
-0.00270972

>  <r_i_glide_metal>  (393) 
-0

>  <r_i_glide_rewards>  (393) 
-2.32059

>  <r_i_glide_evdw>  (393) 
-17.0612

>  <r_i_glide_ecoul>  (393) 
-1.03539

>  <r_i_glide_erotb>  (393) 
0.625327

>  <r_i_glide_esite>  (393) 
0

>  <r_i_glide_emodel>  (393) 
-22.3845

>  <r_i_glide_energy>  (393) 
-18.0966

>  <r_i_glide_einternal>  (393) 
0.895864

>  <r_i_glide_intrahb_reward>  (393) 
-0

>  <i_i_glide_confnum>  (393) 
5

>  <i_i_glide_posenum>  (393) 
4

>  <r_i_glide_eff_state_penalty>  (393) 
0

>  <ligand_id>  (393) 
109

>  <original_smiles>  (393) 
C=CC[N+]12CC3CC(C3)CC3C1CCC(O)C32

>  <smiles>  (393) 
[H]OC1([H])C([H])([H])C([H])([H])C2([H])C3([H])C([H])([H])C4([H])C([H])([H])C([H])(C4([H])[H])C([H])([H])[N+]2(C([H])([H])C([H])=C([H])[H])C13[H]

$$$$
109:0:1
     RDKit          3D

 41 44  0  0  1  0  0  0  0  0999 V2000
  -10.1134   -4.3372   -5.9816 C   0  0  0  0  0  0  0  0  0  0  0  0
   -9.0645   -5.1605   -6.1349 C   0  0  0  0  0  0  0  0  0  0  0  0
   -8.4320   -5.5155   -7.4793 C   0  0  0  0  0  0  0  0  0  0  0  0
   -8.3552   -6.9907   -7.8152 N   0  0  2  0  0  0  0  0  0  0  0  0
   -7.3627   -7.5513   -6.8039 C   0  0  0  0  0  0  0  0  0  0  0  0
   -6.9061   -9.0060   -6.7302 C   0  0  1  0  0  0  0  0  0  0  0  0
   -7.8822  -10.1630   -6.5744 C   0  0  0  0  0  0  0  0  0  0  0  0
   -7.5974  -10.4885   -8.0362 C   0  0  2  0  0  0  0  0  0  0  0  0
   -6.2711   -9.7464   -7.8980 C   0  0  0  0  0  0  0  0  0  0  0  0
   -8.5831  -10.0256   -9.0812 C   0  0  0  0  0  0  0  0  0  0  0  0
   -8.9927   -8.5412   -9.1264 C   0  0  2  0  0  0  0  0  0  0  0  0
   -8.0995   -7.3017   -9.2603 C   0  0  1  0  0  0  0  0  0  0  0  0
   -8.7416   -6.2645  -10.2194 C   0  0  0  0  0  0  0  0  0  0  0  0
  -10.2818   -6.1129   -9.9535 C   0  0  0  0  0  0  0  0  0  0  0  0
  -10.7430   -6.7504   -8.5981 C   0  0  1  0  0  0  0  0  0  0  0  0
  -11.9413   -7.4633   -8.8032 O   0  0  0  0  0  0  0  0  0  0  0  0
   -9.6572   -7.7045   -8.0253 C   0  0  2  0  0  0  0  0  0  0  0  0
  -10.6040   -3.8586   -6.8219 H   0  0  0  0  0  0  0  0  0  0  0  0
  -10.5051   -4.1151   -4.9986 H   0  0  0  0  0  0  0  0  0  0  0  0
   -8.6394   -5.5801   -5.2342 H   0  0  0  0  0  0  0  0  0  0  0  0
   -8.9503   -4.8880   -8.1967 H   0  0  0  0  0  0  0  0  0  0  0  0
   -7.4284   -5.0995   -7.4650 H   0  0  0  0  0  0  0  0  0  0  0  0
   -6.4533   -6.9562   -6.8724 H   0  0  0  0  0  0  0  0  0  0  0  0
   -7.7431   -7.3536   -5.8098 H   0  0  0  0  0  0  0  0  0  0  0  0
   -6.2035   -9.0890   -5.9015 H   0  0  0  0  0  0  0  0  0  0  0  0
   -7.5242  -10.9438   -5.8997 H   0  0  0  0  0  0  0  0  0  0  0  0
   -8.9042   -9.8784   -6.3439 H   0  0  0  0  0  0  0  0  0  0  0  0
   -7.3997  -11.5592   -8.1255 H   0  0  0  0  0  0  0  0  0  0  0  0
   -5.9842   -9.1203   -8.7358 H   0  0  0  0  0  0  0  0  0  0  0  0
   -5.4543  -10.4076   -7.5953 H   0  0  0  0  0  0  0  0  0  0  0  0
   -8.1907  -10.3082  -10.0574 H   0  0  0  0  0  0  0  0  0  0  0  0
   -9.4840  -10.6305   -8.9808 H   0  0  0  0  0  0  0  0  0  0  0  0
   -9.6732   -8.5378   -9.9724 H   0  0  0  0  0  0  0  0  0  0  0  0
   -7.0646   -7.5103   -9.5037 H   0  0  0  0  0  0  0  0  0  0  0  0
   -8.2237   -5.3071  -10.1757 H   0  0  0  0  0  0  0  0  0  0  0  0
   -8.6017   -6.5979  -11.2492 H   0  0  0  0  0  0  0  0  0  0  0  0
  -10.5777   -5.0632   -9.9754 H   0  0  0  0  0  0  0  0  0  0  0  0
  -10.8200   -6.5757  -10.7859 H   0  0  0  0  0  0  0  0  0  0  0  0
  -11.0077   -5.9770   -7.8842 H   0  0  0  0  0  0  0  0  0  0  0  0
  -12.6745   -6.8593   -8.7200 H   0  0  0  0  0  0  0  0  0  0  0  0
   -9.9931   -8.2916   -7.1825 H   0  0  0  0  0  0  0  0  0  0  0  0
  1  2  2  0
  1 18  1  0
  1 19  1  0
  2  3  1  0
  2 20  1  0
  4  3  1  6
  3 21  1  0
  3 22  1  0
  4 12  1  0
  4 17  1  0
  4  5  1  0
  5  6  1  0
  5 23  1  0
  5 24  1  0
  6  9  1  0
  6  7  1  0
  6 25  1  1
  7  8  1  0
  7 26  1  0
  7 27  1  0
  8  9  1  0
  8 10  1  0
  8 28  1  1
  9 29  1  0
  9 30  1  0
 10 11  1  0
 10 31  1  0
 10 32  1  0
 11 17  1  0
 11 12  1  0
 11 33  1  6
 12 13  1  0
 12 34  1  1
 13 14  1  0
 13 35  1  0
 13 36  1  0
 14 15  1  0
 14 37  1  0
 14 38  1  0
 15 16  1  0
 15 17  1  0
 15 39  1  1
 16 40  1  0
 17 41  1  1
M  CHG  1   4   1
M  END
>  <i_m_ct_stereo_status>  (394) 
1

>  <s_m_source_file>  (394) 
/var/tmp/pbs.5076255.sched01/tmp0q3ly_rt/135fqi89qhj.sdf

>  <i_m_source_file_index>  (394) 
29

>  <i_lp_mmshare_version>  (394) 
48012

>  <i_f3d_flags>  (394) 
0

>  <s_epik_input>  (394) 
W0NIMl09W0NIXVtDSDJdW05AQCtdMTJbQ0BIXTNbQ0BIXShbQ0BASF0yW0NASF0oW09IXSlbQ0gyXVtDSDJdMylbQ0gyXVtDQEBIXTRbQ0gyXVtDQEhdKFtDSDJdMSlbQ0gyXTQ=

>  <s_epik_cmdline>  (394) 
J2VwaWtfcHl0aG9uJywgJy1waHQnLCAnMi4wJywgJy1waCcsICc3LjAnLCAnLXRuJywgJzgnLCAnLW1hJywgJzIwMCcsICctaW1hZScsICc8aW5maWxlLm1hZT4nLCAnLW9tYWUnLCAnPG91dGZpbGUubWFlPic=

>  <r_lp_tautomer_probability>  (394) 
1

>  <r_epik_Ionization_Penalty>  (394) 
9.0442e-05

>  <r_epik_Ionization_Penalty_Charging>  (394) 
0

>  <r_epik_Ionization_Penalty_Neutral>  (394) 
9.0442e-05

>  <r_epik_State_Penalty>  (394) 
-0

>  <r_epik_Charging_Adjusted_Penalty>  (394) 
0

>  <i_epik_Tot_Q>  (394) 
1

>  <i_epik_Tot_abs_Q>  (394) 
1

>  <s_lp_Force_Field>  (394) 
OPLS3e

>  <r_lp_Energy>  (394) 
68.3347

>  <b_lp_Chiralities_Consistent>  (394) 
1

>  <s_lp_Variant>  (394) 
109:0-1

>  <s_i_glide_gridfile>  (394) 
pfpi4k_grid

>  <i_i_glide_lignum>  (394) 
29

>  <i_i_glide_rotatable_bonds>  (394) 
3

>  <r_i_docking_score>  (394) 
-4.73993

>  <r_i_glide_ligand_efficiency>  (394) 
-0.278819

>  <r_i_glide_ligand_efficiency_sa>  (394) 
-0.716923

>  <r_i_glide_ligand_efficiency_ln>  (394) 
-1.23654

>  <r_i_glide_gscore>  (394) 
-4.73993

>  <r_i_glide_lipo>  (394) 
-1.97613

>  <r_i_glide_hbond>  (394) 
-0.131727

>  <r_i_glide_metal>  (394) 
-0

>  <r_i_glide_rewards>  (394) 
-2.28277

>  <r_i_glide_evdw>  (394) 
-16.2581

>  <r_i_glide_ecoul>  (394) 
-1.07821

>  <r_i_glide_erotb>  (394) 
0.625327

>  <r_i_glide_esite>  (394) 
0

>  <r_i_glide_emodel>  (394) 
-21.5655

>  <r_i_glide_energy>  (394) 
-17.3363

>  <r_i_glide_einternal>  (394) 
0.951267

>  <r_i_glide_intrahb_reward>  (394) 
-0

>  <i_i_glide_confnum>  (394) 
5

>  <i_i_glide_posenum>  (394) 
3

>  <r_i_glide_eff_state_penalty>  (394) 
0

>  <ligand_id>  (394) 
109

>  <original_smiles>  (394) 
C=CC[N+]12CC3CC(C3)CC3C1CCC(O)C32

>  <smiles>  (394) 
[H]OC1([H])C([H])([H])C([H])([H])C2([H])C3([H])C([H])([H])C4([H])C([H])([H])C([H])(C4([H])[H])C([H])([H])[N+]2(C([H])([H])C([H])=C([H])[H])C13[H]

$$$$
109:0:2
     RDKit          3D

 41 44  0  0  1  0  0  0  0  0999 V2000
   -7.5053   -4.0167   -4.8683 C   0  0  0  0  0  0  0  0  0  0  0  0
   -7.8001   -4.4860   -6.0941 C   0  0  0  0  0  0  0  0  0  0  0  0
   -8.7754   -5.6241   -6.3514 C   0  0  0  0  0  0  0  0  0  0  0  0
   -8.1666   -6.9166   -6.8933 N   0  0  2  0  0  0  0  0  0  0  0  0
   -7.1523   -7.3484   -5.8318 C   0  0  0  0  0  0  0  0  0  0  0  0
   -6.2853   -8.5959   -5.9057 C   0  0  1  0  0  0  0  0  0  0  0  0
   -6.8187  -10.0038   -6.1041 C   0  0  0  0  0  0  0  0  0  0  0  0
   -6.2786   -9.9215   -7.5200 C   0  0  2  0  0  0  0  0  0  0  0  0
   -5.3034   -8.8590   -7.0316 C   0  0  0  0  0  0  0  0  0  0  0  0
   -7.2407   -9.5688   -8.6253 C   0  0  0  0  0  0  0  0  0  0  0  0
   -8.1215   -8.3058   -8.5296 C   0  0  2  0  0  0  0  0  0  0  0  0
   -7.6782   -6.8565   -8.2944 C   0  0  1  0  0  0  0  0  0  0  0  0
   -8.5274   -5.8802   -9.1533 C   0  0  0  0  0  0  0  0  0  0  0  0
  -10.0525   -6.2714   -9.1460 C   0  0  0  0  0  0  0  0  0  0  0  0
  -10.4115   -7.2982   -8.0144 C   0  0  1  0  0  0  0  0  0  0  0  0
  -11.2490   -8.3128   -8.5300 O   0  0  0  0  0  0  0  0  0  0  0  0
   -9.1242   -7.9600   -7.4368 C   0  0  2  0  0  0  0  0  0  0  0  0
   -7.9327   -4.4425   -3.9659 H   0  0  0  0  0  0  0  0  0  0  0  0
   -6.8270   -3.1866   -4.7326 H   0  0  0  0  0  0  0  0  0  0  0  0
   -7.3487   -4.0487   -6.9725 H   0  0  0  0  0  0  0  0  0  0  0  0
   -9.1825   -5.8412   -5.3627 H   0  0  0  0  0  0  0  0  0  0  0  0
   -9.6047   -5.1591   -6.8962 H   0  0  0  0  0  0  0  0  0  0  0  0
   -6.4356   -6.5402   -5.6930 H   0  0  0  0  0  0  0  0  0  0  0  0
   -7.6737   -7.4040   -4.8835 H   0  0  0  0  0  0  0  0  0  0  0  0
   -5.6873   -8.6209   -4.9969 H   0  0  0  0  0  0  0  0  0  0  0  0
   -6.2616  -10.7360   -5.5250 H   0  0  0  0  0  0  0  0  0  0  0  0
   -7.8935  -10.1158   -5.9996 H   0  0  0  0  0  0  0  0  0  0  0  0
   -5.7123  -10.8296   -7.7492 H   0  0  0  0  0  0  0  0  0  0  0  0
   -5.1098   -8.0234   -7.7016 H   0  0  0  0  0  0  0  0  0  0  0  0
   -4.3819   -9.2897   -6.6422 H   0  0  0  0  0  0  0  0  0  0  0  0
   -6.6639   -9.5032   -9.5362 H   0  0  0  0  0  0  0  0  0  0  0  0
   -7.8820  -10.4279   -8.7977 H   0  0  0  0  0  0  0  0  0  0  0  0
   -8.6713   -8.3354   -9.4754 H   0  0  0  0  0  0  0  0  0  0  0  0
   -6.6112   -6.7112   -8.3093 H   0  0  0  0  0  0  0  0  0  0  0  0
   -8.3936   -4.8453   -8.8438 H   0  0  0  0  0  0  0  0  0  0  0  0
   -8.1641   -5.9240  -10.1811 H   0  0  0  0  0  0  0  0  0  0  0  0
  -10.6782   -5.3810   -9.0419 H   0  0  0  0  0  0  0  0  0  0  0  0
  -10.3050   -6.6962  -10.1214 H   0  0  0  0  0  0  0  0  0  0  0  0
  -10.9993   -6.8062   -7.2382 H   0  0  0  0  0  0  0  0  0  0  0  0
  -12.1449   -8.0182   -8.4612 H   0  0  0  0  0  0  0  0  0  0  0  0
   -9.3123   -8.8155   -6.7859 H   0  0  0  0  0  0  0  0  0  0  0  0
  1  2  2  0
  1 18  1  0
  1 19  1  0
  2  3  1  0
  2 20  1  0
  4  3  1  1
  3 21  1  0
  3 22  1  0
  4 12  1  0
  4 17  1  0
  4  5  1  0
  5  6  1  0
  5 23  1  0
  5 24  1  0
  6  9  1  0
  6  7  1  0
  6 25  1  1
  7  8  1  0
  7 26  1  0
  7 27  1  0
  8  9  1  0
  8 10  1  0
  8 28  1  6
  9 29  1  0
  9 30  1  0
 10 11  1  0
 10 31  1  0
 10 32  1  0
 11 17  1  0
 11 12  1  0
 11 33  1  6
 12 13  1  0
 12 34  1  1
 13 14  1  0
 13 35  1  0
 13 36  1  0
 14 15  1  0
 14 37  1  0
 14 38  1  0
 15 16  1  0
 15 17  1  0
 15 39  1  1
 16 40  1  0
 17 41  1  1
M  CHG  1   4   1
M  END
>  <i_m_ct_stereo_status>  (395) 
1

>  <s_m_source_file>  (395) 
/var/tmp/pbs.5076255.sched01/tmp0q3ly_rt/135fqi89qhj.sdf

>  <i_m_source_file_index>  (395) 
29

>  <i_lp_mmshare_version>  (395) 
48012

>  <i_f3d_flags>  (395) 
0

>  <s_epik_input>  (395) 
W0NIMl09W0NIXVtDSDJdW05AQCtdMTJbQ0BIXTNbQ0BIXShbQ0BASF0yW0NASF0oW09IXSlbQ0gyXVtDSDJdMylbQ0gyXVtDQEBIXTRbQ0gyXVtDQEhdKFtDSDJdMSlbQ0gyXTQ=

>  <s_epik_cmdline>  (395) 
J2VwaWtfcHl0aG9uJywgJy1waHQnLCAnMi4wJywgJy1waCcsICc3LjAnLCAnLXRuJywgJzgnLCAnLW1hJywgJzIwMCcsICctaW1hZScsICc8aW5maWxlLm1hZT4nLCAnLW9tYWUnLCAnPG91dGZpbGUubWFlPic=

>  <r_lp_tautomer_probability>  (395) 
1

>  <r_epik_Ionization_Penalty>  (395) 
9.0442e-05

>  <r_epik_Ionization_Penalty_Charging>  (395) 
0

>  <r_epik_Ionization_Penalty_Neutral>  (395) 
9.0442e-05

>  <r_epik_State_Penalty>  (395) 
-0

>  <r_epik_Charging_Adjusted_Penalty>  (395) 
0

>  <i_epik_Tot_Q>  (395) 
1

>  <i_epik_Tot_abs_Q>  (395) 
1

>  <s_lp_Force_Field>  (395) 
OPLS3e

>  <r_lp_Energy>  (395) 
68.3347

>  <b_lp_Chiralities_Consistent>  (395) 
1

>  <s_lp_Variant>  (395) 
109:0-1

>  <s_i_glide_gridfile>  (395) 
pfpi4k_grid

>  <i_i_glide_lignum>  (395) 
29

>  <i_i_glide_rotatable_bonds>  (395) 
3

>  <r_i_docking_score>  (395) 
-4.4798

>  <r_i_glide_ligand_efficiency>  (395) 
-0.263518

>  <r_i_glide_ligand_efficiency_sa>  (395) 
-0.677578

>  <r_i_glide_ligand_efficiency_ln>  (395) 
-1.16868

>  <r_i_glide_gscore>  (395) 
-4.4798

>  <r_i_glide_lipo>  (395) 
-2.2691

>  <r_i_glide_hbond>  (395) 
0

>  <r_i_glide_metal>  (395) 
-0

>  <r_i_glide_rewards>  (395) 
-2.40275

>  <r_i_glide_evdw>  (395) 
-6.10151

>  <r_i_glide_ecoul>  (395) 
-0.854655

>  <r_i_glide_erotb>  (395) 
0.625327

>  <r_i_glide_esite>  (395) 
0

>  <r_i_glide_emodel>  (395) 
-9.8005

>  <r_i_glide_energy>  (395) 
-6.95616

>  <r_i_glide_einternal>  (395) 
2.87562

>  <r_i_glide_intrahb_reward>  (395) 
-0

>  <i_i_glide_confnum>  (395) 
5

>  <i_i_glide_posenum>  (395) 
16

>  <r_i_glide_eff_state_penalty>  (395) 
0

>  <ligand_id>  (395) 
109

>  <original_smiles>  (395) 
C=CC[N+]12CC3CC(C3)CC3C1CCC(O)C32

>  <smiles>  (395) 
[H]OC1([H])C([H])([H])C([H])([H])C2([H])C3([H])C([H])([H])C4([H])C([H])([H])C([H])(C4([H])[H])C([H])([H])[N+]2(C([H])([H])C([H])=C([H])[H])C13[H]

$$$$
110:0:0
     RDKit          3D

 43 49  0  0  1  0  0  0  0  0999 V2000
    3.1148   -1.9604    3.8884 O   0  0  0  0  0  0  0  0  0  0  0  0
    3.7797   -2.5817    2.7962 C   0  0  2  0  0  0  0  0  0  0  0  0
    3.4996   -4.0708    3.1403 C   0  0  0  0  0  0  0  0  0  0  0  0
    4.2568   -4.9983    2.1976 C   0  0  0  0  0  0  0  0  0  0  0  0
    4.1221   -4.4042    0.7895 C   0  0  1  0  0  0  0  0  0  0  0  0
    4.0323   -2.8694    0.6980 C   0  0  2  0  0  0  0  0  0  0  0  0
    5.7844   -1.8541    0.0331 C   0  0  0  0  0  0  0  0  0  0  0  0
    6.3035   -1.4901    1.0897 C   0  0  1  0  0  0  0  0  0  0  0  0
    5.0203   -0.5509    1.1521 C   0  0  2  0  0  0  0  0  0  0  0  0
    5.2349   -0.7725    2.6551 C   0  0  0  0  0  0  0  0  0  0  0  0
    5.3337   -2.3578    2.7506 C   0  0  2  0  0  0  0  0  0  0  0  0
    6.1705   -3.0238    1.4133 C   0  0  1  0  0  0  0  0  0  0  0  0
    5.2828   -4.0509    0.0047 C   0  0  2  0  0  0  0  0  0  0  0  0
    4.5451   -3.2913   -1.5122 C   0  0  0  0  0  0  0  0  0  0  0  0
    4.6880   -3.8569   -2.7855 C   0  0  0  0  0  0  0  0  0  0  0  0
    4.1242   -3.2304   -3.9112 C   0  0  0  0  0  0  0  0  0  0  0  0
    3.4258   -2.0084   -3.8167 C   0  0  0  0  0  0  0  0  0  0  0  0
    3.2509   -1.3513   -2.5792 C   0  0  0  0  0  0  0  0  0  0  0  0
    3.7618   -1.9179   -1.4017 C   0  0  0  0  0  0  0  0  0  0  0  0
    3.6020   -1.0952    0.2454 C   0  0  1  0  0  0  0  0  0  0  0  0
    3.1177   -2.0689    1.4313 C   0  0  2  0  0  0  0  0  0  0  0  0
    2.1920   -2.1441    3.8230 H   0  0  0  0  0  0  0  0  0  0  0  0
    3.7974   -4.3029    4.1640 H   0  0  0  0  0  0  0  0  0  0  0  0
    2.4295   -4.2762    3.0814 H   0  0  0  0  0  0  0  0  0  0  0  0
    5.2940   -5.1263    2.5107 H   0  0  0  0  0  0  0  0  0  0  0  0
    3.8202   -5.9968    2.2375 H   0  0  0  0  0  0  0  0  0  0  0  0
    3.4474   -5.0265    0.1841 H   0  0  0  0  0  0  0  0  0  0  0  0
    3.0898   -3.2188    0.1998 H   0  0  0  0  0  0  0  0  0  0  0  0
    6.5889   -2.3229   -0.5870 H   0  0  0  0  0  0  0  0  0  0  0  0
    5.7968   -1.0465   -0.7375 H   0  0  0  0  0  0  0  0  0  0  0  0
    7.2956   -1.0498    0.9582 H   0  0  0  0  0  0  0  0  0  0  0  0
    5.2649    0.4758    0.8767 H   0  0  0  0  0  0  0  0  0  0  0  0
    6.1618   -0.3108    3.0139 H   0  0  0  0  0  0  0  0  0  0  0  0
    4.4861   -0.2428    3.2408 H   0  0  0  0  0  0  0  0  0  0  0  0
    5.7932   -2.6566    3.6910 H   0  0  0  0  0  0  0  0  0  0  0  0
    7.1305   -3.4619    1.6916 H   0  0  0  0  0  0  0  0  0  0  0  0
    5.8613   -4.9339   -0.2646 H   0  0  0  0  0  0  0  0  0  0  0  0
    5.2084   -4.7924   -2.9093 H   0  0  0  0  0  0  0  0  0  0  0  0
    4.2244   -3.7250   -4.8608 H   0  0  0  0  0  0  0  0  0  0  0  0
    3.0052   -1.5678   -4.7089 H   0  0  0  0  0  0  0  0  0  0  0  0
    2.7064   -0.4191   -2.5494 H   0  0  0  0  0  0  0  0  0  0  0  0
    2.8916   -0.2744    0.1605 H   0  0  0  0  0  0  0  0  0  0  0  0
    2.0431   -2.2942    1.3898 H   0  0  0  0  0  0  0  0  0  0  0  0
  2  1  1  1
  1 22  1  0
  2 11  1  0
  2 21  1  0
  2  3  1  0
  3  4  1  0
  3 23  1  0
  3 24  1  0
  4  5  1  0
  4 25  1  0
  4 26  1  0
  5 13  1  0
  5  6  1  0
  5 27  1  6
  6 21  1  0
  6  7  1  0
  6 28  1  6
  7  8  1  0
  7 29  1  0
  7 30  1  0
  8 12  1  0
  8  9  1  0
  8 31  1  6
  9 20  1  0
  9 10  1  0
  9 32  1  1
 10 11  1  0
 10 33  1  0
 10 34  1  0
 11 12  1  0
 11 35  1  1
 12 13  1  0
 12 36  1  1
 13 14  1  0
 13 37  1  6
 14 19  2  0
 14 15  1  0
 15 16  2  0
 15 38  1  0
 16 17  1  0
 16 39  1  0
 17 18  2  0
 17 40  1  0
 18 19  1  0
 18 41  1  0
 19 20  1  0
 20 21  1  0
 20 42  1  6
 21 43  1  1
M  END
>  <i_m_ct_stereo_status>  (396) 
1

>  <s_m_source_file>  (396) 
/var/tmp/pbs.5076255.sched01/tmp0q3ly_rt/135fqi89qhj.sdf

>  <i_m_source_file_index>  (396) 
30

>  <i_lp_mmshare_version>  (396) 
48012

>  <i_f3d_flags>  (396) 
2

>  <s_epik_input>  (396) 
W09IXVtDQF0xMltDQEhdM1tDQEhdNFtDQEhdNVtDQEhdKFtDSDJdMylbQ0BIXTZjN2MoW0NAQEhdNFtDQEhdKFtDSDJdW0NIMl0xKVtDQEBIXShbQ0gyXTUpW0NIXTI2KVtjSF1bY0hdW2NIXVtjSF03

>  <s_epik_cmdline>  (396) 
J2VwaWtfcHl0aG9uJywgJy1waHQnLCAnMi4wJywgJy1waCcsICc3LjAnLCAnLXRuJywgJzgnLCAnLW1hJywgJzIwMCcsICctaW1hZScsICc8aW5maWxlLm1hZT4nLCAnLW9tYWUnLCAnPG91dGZpbGUubWFlPic=

>  <r_lp_tautomer_probability>  (396) 
1

>  <r_epik_Ionization_Penalty>  (396) 
3.42559e-06

>  <r_epik_Ionization_Penalty_Charging>  (396) 
0

>  <r_epik_Ionization_Penalty_Neutral>  (396) 
3.42559e-06

>  <r_epik_State_Penalty>  (396) 
-0

>  <r_epik_Charging_Adjusted_Penalty>  (396) 
0

>  <i_epik_Tot_Q>  (396) 
0

>  <i_epik_Tot_abs_Q>  (396) 
0

>  <s_lp_Force_Field>  (396) 
OPLS3e

>  <r_lp_Energy>  (396) 
836.08

>  <b_lp_Chiralities_Consistent>  (396) 
0

>  <s_lp_Variant>  (396) 
110:0-1

>  <s_i_glide_gridfile>  (396) 
pfpi4k_grid

>  <i_i_glide_lignum>  (396) 
30

>  <i_i_glide_rotatable_bonds>  (396) 
1

>  <r_i_docking_score>  (396) 
-3.59606

>  <r_i_glide_ligand_efficiency>  (396) 
-0.171241

>  <r_i_glide_ligand_efficiency_sa>  (396) 
-0.47244

>  <r_i_glide_ligand_efficiency_ln>  (396) 
-0.889118

>  <r_i_glide_gscore>  (396) 
-3.59606

>  <r_i_glide_lipo>  (396) 
-0.856333

>  <r_i_glide_hbond>  (396) 
0

>  <r_i_glide_metal>  (396) 
-0

>  <r_i_glide_rewards>  (396) 
-1.51099

>  <r_i_glide_evdw>  (396) 
-24.148

>  <r_i_glide_ecoul>  (396) 
-0.142207

>  <r_i_glide_erotb>  (396) 
0

>  <r_i_glide_esite>  (396) 
0

>  <r_i_glide_emodel>  (396) 
-29.5544

>  <r_i_glide_energy>  (396) 
-24.2903

>  <r_i_glide_einternal>  (396) 
0.0287856

>  <r_i_glide_intrahb_reward>  (396) 
-0

>  <i_i_glide_confnum>  (396) 
1

>  <i_i_glide_posenum>  (396) 
28

>  <r_i_glide_eff_state_penalty>  (396) 
0

>  <ligand_id>  (396) 
110

>  <original_smiles>  (396) 
OC12CCC3C4CC5C6CC1C5C3c1ccccc1C6C42

>  <smiles>  (396) 
[H]OC12C([H])([H])C([H])([H])C3([H])C4([H])c5c([H])c([H])c([H])c([H])c5C5([H])C6([H])C([H])([H])C1([H])C4([H])C6([H])C([H])([H])C3([H])C52[H]

$$$$
110:0:1
     RDKit          3D

 43 49  0  0  1  0  0  0  0  0999 V2000
    3.0880   -1.9803    3.8907 O   0  0  0  0  0  0  0  0  0  0  0  0
    3.7686   -2.5929    2.8024 C   0  0  2  0  0  0  0  0  0  0  0  0
    3.4783   -4.0805    3.1373 C   0  0  0  0  0  0  0  0  0  0  0  0
    4.2412   -5.0107    2.2002 C   0  0  0  0  0  0  0  0  0  0  0  0
    4.1265   -4.4124    0.7919 C   0  0  1  0  0  0  0  0  0  0  0  0
    4.0451   -2.8761    0.7040 C   0  0  2  0  0  0  0  0  0  0  0  0
    5.8090   -1.8683    0.0639 C   0  0  0  0  0  0  0  0  0  0  0  0
    6.3196   -1.5086    1.1267 C   0  0  1  0  0  0  0  0  0  0  0  0
    5.0390   -0.5630    1.1767 C   0  0  2  0  0  0  0  0  0  0  0  0
    5.2353   -0.7897    2.6818 C   0  0  0  0  0  0  0  0  0  0  0  0
    5.3247   -2.3773    2.7772 C   0  0  2  0  0  0  0  0  0  0  0  0
    6.1740   -3.0437    1.4457 C   0  0  1  0  0  0  0  0  0  0  0  0
    5.2992   -4.0628    0.0228 C   0  0  2  0  0  0  0  0  0  0  0  0
    4.5814   -3.2960   -1.5017 C   0  0  0  0  0  0  0  0  0  0  0  0
    4.7385   -3.8536   -2.7749 C   0  0  0  0  0  0  0  0  0  0  0  0
    4.1918   -3.2254   -3.9064 C   0  0  0  0  0  0  0  0  0  0  0  0
    3.4979   -1.9998   -3.8149 C   0  0  0  0  0  0  0  0  0  0  0  0
    3.3122   -1.3462   -2.5782 C   0  0  0  0  0  0  0  0  0  0  0  0
    3.8045   -1.9185   -1.3938 C   0  0  0  0  0  0  0  0  0  0  0  0
    3.6291   -1.0988    0.2508 C   0  0  1  0  0  0  0  0  0  0  0  0
    3.1242   -2.0749    1.4306 C   0  0  2  0  0  0  0  0  0  0  0  0
    3.1579   -1.0438    3.7982 H   0  0  0  0  0  0  0  0  0  0  0  0
    3.7599   -4.3184    4.1635 H   0  0  0  0  0  0  0  0  0  0  0  0
    2.4074   -4.2767    3.0647 H   0  0  0  0  0  0  0  0  0  0  0  0
    5.2740   -5.1458    2.5258 H   0  0  0  0  0  0  0  0  0  0  0  0
    3.7985   -6.0076    2.2322 H   0  0  0  0  0  0  0  0  0  0  0  0
    3.4557   -5.0308    0.1771 H   0  0  0  0  0  0  0  0  0  0  0  0
    3.1063   -3.2198    0.1918 H   0  0  0  0  0  0  0  0  0  0  0  0
    6.6203   -2.3391   -0.5474 H   0  0  0  0  0  0  0  0  0  0  0  0
    5.8353   -1.0592   -0.7047 H   0  0  0  0  0  0  0  0  0  0  0  0
    7.3116   -1.0693    1.0108 H   0  0  0  0  0  0  0  0  0  0  0  0
    5.2920    0.4604    0.9024 H   0  0  0  0  0  0  0  0  0  0  0  0
    6.1631   -0.3359    3.0529 H   0  0  0  0  0  0  0  0  0  0  0  0
    4.4857   -0.2526    3.2605 H   0  0  0  0  0  0  0  0  0  0  0  0
    5.7714   -2.6821    3.7198 H   0  0  0  0  0  0  0  0  0  0  0  0
    7.1264   -3.4893    1.7365 H   0  0  0  0  0  0  0  0  0  0  0  0
    5.8756   -4.9477   -0.2417 H   0  0  0  0  0  0  0  0  0  0  0  0
    5.2576   -4.7939   -2.8939 H   0  0  0  0  0  0  0  0  0  0  0  0
    4.3029   -3.7185   -4.8596 H   0  0  0  0  0  0  0  0  0  0  0  0
    3.0836   -1.5535   -4.7097 H   0  0  0  0  0  0  0  0  0  0  0  0
    2.7710   -0.4109   -2.5509 H   0  0  0  0  0  0  0  0  0  0  0  0
    2.9226   -0.2746    0.1602 H   0  0  0  0  0  0  0  0  0  0  0  0
    2.0504   -2.2951    1.3779 H   0  0  0  0  0  0  0  0  0  0  0  0
  2  1  1  1
  1 22  1  0
  2 11  1  0
  2 21  1  0
  2  3  1  0
  3  4  1  0
  3 23  1  0
  3 24  1  0
  4  5  1  0
  4 25  1  0
  4 26  1  0
  5 13  1  0
  5  6  1  0
  5 27  1  6
  6 21  1  0
  6  7  1  0
  6 28  1  6
  7  8  1  0
  7 29  1  0
  7 30  1  0
  8 12  1  0
  8  9  1  0
  8 31  1  6
  9 20  1  0
  9 10  1  0
  9 32  1  1
 10 11  1  0
 10 33  1  0
 10 34  1  0
 11 12  1  0
 11 35  1  1
 12 13  1  0
 12 36  1  1
 13 14  1  0
 13 37  1  6
 14 19  2  0
 14 15  1  0
 15 16  2  0
 15 38  1  0
 16 17  1  0
 16 39  1  0
 17 18  2  0
 17 40  1  0
 18 19  1  0
 18 41  1  0
 19 20  1  0
 20 21  1  0
 20 42  1  6
 21 43  1  1
M  END
>  <i_m_ct_stereo_status>  (397) 
1

>  <s_m_source_file>  (397) 
/var/tmp/pbs.5076255.sched01/tmp0q3ly_rt/135fqi89qhj.sdf

>  <i_m_source_file_index>  (397) 
30

>  <i_lp_mmshare_version>  (397) 
48012

>  <i_f3d_flags>  (397) 
2

>  <s_epik_input>  (397) 
W09IXVtDQF0xMltDQEhdM1tDQEhdNFtDQEhdNVtDQEhdKFtDSDJdMylbQ0BIXTZjN2MoW0NAQEhdNFtDQEhdKFtDSDJdW0NIMl0xKVtDQEBIXShbQ0gyXTUpW0NIXTI2KVtjSF1bY0hdW2NIXVtjSF03

>  <s_epik_cmdline>  (397) 
J2VwaWtfcHl0aG9uJywgJy1waHQnLCAnMi4wJywgJy1waCcsICc3LjAnLCAnLXRuJywgJzgnLCAnLW1hJywgJzIwMCcsICctaW1hZScsICc8aW5maWxlLm1hZT4nLCAnLW9tYWUnLCAnPG91dGZpbGUubWFlPic=

>  <r_lp_tautomer_probability>  (397) 
1

>  <r_epik_Ionization_Penalty>  (397) 
3.42559e-06

>  <r_epik_Ionization_Penalty_Charging>  (397) 
0

>  <r_epik_Ionization_Penalty_Neutral>  (397) 
3.42559e-06

>  <r_epik_State_Penalty>  (397) 
-0

>  <r_epik_Charging_Adjusted_Penalty>  (397) 
0

>  <i_epik_Tot_Q>  (397) 
0

>  <i_epik_Tot_abs_Q>  (397) 
0

>  <s_lp_Force_Field>  (397) 
OPLS3e

>  <r_lp_Energy>  (397) 
836.08

>  <b_lp_Chiralities_Consistent>  (397) 
0

>  <s_lp_Variant>  (397) 
110:0-1

>  <s_i_glide_gridfile>  (397) 
pfpi4k_grid

>  <i_i_glide_lignum>  (397) 
30

>  <i_i_glide_rotatable_bonds>  (397) 
1

>  <r_i_docking_score>  (397) 
-3.52031

>  <r_i_glide_ligand_efficiency>  (397) 
-0.167634

>  <r_i_glide_ligand_efficiency_sa>  (397) 
-0.46249

>  <r_i_glide_ligand_efficiency_ln>  (397) 
-0.870391

>  <r_i_glide_gscore>  (397) 
-3.52031

>  <r_i_glide_lipo>  (397) 
-0.871306

>  <r_i_glide_hbond>  (397) 
0

>  <r_i_glide_metal>  (397) 
-0

>  <r_i_glide_rewards>  (397) 
-1.51099

>  <r_i_glide_evdw>  (397) 
-24.1764

>  <r_i_glide_ecoul>  (397) 
0.472013

>  <r_i_glide_erotb>  (397) 
0

>  <r_i_glide_esite>  (397) 
0

>  <r_i_glide_emodel>  (397) 
-28.8757

>  <r_i_glide_energy>  (397) 
-23.7044

>  <r_i_glide_einternal>  (397) 
0.00882135

>  <r_i_glide_intrahb_reward>  (397) 
-0

>  <i_i_glide_confnum>  (397) 
1

>  <i_i_glide_posenum>  (397) 
5

>  <r_i_glide_eff_state_penalty>  (397) 
0

>  <ligand_id>  (397) 
110

>  <original_smiles>  (397) 
OC12CCC3C4CC5C6CC1C5C3c1ccccc1C6C42

>  <smiles>  (397) 
[H]OC12C([H])([H])C([H])([H])C3([H])C4([H])c5c([H])c([H])c([H])c([H])c5C5([H])C6([H])C([H])([H])C1([H])C4([H])C6([H])C([H])([H])C3([H])C52[H]

$$$$
110:0:2
     RDKit          3D

 43 49  0  0  1  0  0  0  0  0999 V2000
    3.1164   -1.9772    3.8940 O   0  0  0  0  0  0  0  0  0  0  0  0
    3.7871   -2.5954    2.8028 C   0  0  2  0  0  0  0  0  0  0  0  0
    3.4979   -4.0838    3.1383 C   0  0  0  0  0  0  0  0  0  0  0  0
    4.2555   -5.0121    2.1943 C   0  0  0  0  0  0  0  0  0  0  0  0
    4.1334   -4.4131    0.7870 C   0  0  1  0  0  0  0  0  0  0  0  0
    4.0497   -2.8772    0.7020 C   0  0  2  0  0  0  0  0  0  0  0  0
    5.8113   -1.8685    0.0511 C   0  0  0  0  0  0  0  0  0  0  0  0
    6.3269   -1.5101    1.1101 C   0  0  1  0  0  0  0  0  0  0  0  0
    5.0490   -0.5651    1.1688 C   0  0  2  0  0  0  0  0  0  0  0  0
    5.2526   -0.7932    2.6731 C   0  0  0  0  0  0  0  0  0  0  0  0
    5.3441   -2.3804    2.7654 C   0  0  2  0  0  0  0  0  0  0  0  0
    6.1859   -3.0446    1.4296 C   0  0  1  0  0  0  0  0  0  0  0  0
    5.3004   -4.0629    0.0114 C   0  0  2  0  0  0  0  0  0  0  0  0
    4.5738   -3.2954   -1.5072 C   0  0  0  0  0  0  0  0  0  0  0  0
    4.7229   -3.8569   -2.7801 C   0  0  0  0  0  0  0  0  0  0  0  0
    4.1697   -3.2252   -3.9106 C   0  0  0  0  0  0  0  0  0  0  0  0
    3.4759   -1.9983   -3.8127 C   0  0  0  0  0  0  0  0  0  0  0  0
    3.2979   -1.3449   -2.5757 C   0  0  0  0  0  0  0  0  0  0  0  0
    3.7978   -1.9183   -1.3946 C   0  0  0  0  0  0  0  0  0  0  0  0
    3.6314   -1.0999    0.2528 C   0  0  1  0  0  0  0  0  0  0  0  0
    3.1360   -2.0757    1.4346 C   0  0  2  0  0  0  0  0  0  0  0  0
    3.5052   -2.2833    4.6973 H   0  0  0  0  0  0  0  0  0  0  0  0
    3.7865   -4.3287    4.1614 H   0  0  0  0  0  0  0  0  0  0  0  0
    2.4268   -4.2790    3.0687 H   0  0  0  0  0  0  0  0  0  0  0  0
    5.2907   -5.1471    2.5135 H   0  0  0  0  0  0  0  0  0  0  0  0
    3.8134   -6.0092    2.2276 H   0  0  0  0  0  0  0  0  0  0  0  0
    3.4584   -5.0296    0.1760 H   0  0  0  0  0  0  0  0  0  0  0  0
    3.1098   -3.2187    0.1962 H   0  0  0  0  0  0  0  0  0  0  0  0
    6.6185   -2.3389   -0.5656 H   0  0  0  0  0  0  0  0  0  0  0  0
    5.8326   -1.0588   -0.7178 H   0  0  0  0  0  0  0  0  0  0  0  0
    7.3192   -1.0690    0.9882 H   0  0  0  0  0  0  0  0  0  0  0  0
    5.2987    0.4595    0.8933 H   0  0  0  0  0  0  0  0  0  0  0  0
    6.1798   -0.3367    3.0390 H   0  0  0  0  0  0  0  0  0  0  0  0
    4.5004   -0.2604    3.2533 H   0  0  0  0  0  0  0  0  0  0  0  0
    5.8002   -2.6849    3.7061 H   0  0  0  0  0  0  0  0  0  0  0  0
    7.1397   -3.4897    1.7117 H   0  0  0  0  0  0  0  0  0  0  0  0
    5.8752   -4.9478   -0.2562 H   0  0  0  0  0  0  0  0  0  0  0  0
    5.2401   -4.7939   -2.9034 H   0  0  0  0  0  0  0  0  0  0  0  0
    4.2740   -3.7184   -4.8613 H   0  0  0  0  0  0  0  0  0  0  0  0
    3.0579   -1.5535   -4.7067 H   0  0  0  0  0  0  0  0  0  0  0  0
    2.7576   -0.4102   -2.5445 H   0  0  0  0  0  0  0  0  0  0  0  0
    2.9259   -0.2755    0.1662 H   0  0  0  0  0  0  0  0  0  0  0  0
    2.0611   -2.2949    1.3897 H   0  0  0  0  0  0  0  0  0  0  0  0
  2  1  1  1
  1 22  1  0
  2 11  1  0
  2 21  1  0
  2  3  1  0
  3  4  1  0
  3 23  1  0
  3 24  1  0
  4  5  1  0
  4 25  1  0
  4 26  1  0
  5 13  1  0
  5  6  1  0
  5 27  1  6
  6 21  1  0
  6  7  1  0
  6 28  1  6
  7  8  1  0
  7 29  1  0
  7 30  1  0
  8 12  1  0
  8  9  1  0
  8 31  1  6
  9 20  1  0
  9 10  1  0
  9 32  1  1
 10 11  1  0
 10 33  1  0
 10 34  1  0
 11 12  1  0
 11 35  1  1
 12 13  1  0
 12 36  1  1
 13 14  1  0
 13 37  1  6
 14 19  2  0
 14 15  1  0
 15 16  2  0
 15 38  1  0
 16 17  1  0
 16 39  1  0
 17 18  2  0
 17 40  1  0
 18 19  1  0
 18 41  1  0
 19 20  1  0
 20 21  1  0
 20 42  1  6
 21 43  1  1
M  END
>  <i_m_ct_stereo_status>  (398) 
1

>  <s_m_source_file>  (398) 
/var/tmp/pbs.5076255.sched01/tmp0q3ly_rt/135fqi89qhj.sdf

>  <i_m_source_file_index>  (398) 
30

>  <i_lp_mmshare_version>  (398) 
48012

>  <i_f3d_flags>  (398) 
2

>  <s_epik_input>  (398) 
W09IXVtDQF0xMltDQEhdM1tDQEhdNFtDQEhdNVtDQEhdKFtDSDJdMylbQ0BIXTZjN2MoW0NAQEhdNFtDQEhdKFtDSDJdW0NIMl0xKVtDQEBIXShbQ0gyXTUpW0NIXTI2KVtjSF1bY0hdW2NIXVtjSF03

>  <s_epik_cmdline>  (398) 
J2VwaWtfcHl0aG9uJywgJy1waHQnLCAnMi4wJywgJy1waCcsICc3LjAnLCAnLXRuJywgJzgnLCAnLW1hJywgJzIwMCcsICctaW1hZScsICc8aW5maWxlLm1hZT4nLCAnLW9tYWUnLCAnPG91dGZpbGUubWFlPic=

>  <r_lp_tautomer_probability>  (398) 
1

>  <r_epik_Ionization_Penalty>  (398) 
3.42559e-06

>  <r_epik_Ionization_Penalty_Charging>  (398) 
0

>  <r_epik_Ionization_Penalty_Neutral>  (398) 
3.42559e-06

>  <r_epik_State_Penalty>  (398) 
-0

>  <r_epik_Charging_Adjusted_Penalty>  (398) 
0

>  <i_epik_Tot_Q>  (398) 
0

>  <i_epik_Tot_abs_Q>  (398) 
0

>  <s_lp_Force_Field>  (398) 
OPLS3e

>  <r_lp_Energy>  (398) 
836.08

>  <b_lp_Chiralities_Consistent>  (398) 
0

>  <s_lp_Variant>  (398) 
110:0-1

>  <s_i_glide_gridfile>  (398) 
pfpi4k_grid

>  <i_i_glide_lignum>  (398) 
30

>  <i_i_glide_rotatable_bonds>  (398) 
1

>  <r_i_docking_score>  (398) 
-3.44736

>  <r_i_glide_ligand_efficiency>  (398) 
-0.16416

>  <r_i_glide_ligand_efficiency_sa>  (398) 
-0.452905

>  <r_i_glide_ligand_efficiency_ln>  (398) 
-0.852353

>  <r_i_glide_gscore>  (398) 
-3.44736

>  <r_i_glide_lipo>  (398) 
-0.860704

>  <r_i_glide_hbond>  (398) 
0

>  <r_i_glide_metal>  (398) 
-0

>  <r_i_glide_rewards>  (398) 
-1.51099

>  <r_i_glide_evdw>  (398) 
-24.1917

>  <r_i_glide_ecoul>  (398) 
0.892783

>  <r_i_glide_erotb>  (398) 
0

>  <r_i_glide_esite>  (398) 
0

>  <r_i_glide_emodel>  (398) 
-28.3581

>  <r_i_glide_energy>  (398) 
-23.2989

>  <r_i_glide_einternal>  (398) 
0.0168509

>  <r_i_glide_intrahb_reward>  (398) 
-0

>  <i_i_glide_confnum>  (398) 
1

>  <i_i_glide_posenum>  (398) 
21

>  <r_i_glide_eff_state_penalty>  (398) 
0

>  <ligand_id>  (398) 
110

>  <original_smiles>  (398) 
OC12CCC3C4CC5C6CC1C5C3c1ccccc1C6C42

>  <smiles>  (398) 
[H]OC12C([H])([H])C([H])([H])C3([H])C4([H])c5c([H])c([H])c([H])c([H])c5C5([H])C6([H])C([H])([H])C1([H])C4([H])C6([H])C([H])([H])C3([H])C52[H]

$$$$
112:0:0
     RDKit          3D

 41 44  0  0  1  0  0  0  0  0999 V2000
    5.9325   -2.4016    1.4019 C   0  0  0  0  0  0  0  0  0  0  0  0
    5.6814   -3.5271    0.3756 C   0  0  1  0  0  0  0  0  0  0  0  0
    4.2231   -3.3753   -0.0712 C   0  0  0  0  0  0  0  0  0  0  0  0
    3.8134   -3.0927   -1.3243 C   0  0  0  0  0  0  0  0  0  0  0  0
    4.7802   -2.9266   -2.4159 C   0  0  0  0  0  0  0  0  0  0  0  0
    4.4268   -2.6806   -3.5671 O   0  0  0  0  0  0  0  0  0  0  0  0
    6.2014   -3.0549   -2.0744 C   0  0  0  0  0  0  0  0  0  0  0  0
    6.6272   -3.3117   -0.8226 C   0  0  0  0  0  0  0  0  0  0  0  0
    8.1197   -3.4608   -0.5330 C   0  0  0  0  0  0  0  0  0  0  0  0
    8.4270   -4.4721    0.5874 C   0  0  0  0  0  0  0  0  0  0  0  0
    7.3465   -5.5579    0.7181 C   0  0  2  0  0  0  0  0  0  0  0  0
    5.9126   -4.9759    0.9558 C   0  0  1  0  0  0  0  0  0  0  0  0
    5.4111   -5.1815    2.4019 C   0  0  0  0  0  0  0  0  0  0  0  0
    5.4869   -6.6617    2.8372 C   0  0  0  0  0  0  0  0  0  0  0  0
    6.8774   -7.2582    2.7020 C   0  0  2  0  0  0  0  0  0  0  0  0
    6.8471   -8.7603    2.9480 C   0  0  0  0  0  0  0  0  0  0  0  0
    8.0925   -6.4478    3.1144 C   0  0  1  0  0  0  0  0  0  0  0  0
    9.1691   -7.2147    3.6170 O   0  0  0  0  0  0  0  0  0  0  0  0
    7.7951   -6.6913    1.6447 C   0  0  2  0  0  0  0  0  0  0  0  0
    5.8406   -1.4151    0.9432 H   0  0  0  0  0  0  0  0  0  0  0  0
    6.9282   -2.4577    1.8276 H   0  0  0  0  0  0  0  0  0  0  0  0
    5.2208   -2.4352    2.2258 H   0  0  0  0  0  0  0  0  0  0  0  0
    3.4800   -3.4778    0.7078 H   0  0  0  0  0  0  0  0  0  0  0  0
    2.7639   -2.9757   -1.5590 H   0  0  0  0  0  0  0  0  0  0  0  0
    6.9127   -2.9392   -2.8783 H   0  0  0  0  0  0  0  0  0  0  0  0
    8.6055   -3.7944   -1.4539 H   0  0  0  0  0  0  0  0  0  0  0  0
    8.5477   -2.4870   -0.2876 H   0  0  0  0  0  0  0  0  0  0  0  0
    9.3966   -4.9330    0.4089 H   0  0  0  0  0  0  0  0  0  0  0  0
    8.5176   -3.9520    1.5396 H   0  0  0  0  0  0  0  0  0  0  0  0
    7.2941   -6.0461   -0.2485 H   0  0  0  0  0  0  0  0  0  0  0  0
    5.2693   -5.6252    0.3596 H   0  0  0  0  0  0  0  0  0  0  0  0
    5.9858   -4.5658    3.0951 H   0  0  0  0  0  0  0  0  0  0  0  0
    4.3747   -4.8469    2.4841 H   0  0  0  0  0  0  0  0  0  0  0  0
    5.1625   -6.7644    3.8734 H   0  0  0  0  0  0  0  0  0  0  0  0
    4.7989   -7.2504    2.2292 H   0  0  0  0  0  0  0  0  0  0  0  0
    7.8271   -9.2014    2.7901 H   0  0  0  0  0  0  0  0  0  0  0  0
    6.1537   -9.2521    2.2688 H   0  0  0  0  0  0  0  0  0  0  0  0
    6.5506   -8.9729    3.9736 H   0  0  0  0  0  0  0  0  0  0  0  0
    7.9914   -5.4572    3.5404 H   0  0  0  0  0  0  0  0  0  0  0  0
    9.7531   -7.4420    2.8942 H   0  0  0  0  0  0  0  0  0  0  0  0
    8.4459   -7.4048    1.1428 H   0  0  0  0  0  0  0  0  0  0  0  0
  2  1  1  1
  1 20  1  0
  1 21  1  0
  1 22  1  0
  2  8  1  0
  2 12  1  0
  2  3  1  0
  3  4  2  0
  3 23  1  0
  4  5  1  0
  4 24  1  0
  5  6  2  0
  5  7  1  0
  7  8  2  0
  7 25  1  0
  8  9  1  0
  9 10  1  0
  9 26  1  0
  9 27  1  0
 10 11  1  0
 10 28  1  0
 10 29  1  0
 11 19  1  0
 11 12  1  0
 11 30  1  6
 12 13  1  0
 12 31  1  6
 13 14  1  0
 13 32  1  0
 13 33  1  0
 14 15  1  0
 14 34  1  0
 14 35  1  0
 15 19  1  0
 15 16  1  1
 15 17  1  0
 16 36  1  0
 16 37  1  0
 16 38  1  0
 17 18  1  0
 17 19  1  0
 17 39  1  6
 18 40  1  0
 19 41  1  6
M  END
>  <i_m_ct_stereo_status>  (399) 
1

>  <s_m_source_file>  (399) 
/var/tmp/pbs.5076255.sched01/tmp0q3ly_rt/135fqi89qhj.sdf

>  <i_m_source_file_index>  (399) 
32

>  <i_lp_mmshare_version>  (399) 
48012

>  <i_f3d_flags>  (399) 
0

>  <s_epik_input>  (399) 
W0NIXTE9W0NIXUMoPU8pW0NIXT1DKFtDQEBdMTJbQ0gzXSlbQ0gyXVtDSDJdW0NAQEhdM1tDQEhdMltDSDJdW0NIMl1bQ0BAXTQoW0NIM10pW0NAQEhdM1tDQEBIXTRbT0hd

>  <s_epik_cmdline>  (399) 
J2VwaWtfcHl0aG9uJywgJy1waHQnLCAnMi4wJywgJy1waCcsICc3LjAnLCAnLXRuJywgJzgnLCAnLW1hJywgJzIwMCcsICctaW1hZScsICc8aW5maWxlLm1hZT4nLCAnLW9tYWUnLCAnPG91dGZpbGUubWFlPic=

>  <r_lp_tautomer_probability>  (399) 
1

>  <r_epik_Ionization_Penalty>  (399) 
1.02302e-06

>  <r_epik_Ionization_Penalty_Charging>  (399) 
0

>  <r_epik_Ionization_Penalty_Neutral>  (399) 
1.02302e-06

>  <r_epik_State_Penalty>  (399) 
-0

>  <r_epik_Charging_Adjusted_Penalty>  (399) 
0

>  <i_epik_Tot_Q>  (399) 
0

>  <i_epik_Tot_abs_Q>  (399) 
0

>  <s_lp_Force_Field>  (399) 
OPLS3e

>  <r_lp_Energy>  (399) 
32.2824

>  <b_lp_Chiralities_Consistent>  (399) 
1

>  <s_lp_Variant>  (399) 
112:0-1

>  <s_i_glide_gridfile>  (399) 
pfpi4k_grid

>  <i_i_glide_lignum>  (399) 
32

>  <i_i_glide_rotatable_bonds>  (399) 
1

>  <r_i_docking_score>  (399) 
-4.61822

>  <r_i_glide_ligand_efficiency>  (399) 
-0.243064

>  <r_i_glide_ligand_efficiency_sa>  (399) 
-0.648593

>  <r_i_glide_ligand_efficiency_ln>  (399) 
-1.17082

>  <r_i_glide_gscore>  (399) 
-4.61822

>  <r_i_glide_lipo>  (399) 
-0.957432

>  <r_i_glide_hbond>  (399) 
-0.16

>  <r_i_glide_metal>  (399) 
-0

>  <r_i_glide_rewards>  (399) 
-1.77846

>  <r_i_glide_evdw>  (399) 
-22.4033

>  <r_i_glide_ecoul>  (399) 
-4.0144

>  <r_i_glide_erotb>  (399) 
0

>  <r_i_glide_esite>  (399) 
0

>  <r_i_glide_emodel>  (399) 
-33.9315

>  <r_i_glide_energy>  (399) 
-26.4177

>  <r_i_glide_einternal>  (399) 
0.556516

>  <r_i_glide_intrahb_reward>  (399) 
-0

>  <i_i_glide_confnum>  (399) 
1

>  <i_i_glide_posenum>  (399) 
34

>  <r_i_glide_eff_state_penalty>  (399) 
0

>  <ligand_id>  (399) 
112

>  <original_smiles>  (399) 
CC12C=CC(=O)C=C1CCC1C2CCC2(C)C(O)C12

>  <smiles>  (399) 
[H]OC1([H])C2([H])C3([H])C([H])([H])C([H])([H])C4=C([H])C(=O)C([H])=C([H])C4(C([H])([H])[H])C3([H])C([H])([H])C([H])([H])C12C([H])([H])[H]

$$$$
112:0:1
     RDKit          3D

 41 44  0  0  1  0  0  0  0  0999 V2000
    6.1180   -1.7051    0.4737 C   0  0  0  0  0  0  0  0  0  0  0  0
    4.7590   -2.1471   -0.1236 C   0  0  1  0  0  0  0  0  0  0  0  0
    4.3586   -1.0625   -1.1219 C   0  0  0  0  0  0  0  0  0  0  0  0
    4.1888   -1.2388   -2.4497 C   0  0  0  0  0  0  0  0  0  0  0  0
    4.3747   -2.5569   -3.0683 C   0  0  0  0  0  0  0  0  0  0  0  0
    4.2143   -2.7283   -4.2760 O   0  0  0  0  0  0  0  0  0  0  0  0
    4.7768   -3.6568   -2.1816 C   0  0  0  0  0  0  0  0  0  0  0  0
    4.9520   -3.4894   -0.8552 C   0  0  0  0  0  0  0  0  0  0  0  0
    5.3187   -4.6784    0.0301 C   0  0  0  0  0  0  0  0  0  0  0  0
    4.7444   -4.5883    1.4545 C   0  0  0  0  0  0  0  0  0  0  0  0
    3.4423   -3.7741    1.5001 C   0  0  2  0  0  0  0  0  0  0  0  0
    3.6213   -2.3127    0.9578 C   0  0  1  0  0  0  0  0  0  0  0  0
    3.6256   -1.2350    2.0686 C   0  0  0  0  0  0  0  0  0  0  0  0
    2.3843   -1.3338    2.9812 C   0  0  0  0  0  0  0  0  0  0  0  0
    2.2273   -2.7035    3.6176 C   0  0  2  0  0  0  0  0  0  0  0  0
    0.8892   -2.8150    4.3395 C   0  0  0  0  0  0  0  0  0  0  0  0
    3.4487   -3.4317    4.1412 C   0  0  1  0  0  0  0  0  0  0  0  0
    3.2330   -4.2581    5.2656 O   0  0  0  0  0  0  0  0  0  0  0  0
    2.7658   -3.9064    2.8694 C   0  0  2  0  0  0  0  0  0  0  0  0
    6.8898   -1.6872   -0.2981 H   0  0  0  0  0  0  0  0  0  0  0  0
    6.4752   -2.3673    1.2612 H   0  0  0  0  0  0  0  0  0  0  0  0
    6.0714   -0.6995    0.8952 H   0  0  0  0  0  0  0  0  0  0  0  0
    4.2205   -0.0769   -0.6985 H   0  0  0  0  0  0  0  0  0  0  0  0
    3.9103   -0.4168   -3.0930 H   0  0  0  0  0  0  0  0  0  0  0  0
    4.9082   -4.6317   -2.6280 H   0  0  0  0  0  0  0  0  0  0  0  0
    4.9321   -5.5792   -0.4493 H   0  0  0  0  0  0  0  0  0  0  0  0
    6.4044   -4.7732    0.0768 H   0  0  0  0  0  0  0  0  0  0  0  0
    4.5819   -5.5932    1.8503 H   0  0  0  0  0  0  0  0  0  0  0  0
    5.4778   -4.1281    2.1173 H   0  0  0  0  0  0  0  0  0  0  0  0
    2.7710   -4.2690    0.7979 H   0  0  0  0  0  0  0  0  0  0  0  0
    2.6900   -2.1208    0.4216 H   0  0  0  0  0  0  0  0  0  0  0  0
    4.5325   -1.3098    2.6692 H   0  0  0  0  0  0  0  0  0  0  0  0
    3.6446   -0.2410    1.6182 H   0  0  0  0  0  0  0  0  0  0  0  0
    2.4403   -0.5850    3.7719 H   0  0  0  0  0  0  0  0  0  0  0  0
    1.4893   -1.1147    2.3958 H   0  0  0  0  0  0  0  0  0  0  0  0
    0.7322   -3.8185    4.7303 H   0  0  0  0  0  0  0  0  0  0  0  0
    0.0621   -2.5981    3.6653 H   0  0  0  0  0  0  0  0  0  0  0  0
    0.8439   -2.1160    5.1728 H   0  0  0  0  0  0  0  0  0  0  0  0
    4.4385   -2.9786    4.1007 H   0  0  0  0  0  0  0  0  0  0  0  0
    2.4453   -4.7697    5.1381 H   0  0  0  0  0  0  0  0  0  0  0  0
    2.1881   -4.8225    2.9613 H   0  0  0  0  0  0  0  0  0  0  0  0
  2  1  1  1
  1 20  1  0
  1 21  1  0
  1 22  1  0
  2  8  1  0
  2 12  1  0
  2  3  1  0
  3  4  2  0
  3 23  1  0
  4  5  1  0
  4 24  1  0
  5  6  2  0
  5  7  1  0
  7  8  2  0
  7 25  1  0
  8  9  1  0
  9 10  1  0
  9 26  1  0
  9 27  1  0
 10 11  1  0
 10 28  1  0
 10 29  1  0
 11 19  1  0
 11 12  1  0
 11 30  1  6
 12 13  1  0
 12 31  1  6
 13 14  1  0
 13 32  1  0
 13 33  1  0
 14 15  1  0
 14 34  1  0
 14 35  1  0
 15 19  1  0
 15 16  1  1
 15 17  1  0
 16 36  1  0
 16 37  1  0
 16 38  1  0
 17 18  1  0
 17 19  1  0
 17 39  1  6
 18 40  1  0
 19 41  1  1
M  END
>  <i_m_ct_stereo_status>  (400) 
1

>  <s_m_source_file>  (400) 
/var/tmp/pbs.5076255.sched01/tmp0q3ly_rt/135fqi89qhj.sdf

>  <i_m_source_file_index>  (400) 
32

>  <i_lp_mmshare_version>  (400) 
48012

>  <i_f3d_flags>  (400) 
0

>  <s_epik_input>  (400) 
W0NIXTE9W0NIXUMoPU8pW0NIXT1DKFtDQEBdMTJbQ0gzXSlbQ0gyXVtDSDJdW0NAQEhdM1tDQEhdMltDSDJdW0NIMl1bQ0BAXTQoW0NIM10pW0NAQEhdM1tDQEBIXTRbT0hd

>  <s_epik_cmdline>  (400) 
J2VwaWtfcHl0aG9uJywgJy1waHQnLCAnMi4wJywgJy1waCcsICc3LjAnLCAnLXRuJywgJzgnLCAnLW1hJywgJzIwMCcsICctaW1hZScsICc8aW5maWxlLm1hZT4nLCAnLW9tYWUnLCAnPG91dGZpbGUubWFlPic=

>  <r_lp_tautomer_probability>  (400) 
1

>  <r_epik_Ionization_Penalty>  (400) 
1.02302e-06

>  <r_epik_Ionization_Penalty_Charging>  (400) 
0

>  <r_epik_Ionization_Penalty_Neutral>  (400) 
1.02302e-06

>  <r_epik_State_Penalty>  (400) 
-0

>  <r_epik_Charging_Adjusted_Penalty>  (400) 
0

>  <i_epik_Tot_Q>  (400) 
0

>  <i_epik_Tot_abs_Q>  (400) 
0

>  <s_lp_Force_Field>  (400) 
OPLS3e

>  <r_lp_Energy>  (400) 
32.2824

>  <b_lp_Chiralities_Consistent>  (400) 
1

>  <s_lp_Variant>  (400) 
112:0-1

>  <s_i_glide_gridfile>  (400) 
pfpi4k_grid

>  <i_i_glide_lignum>  (400) 
32

>  <i_i_glide_rotatable_bonds>  (400) 
1

>  <r_i_docking_score>  (400) 
-4.10153

>  <r_i_glide_ligand_efficiency>  (400) 
-0.21587

>  <r_i_glide_ligand_efficiency_sa>  (400) 
-0.576028

>  <r_i_glide_ligand_efficiency_ln>  (400) 
-1.03983

>  <r_i_glide_gscore>  (400) 
-4.10153

>  <r_i_glide_lipo>  (400) 
-0.257796

>  <r_i_glide_hbond>  (400) 
-0.279824

>  <r_i_glide_metal>  (400) 
-0

>  <r_i_glide_rewards>  (400) 
-1.81504

>  <r_i_glide_evdw>  (400) 
-22.7987

>  <r_i_glide_ecoul>  (400) 
-4.05957

>  <r_i_glide_erotb>  (400) 
0

>  <r_i_glide_esite>  (400) 
0

>  <r_i_glide_emodel>  (400) 
-33.7989

>  <r_i_glide_energy>  (400) 
-26.8583

>  <r_i_glide_einternal>  (400) 
0.0610737

>  <r_i_glide_intrahb_reward>  (400) 
-0

>  <i_i_glide_confnum>  (400) 
2

>  <i_i_glide_posenum>  (400) 
9

>  <r_i_glide_eff_state_penalty>  (400) 
0

>  <ligand_id>  (400) 
112

>  <original_smiles>  (400) 
CC12C=CC(=O)C=C1CCC1C2CCC2(C)C(O)C12

>  <smiles>  (400) 
[H]OC1([H])C2([H])C3([H])C([H])([H])C([H])([H])C4=C([H])C(=O)C([H])=C([H])C4(C([H])([H])[H])C3([H])C([H])([H])C([H])([H])C12C([H])([H])[H]

$$$$
112:0:2
     RDKit          3D

 41 44  0  0  1  0  0  0  0  0999 V2000
    6.2095   -1.3076    0.2127 C   0  0  0  0  0  0  0  0  0  0  0  0
    4.8498   -1.7861   -0.3451 C   0  0  1  0  0  0  0  0  0  0  0  0
    4.6364   -1.0501   -1.6733 C   0  0  0  0  0  0  0  0  0  0  0  0
    4.5310   -1.6304   -2.8862 C   0  0  0  0  0  0  0  0  0  0  0  0
    4.6134   -3.0829   -3.0290 C   0  0  0  0  0  0  0  0  0  0  0  0
    4.5209   -3.6282   -4.1286 O   0  0  0  0  0  0  0  0  0  0  0  0
    4.8280   -3.8646   -1.8103 C   0  0  0  0  0  0  0  0  0  0  0  0
    4.9321   -3.2994   -0.5939 C   0  0  0  0  0  0  0  0  0  0  0  0
    5.0999   -4.1746    0.6447 C   0  0  0  0  0  0  0  0  0  0  0  0
    4.4498   -3.5816    1.9057 C   0  0  0  0  0  0  0  0  0  0  0  0
    3.2546   -2.6775    1.5675 C   0  0  2  0  0  0  0  0  0  0  0  0
    3.6403   -1.4932    0.6177 C   0  0  1  0  0  0  0  0  0  0  0  0
    3.7008   -0.1212    1.3237 C   0  0  0  0  0  0  0  0  0  0  0  0
    2.3964    0.1965    2.0886 C   0  0  0  0  0  0  0  0  0  0  0  0
    2.0367   -0.8716    3.1053 C   0  0  2  0  0  0  0  0  0  0  0  0
    0.6544   -0.6191    3.6875 C   0  0  0  0  0  0  0  0  0  0  0  0
    3.1308   -1.4958    3.9504 C   0  0  1  0  0  0  0  0  0  0  0  0
    2.7462   -1.9211    5.2414 O   0  0  0  0  0  0  0  0  0  0  0  0
    2.4825   -2.2959    2.8334 C   0  0  2  0  0  0  0  0  0  0  0  0
    7.0253   -1.6181   -0.4413 H   0  0  0  0  0  0  0  0  0  0  0  0
    6.4294   -1.7099    1.1984 H   0  0  0  0  0  0  0  0  0  0  0  0
    6.2490   -0.2222    0.2893 H   0  0  0  0  0  0  0  0  0  0  0  0
    4.5965    0.0267   -1.6142 H   0  0  0  0  0  0  0  0  0  0  0  0
    4.4017   -1.0470   -3.7852 H   0  0  0  0  0  0  0  0  0  0  0  0
    4.8809   -4.9367   -1.9186 H   0  0  0  0  0  0  0  0  0  0  0  0
    4.6421   -5.1444    0.4329 H   0  0  0  0  0  0  0  0  0  0  0  0
    6.1638   -4.3467    0.8186 H   0  0  0  0  0  0  0  0  0  0  0  0
    4.1455   -4.3845    2.5761 H   0  0  0  0  0  0  0  0  0  0  0  0
    5.1868   -3.0005    2.4577 H   0  0  0  0  0  0  0  0  0  0  0  0
    2.5728   -3.3057    0.9912 H   0  0  0  0  0  0  0  0  0  0  0  0
    2.7752   -1.4064   -0.0369 H   0  0  0  0  0  0  0  0  0  0  0  0
    4.5491   -0.0773    2.0084 H   0  0  0  0  0  0  0  0  0  0  0  0
    3.8709    0.6640    0.5859 H   0  0  0  0  0  0  0  0  0  0  0  0
    2.4886    1.1535    2.6044 H   0  0  0  0  0  0  0  0  0  0  0  0
    1.5746    0.2964    1.3752 H   0  0  0  0  0  0  0  0  0  0  0  0
    0.3529   -1.4243    4.3530 H   0  0  0  0  0  0  0  0  0  0  0  0
   -0.0908   -0.5536    2.8965 H   0  0  0  0  0  0  0  0  0  0  0  0
    0.6424    0.3127    4.2496 H   0  0  0  0  0  0  0  0  0  0  0  0
    4.1680   -1.1818    3.8665 H   0  0  0  0  0  0  0  0  0  0  0  0
    1.8397   -2.1846    5.2225 H   0  0  0  0  0  0  0  0  0  0  0  0
    1.7925   -3.0751    3.1474 H   0  0  0  0  0  0  0  0  0  0  0  0
  2  1  1  1
  1 20  1  0
  1 21  1  0
  1 22  1  0
  2  8  1  0
  2 12  1  0
  2  3  1  0
  3  4  2  0
  3 23  1  0
  4  5  1  0
  4 24  1  0
  5  6  2  0
  5  7  1  0
  7  8  2  0
  7 25  1  0
  8  9  1  0
  9 10  1  0
  9 26  1  0
  9 27  1  0
 10 11  1  0
 10 28  1  0
 10 29  1  0
 11 19  1  0
 11 12  1  0
 11 30  1  6
 12 13  1  0
 12 31  1  6
 13 14  1  0
 13 32  1  0
 13 33  1  0
 14 15  1  0
 14 34  1  0
 14 35  1  0
 15 19  1  0
 15 16  1  1
 15 17  1  0
 16 36  1  0
 16 37  1  0
 16 38  1  0
 17 18  1  0
 17 19  1  0
 17 39  1  1
 18 40  1  0
 19 41  1  1
M  END
>  <i_m_ct_stereo_status>  (401) 
1

>  <s_m_source_file>  (401) 
/var/tmp/pbs.5076255.sched01/tmp0q3ly_rt/135fqi89qhj.sdf

>  <i_m_source_file_index>  (401) 
32

>  <i_lp_mmshare_version>  (401) 
48012

>  <i_f3d_flags>  (401) 
0

>  <s_epik_input>  (401) 
W0NIXTE9W0NIXUMoPU8pW0NIXT1DKFtDQEBdMTJbQ0gzXSlbQ0gyXVtDSDJdW0NAQEhdM1tDQEhdMltDSDJdW0NIMl1bQ0BAXTQoW0NIM10pW0NAQEhdM1tDQEBIXTRbT0hd

>  <s_epik_cmdline>  (401) 
J2VwaWtfcHl0aG9uJywgJy1waHQnLCAnMi4wJywgJy1waCcsICc3LjAnLCAnLXRuJywgJzgnLCAnLW1hJywgJzIwMCcsICctaW1hZScsICc8aW5maWxlLm1hZT4nLCAnLW9tYWUnLCAnPG91dGZpbGUubWFlPic=

>  <r_lp_tautomer_probability>  (401) 
1

>  <r_epik_Ionization_Penalty>  (401) 
1.02302e-06

>  <r_epik_Ionization_Penalty_Charging>  (401) 
0

>  <r_epik_Ionization_Penalty_Neutral>  (401) 
1.02302e-06

>  <r_epik_State_Penalty>  (401) 
-0

>  <r_epik_Charging_Adjusted_Penalty>  (401) 
0

>  <i_epik_Tot_Q>  (401) 
0

>  <i_epik_Tot_abs_Q>  (401) 
0

>  <s_lp_Force_Field>  (401) 
OPLS3e

>  <r_lp_Energy>  (401) 
32.2824

>  <b_lp_Chiralities_Consistent>  (401) 
1

>  <s_lp_Variant>  (401) 
112:0-1

>  <s_i_glide_gridfile>  (401) 
pfpi4k_grid

>  <i_i_glide_lignum>  (401) 
32

>  <i_i_glide_rotatable_bonds>  (401) 
1

>  <r_i_docking_score>  (401) 
-3.65328

>  <r_i_glide_ligand_efficiency>  (401) 
-0.192278

>  <r_i_glide_ligand_efficiency_sa>  (401) 
-0.513075

>  <r_i_glide_ligand_efficiency_ln>  (401) 
-0.926185

>  <r_i_glide_gscore>  (401) 
-3.65328

>  <r_i_glide_lipo>  (401) 
-0.149365

>  <r_i_glide_hbond>  (401) 
-0.0300937

>  <r_i_glide_metal>  (401) 
-0

>  <r_i_glide_rewards>  (401) 
-1.81841

>  <r_i_glide_evdw>  (401) 
-24.7744

>  <r_i_glide_ecoul>  (401) 
-2.77793

>  <r_i_glide_erotb>  (401) 
0

>  <r_i_glide_esite>  (401) 
0

>  <r_i_glide_emodel>  (401) 
-33.7624

>  <r_i_glide_energy>  (401) 
-27.5523

>  <r_i_glide_einternal>  (401) 
0.00208234

>  <r_i_glide_intrahb_reward>  (401) 
-0

>  <i_i_glide_confnum>  (401) 
1

>  <i_i_glide_posenum>  (401) 
1

>  <r_i_glide_eff_state_penalty>  (401) 
0

>  <ligand_id>  (401) 
112

>  <original_smiles>  (401) 
CC12C=CC(=O)C=C1CCC1C2CCC2(C)C(O)C12

>  <smiles>  (401) 
[H]OC1([H])C2([H])C3([H])C([H])([H])C([H])([H])C4=C([H])C(=O)C([H])=C([H])C4(C([H])([H])[H])C3([H])C([H])([H])C([H])([H])C12C([H])([H])[H]

$$$$
113:0:0
     RDKit          3D

 69 75  0  0  1  0  0  0  0  0999 V2000
    4.3919  -10.6049    2.8628 C   0  0  0  0  0  0  0  0  0  0  0  0
    4.4409  -10.2872    4.3472 C   0  0  0  0  0  0  0  0  0  0  0  0
    5.3699  -10.7147    5.0428 O   0  0  0  0  0  0  0  0  0  0  0  0
    3.3695   -9.3833    5.0073 C   0  0  2  0  0  0  0  0  0  0  0  0
    1.9305   -9.8007    4.6204 C   0  0  0  0  0  0  0  0  0  0  0  0
    1.3882   -8.7150    3.6598 C   0  0  0  0  0  0  0  0  0  0  0  0
    2.5663   -7.7678    3.4196 C   0  0  1  0  0  0  0  0  0  0  0  0
    2.3303   -6.3537    2.8298 C   0  0  2  0  0  0  0  0  0  0  0  0
    2.1534   -6.5238    1.2820 C   0  0  0  0  0  0  0  0  0  0  0  0
    2.3257   -5.2725    0.4057 C   0  0  0  0  0  0  0  0  0  0  0  0
    3.5649   -4.4974    0.8242 C   0  0  1  0  0  0  0  0  0  0  0  0
    3.9722   -3.2793   -0.0361 C   0  0  2  0  0  0  0  0  0  0  0  0
    4.0328   -3.2124   -1.5721 C   0  0  2  0  0  0  0  0  0  0  0  0
    5.5146   -3.4225   -1.8923 C   0  0  0  0  0  0  0  0  0  0  0  0
    6.0026   -2.3341   -0.9315 C   0  0  1  0  0  0  0  0  0  0  0  0
    5.1883   -1.1183   -1.4257 C   0  0  0  0  0  0  0  0  0  0  0  0
    3.8623   -1.7253   -1.9594 C   0  0  1  0  0  0  0  0  0  0  0  0
    3.6823   -1.4958   -3.4751 C   0  0  0  0  0  0  0  0  0  0  0  0
    3.6624   -0.3011   -3.8424 O   0  0  0  0  0  0  0  0  0  0  0  0
    3.6550   -2.4725   -4.2429 O   0  0  0  0  0  0  0  0  0  0  0  0
    5.4235   -2.9826    0.3387 C   0  0  1  0  0  0  0  0  0  0  0  0
    5.5047   -2.3979    1.7262 C   0  0  1  0  0  0  0  0  0  0  0  0
    4.3794   -1.6987    2.2122 O   0  0  0  0  0  0  0  0  0  0  0  0
    4.5694   -3.0350    2.7395 C   0  0  1  0  0  0  0  0  0  0  0  0
    3.4767   -4.0720    2.3322 C   0  0  1  0  0  0  0  0  0  0  0  0
    2.1454   -3.3427    2.6588 C   0  0  0  0  0  0  0  0  0  0  0  0
    3.5148   -5.3820    3.2024 C   0  0  2  0  0  0  0  0  0  0  0  0
    4.8492   -6.2073    3.2403 C   0  0  1  0  0  0  0  0  0  0  0  0
    6.0298   -5.4491    3.3653 O   0  0  0  0  0  0  0  0  0  0  0  0
    4.8409   -7.2477    4.3974 C   0  0  0  0  0  0  0  0  0  0  0  0
    3.4347   -7.8633    4.6844 C   0  0  2  0  0  0  0  0  0  0  0  0
    2.7559   -7.1368    5.9021 C   0  0  0  0  0  0  0  0  0  0  0  0
    3.4224  -10.9987    2.5661 H   0  0  0  0  0  0  0  0  0  0  0  0
    5.1352  -11.3576    2.5836 H   0  0  0  0  0  0  0  0  0  0  0  0
    4.5803   -9.7100    2.2557 H   0  0  0  0  0  0  0  0  0  0  0  0
    3.5009   -9.5278    6.0790 H   0  0  0  0  0  0  0  0  0  0  0  0
    1.8983  -10.7975    4.1844 H   0  0  0  0  0  0  0  0  0  0  0  0
    1.3006   -9.8618    5.5129 H   0  0  0  0  0  0  0  0  0  0  0  0
    1.0379   -9.1532    2.7222 H   0  0  0  0  0  0  0  0  0  0  0  0
    0.5456   -8.1967    4.1303 H   0  0  0  0  0  0  0  0  0  0  0  0
    3.1783   -8.2893    2.6609 H   0  0  0  0  0  0  0  0  0  0  0  0
    1.3911   -5.9549    3.2509 H   0  0  0  0  0  0  0  0  0  0  0  0
    2.8820   -7.2531    0.8967 H   0  0  0  0  0  0  0  0  0  0  0  0
    1.1862   -6.9537    1.0680 H   0  0  0  0  0  0  0  0  0  0  0  0
    2.4113   -5.5559   -0.6392 H   0  0  0  0  0  0  0  0  0  0  0  0
    1.4249   -4.6665    0.4259 H   0  0  0  0  0  0  0  0  0  0  0  0
    4.3726   -5.2206    0.7034 H   0  0  0  0  0  0  0  0  0  0  0  0
    3.3040   -2.4650    0.2651 H   0  0  0  0  0  0  0  0  0  0  0  0
    3.3454   -3.8730   -2.1046 H   0  0  0  0  0  0  0  0  0  0  0  0
    5.7986   -4.4363   -1.6239 H   0  0  0  0  0  0  0  0  0  0  0  0
    5.8019   -3.2408   -2.9266 H   0  0  0  0  0  0  0  0  0  0  0  0
    7.0826   -2.2056   -0.8968 H   0  0  0  0  0  0  0  0  0  0  0  0
    5.0264   -0.3944   -0.6349 H   0  0  0  0  0  0  0  0  0  0  0  0
    5.7385   -0.6155   -2.2354 H   0  0  0  0  0  0  0  0  0  0  0  0
    2.9968   -1.2743   -1.4480 H   0  0  0  0  0  0  0  0  0  0  0  0
    6.0033   -3.9063    0.4451 H   0  0  0  0  0  0  0  0  0  0  0  0
    6.4606   -2.0490    2.0772 H   0  0  0  0  0  0  0  0  0  0  0  0
    4.8611   -3.0419    3.7785 H   0  0  0  0  0  0  0  0  0  0  0  0
    2.1073   -3.0110    3.7003 H   0  0  0  0  0  0  0  0  0  0  0  0
    1.2726   -3.9644    2.5050 H   0  0  0  0  0  0  0  0  0  0  0  0
    1.9934   -2.4603    2.0306 H   0  0  0  0  0  0  0  0  0  0  0  0
    3.3782   -5.0100    4.2136 H   0  0  0  0  0  0  0  0  0  0  0  0
    4.9449   -6.7464    2.2998 H   0  0  0  0  0  0  0  0  0  0  0  0
    5.9972   -4.9338    4.1824 H   0  0  0  0  0  0  0  0  0  0  0  0
    5.6143   -8.0053    4.1786 H   0  0  0  0  0  0  0  0  0  0  0  0
    5.1821   -6.7638    5.3015 H   0  0  0  0  0  0  0  0  0  0  0  0
    2.5517   -6.0858    5.7499 H   0  0  0  0  0  0  0  0  0  0  0  0
    3.3684   -7.2193    6.8001 H   0  0  0  0  0  0  0  0  0  0  0  0
    1.7938   -7.5803    6.1476 H   0  0  0  0  0  0  0  0  0  0  0  0
  1  2  1  0
  1 33  1  0
  1 34  1  0
  1 35  1  0
  2  3  2  0
  2  4  1  0
  4 31  1  0
  4  5  1  0
  4 36  1  1
  5  6  1  0
  5 37  1  0
  5 38  1  0
  6  7  1  0
  6 39  1  0
  6 40  1  0
  7 31  1  0
  7  8  1  0
  7 41  1  6
  8 27  1  0
  8  9  1  0
  8 42  1  1
  9 10  1  0
  9 43  1  0
  9 44  1  0
 10 11  1  0
 10 45  1  0
 10 46  1  0
 11 25  1  0
 11 12  1  0
 11 47  1  1
 12 21  1  0
 12 13  1  0
 12 48  1  1
 13 17  1  0
 13 14  1  0
 13 49  1  6
 14 15  1  0
 14 50  1  0
 14 51  1  0
 15 16  1  0
 15 21  1  0
 15 52  1  1
 16 17  1  0
 16 53  1  0
 16 54  1  0
 17 18  1  0
 17 55  1  1
 18 19  2  0
 18 20  1  0
 21 22  1  0
 21 56  1  1
 22 24  1  0
 22 23  1  0
 22 57  1  1
 23 24  1  0
 24 25  1  0
 24 58  1  1
 25 26  1  6
 25 27  1  0
 26 59  1  0
 26 60  1  0
 26 61  1  0
 27 28  1  0
 27 62  1  1
 28 29  1  0
 28 30  1  0
 28 63  1  6
 29 64  1  0
 30 31  1  0
 30 65  1  0
 30 66  1  0
 31 32  1  1
 32 67  1  0
 32 68  1  0
 32 69  1  0
M  CHG  1  20  -1
M  END
>  <i_m_ct_stereo_status>  (402) 
1

>  <s_m_source_file>  (402) 
/var/tmp/pbs.5076255.sched01/tmp0q3ly_rt/135fqi89qhj.sdf

>  <i_m_source_file_index>  (402) 
33

>  <i_lp_mmshare_version>  (402) 
48012

>  <i_f3d_flags>  (402) 
0

>  <s_epik_input>  (402) 
W0NIM11DKD1PKVtDQEhdKFtDSDJdW0NIMl0xKVtDQEBdKFtDSDNdKShbQ0gyXVtDQEBIXShbQ0BIXTIzKVtPSF0pW0NAQEhdMVtDQEBIXTJbQ0gyXVtDSDJdW0NASF0oW0NAQF0zNFtDSDNdKVtDQEBIXTVbQ0BASF02W0NIMl1bQ0BIXShbQ0BIXTVbQ0BASF03W0NASF00TzcpW0NIMl1bQ0BIXTZDKD1PKVtPSF0=

>  <s_epik_cmdline>  (402) 
J2VwaWtfcHl0aG9uJywgJy1waHQnLCAnMi4wJywgJy1waCcsICc3LjAnLCAnLXRuJywgJzgnLCAnLW1hJywgJzIwMCcsICctaW1hZScsICc8aW5maWxlLm1hZT4nLCAnLW9tYWUnLCAnPG91dGZpbGUubWFlPic=

>  <r_lp_tautomer_probability>  (402) 
1

>  <r_epik_Ionization_Penalty>  (402) 
0.000848633

>  <r_epik_Ionization_Penalty_Charging>  (402) 
0.000847352

>  <r_epik_Ionization_Penalty_Neutral>  (402) 
1.28111e-06

>  <r_epik_State_Penalty>  (402) 
0.000546233

>  <r_epik_Charging_Adjusted_Penalty>  (402) 
0.00139358

>  <i_epik_Tot_Q>  (402) 
-1

>  <i_epik_Tot_abs_Q>  (402) 
1

>  <s_lp_Force_Field>  (402) 
OPLS3e

>  <r_lp_Energy>  (402) 
103.771

>  <b_lp_Chiralities_Consistent>  (402) 
1

>  <s_lp_Variant>  (402) 
113:0-1

>  <s_i_glide_gridfile>  (402) 
pfpi4k_grid

>  <i_i_glide_lignum>  (402) 
33

>  <i_i_glide_rotatable_bonds>  (402) 
3

>  <r_i_docking_score>  (402) 
-2.67302

>  <r_i_glide_ligand_efficiency>  (402) 
-0.0835319

>  <r_i_glide_ligand_efficiency_sa>  (402) 
-0.265197

>  <r_i_glide_ligand_efficiency_ln>  (402) 
-0.598562

>  <r_i_glide_gscore>  (402) 
-2.67302

>  <r_i_glide_lipo>  (402) 
-0.297894

>  <r_i_glide_hbond>  (402) 
-0.16

>  <r_i_glide_metal>  (402) 
-0

>  <r_i_glide_rewards>  (402) 
-0.64402

>  <r_i_glide_evdw>  (402) 
-27.9097

>  <r_i_glide_ecoul>  (402) 
-1.1446

>  <r_i_glide_erotb>  (402) 
0

>  <r_i_glide_esite>  (402) 
-0.00393566

>  <r_i_glide_emodel>  (402) 
-34.0973

>  <r_i_glide_energy>  (402) 
-29.0543

>  <r_i_glide_einternal>  (402) 
2.21681

>  <r_i_glide_intrahb_reward>  (402) 
-0

>  <i_i_glide_confnum>  (402) 
1

>  <i_i_glide_posenum>  (402) 
34

>  <r_i_glide_eff_state_penalty>  (402) 
0

>  <ligand_id>  (402) 
113

>  <original_smiles>  (402) 
CC(=O)C1CCC2C3CCC4C5C6CC(CC6C(=O)O)C5C5OC5C4(C)C3C(O)CC12C

>  <smiles>  (402) 
[H]OC1([H])C([H])([H])C2(C([H])([H])[H])C([H])(C(=O)C([H])([H])[H])C([H])([H])C([H])([H])C2([H])C2([H])C([H])([H])C([H])([H])C3([H])C4([H])C5([H])C([H])([H])C([H])(C([H])([H])C5([H])C(=O)[O-])C4([H])C4([H])OC4([H])C3(C([H])([H])[H])C12[H]

$$$$
113:0:1
     RDKit          3D

 69 75  0  0  1  0  0  0  0  0999 V2000
    4.3611  -12.3185    5.6500 C   0  0  0  0  0  0  0  0  0  0  0  0
    3.4941  -11.7614    4.5268 C   0  0  0  0  0  0  0  0  0  0  0  0
    3.8082  -11.9186    3.3523 O   0  0  0  0  0  0  0  0  0  0  0  0
    2.2372  -10.9705    4.9442 C   0  0  2  0  0  0  0  0  0  0  0  0
    1.0308  -11.3133    4.0323 C   0  0  0  0  0  0  0  0  0  0  0  0
    0.7681  -10.0852    3.1311 C   0  0  0  0  0  0  0  0  0  0  0  0
    1.9461   -9.1460    3.4132 C   0  0  1  0  0  0  0  0  0  0  0  0
    1.8311   -7.6445    3.0049 C   0  0  2  0  0  0  0  0  0  0  0  0
    2.1099   -7.5268    1.4725 C   0  0  0  0  0  0  0  0  0  0  0  0
    2.4712   -6.1335    0.9108 C   0  0  0  0  0  0  0  0  0  0  0  0
    3.4997   -5.4649    1.8188 C   0  0  1  0  0  0  0  0  0  0  0  0
    4.1057   -4.1395    1.3335 C   0  0  2  0  0  0  0  0  0  0  0  0
    4.6528   -3.8422   -0.0880 C   0  0  2  0  0  0  0  0  0  0  0  0
    6.1716   -4.0050    0.0495 C   0  0  0  0  0  0  0  0  0  0  0  0
    6.2741   -3.0917    1.2753 C   0  0  1  0  0  0  0  0  0  0  0  0
    5.6250   -1.7924    0.7556 C   0  0  0  0  0  0  0  0  0  0  0  0
    4.5478   -2.2946   -0.2588 C   0  0  1  0  0  0  0  0  0  0  0  0
    4.7541   -1.8164   -1.7152 C   0  0  0  0  0  0  0  0  0  0  0  0
    5.4163   -0.7761   -1.9018 O   0  0  0  0  0  0  0  0  0  0  0  0
    4.2295   -2.4958   -2.6289 O   0  0  0  0  0  0  0  0  0  0  0  0
    5.3576   -3.9157    2.1936 C   0  0  1  0  0  0  0  0  0  0  0  0
    4.9747   -3.5539    3.6041 C   0  0  1  0  0  0  0  0  0  0  0  0
    3.7196   -2.9314    3.8355 O   0  0  0  0  0  0  0  0  0  0  0  0
    3.7955   -4.3451    4.1605 C   0  0  1  0  0  0  0  0  0  0  0  0
    2.9286   -5.2914    3.2741 C   0  0  1  0  0  0  0  0  0  0  0  0
    1.5189   -4.6196    3.2678 C   0  0  0  0  0  0  0  0  0  0  0  0
    2.7722   -6.7323    3.8793 C   0  0  2  0  0  0  0  0  0  0  0  0
    4.0519   -7.5566    4.2184 C   0  0  1  0  0  0  0  0  0  0  0  0
    5.0801   -6.8123    4.8291 O   0  0  0  0  0  0  0  0  0  0  0  0
    3.7299   -8.7621    5.1491 C   0  0  0  0  0  0  0  0  0  0  0  0
    2.3330   -9.4162    4.8763 C   0  0  2  0  0  0  0  0  0  0  0  0
    1.2763   -8.8915    5.8979 C   0  0  0  0  0  0  0  0  0  0  0  0
    4.6798  -11.5231    6.3209 H   0  0  0  0  0  0  0  0  0  0  0  0
    5.2461  -12.7960    5.2331 H   0  0  0  0  0  0  0  0  0  0  0  0
    3.8129  -13.0587    6.2320 H   0  0  0  0  0  0  0  0  0  0  0  0
    2.0234  -11.2674    5.9684 H   0  0  0  0  0  0  0  0  0  0  0  0
    1.1948  -12.2099    3.4314 H   0  0  0  0  0  0  0  0  0  0  0  0
    0.1579  -11.5184    4.6509 H   0  0  0  0  0  0  0  0  0  0  0  0
    0.7092  -10.3588    2.0765 H   0  0  0  0  0  0  0  0  0  0  0  0
   -0.1798   -9.6169    3.4081 H   0  0  0  0  0  0  0  0  0  0  0  0
    2.7749   -9.5585    2.8344 H   0  0  0  0  0  0  0  0  0  0  0  0
    0.8038   -7.3373    3.1868 H   0  0  0  0  0  0  0  0  0  0  0  0
    2.9419   -8.1811    1.2075 H   0  0  0  0  0  0  0  0  0  0  0  0
    1.2565   -7.9135    0.9155 H   0  0  0  0  0  0  0  0  0  0  0  0
    2.9055   -6.2543   -0.0806 H   0  0  0  0  0  0  0  0  0  0  0  0
    1.5940   -5.5094    0.7616 H   0  0  0  0  0  0  0  0  0  0  0  0
    4.3231   -6.1751    1.8471 H   0  0  0  0  0  0  0  0  0  0  0  0
    3.3516   -3.3791    1.5294 H   0  0  0  0  0  0  0  0  0  0  0  0
    4.1983   -4.4235   -0.8902 H   0  0  0  0  0  0  0  0  0  0  0  0
    6.4751   -5.0362    0.2362 H   0  0  0  0  0  0  0  0  0  0  0  0
    6.7372   -3.6420   -0.8073 H   0  0  0  0  0  0  0  0  0  0  0  0
    7.2851   -2.9813    1.6577 H   0  0  0  0  0  0  0  0  0  0  0  0
    5.1826   -1.2118    1.5647 H   0  0  0  0  0  0  0  0  0  0  0  0
    6.3902   -1.1694    0.2957 H   0  0  0  0  0  0  0  0  0  0  0  0
    3.5611   -1.9215    0.0168 H   0  0  0  0  0  0  0  0  0  0  0  0
    5.9088   -4.8509    2.3315 H   0  0  0  0  0  0  0  0  0  0  0  0
    5.7650   -3.2765    4.2954 H   0  0  0  0  0  0  0  0  0  0  0  0
    3.7552   -4.5301    5.2314 H   0  0  0  0  0  0  0  0  0  0  0  0
    1.1499   -4.4600    4.2823 H   0  0  0  0  0  0  0  0  0  0  0  0
    0.7600   -5.2060    2.7533 H   0  0  0  0  0  0  0  0  0  0  0  0
    1.5355   -3.6448    2.7757 H   0  0  0  0  0  0  0  0  0  0  0  0
    2.2975   -6.5378    4.8360 H   0  0  0  0  0  0  0  0  0  0  0  0
    4.4698   -7.9523    3.2907 H   0  0  0  0  0  0  0  0  0  0  0  0
    5.4377   -6.2285    4.1751 H   0  0  0  0  0  0  0  0  0  0  0  0
    4.5560   -9.4664    5.0440 H   0  0  0  0  0  0  0  0  0  0  0  0
    3.7726   -8.4496    6.1926 H   0  0  0  0  0  0  0  0  0  0  0  0
    1.0871   -7.8260    5.8618 H   0  0  0  0  0  0  0  0  0  0  0  0
    1.5791   -9.1207    6.9185 H   0  0  0  0  0  0  0  0  0  0  0  0
    0.3040   -9.3604    5.7649 H   0  0  0  0  0  0  0  0  0  0  0  0
  1  2  1  0
  1 33  1  0
  1 34  1  0
  1 35  1  0
  2  3  2  0
  2  4  1  0
  4 31  1  0
  4  5  1  0
  4 36  1  1
  5  6  1  0
  5 37  1  0
  5 38  1  0
  6  7  1  0
  6 39  1  0
  6 40  1  0
  7 31  1  0
  7  8  1  0
  7 41  1  6
  8 27  1  0
  8  9  1  0
  8 42  1  6
  9 10  1  0
  9 43  1  0
  9 44  1  0
 10 11  1  0
 10 45  1  0
 10 46  1  0
 11 25  1  0
 11 12  1  0
 11 47  1  1
 12 21  1  0
 12 13  1  0
 12 48  1  1
 13 17  1  0
 13 14  1  0
 13 49  1  6
 14 15  1  0
 14 50  1  0
 14 51  1  0
 15 16  1  0
 15 21  1  0
 15 52  1  1
 16 17  1  0
 16 53  1  0
 16 54  1  0
 17 18  1  0
 17 55  1  1
 18 19  2  0
 18 20  1  0
 21 22  1  0
 21 56  1  1
 22 24  1  0
 22 23  1  0
 22 57  1  1
 23 24  1  0
 24 25  1  0
 24 58  1  1
 25 26  1  6
 25 27  1  0
 26 59  1  0
 26 60  1  0
 26 61  1  0
 27 28  1  0
 27 62  1  1
 28 29  1  0
 28 30  1  0
 28 63  1  6
 29 64  1  0
 30 31  1  0
 30 65  1  0
 30 66  1  0
 31 32  1  1
 32 67  1  0
 32 68  1  0
 32 69  1  0
M  CHG  1  20  -1
M  END
>  <i_m_ct_stereo_status>  (403) 
1

>  <s_m_source_file>  (403) 
/var/tmp/pbs.5076255.sched01/tmp0q3ly_rt/135fqi89qhj.sdf

>  <i_m_source_file_index>  (403) 
33

>  <i_lp_mmshare_version>  (403) 
48012

>  <i_f3d_flags>  (403) 
0

>  <s_epik_input>  (403) 
W0NIM11DKD1PKVtDQEhdKFtDSDJdW0NIMl0xKVtDQEBdKFtDSDNdKShbQ0gyXVtDQEBIXShbQ0BIXTIzKVtPSF0pW0NAQEhdMVtDQEBIXTJbQ0gyXVtDSDJdW0NASF0oW0NAQF0zNFtDSDNdKVtDQEBIXTVbQ0BASF02W0NIMl1bQ0BIXShbQ0BIXTVbQ0BASF03W0NASF00TzcpW0NIMl1bQ0BIXTZDKD1PKVtPSF0=

>  <s_epik_cmdline>  (403) 
J2VwaWtfcHl0aG9uJywgJy1waHQnLCAnMi4wJywgJy1waCcsICc3LjAnLCAnLXRuJywgJzgnLCAnLW1hJywgJzIwMCcsICctaW1hZScsICc8aW5maWxlLm1hZT4nLCAnLW9tYWUnLCAnPG91dGZpbGUubWFlPic=

>  <r_lp_tautomer_probability>  (403) 
1

>  <r_epik_Ionization_Penalty>  (403) 
0.000848633

>  <r_epik_Ionization_Penalty_Charging>  (403) 
0.000847352

>  <r_epik_Ionization_Penalty_Neutral>  (403) 
1.28111e-06

>  <r_epik_State_Penalty>  (403) 
0.000546233

>  <r_epik_Charging_Adjusted_Penalty>  (403) 
0.00139358

>  <i_epik_Tot_Q>  (403) 
-1

>  <i_epik_Tot_abs_Q>  (403) 
1

>  <s_lp_Force_Field>  (403) 
OPLS3e

>  <r_lp_Energy>  (403) 
103.771

>  <b_lp_Chiralities_Consistent>  (403) 
1

>  <s_lp_Variant>  (403) 
113:0-1

>  <s_i_glide_gridfile>  (403) 
pfpi4k_grid

>  <i_i_glide_lignum>  (403) 
33

>  <i_i_glide_rotatable_bonds>  (403) 
3

>  <r_i_docking_score>  (403) 
-2.40647

>  <r_i_glide_ligand_efficiency>  (403) 
-0.0752021

>  <r_i_glide_ligand_efficiency_sa>  (403) 
-0.238752

>  <r_i_glide_ligand_efficiency_ln>  (403) 
-0.538874

>  <r_i_glide_gscore>  (403) 
-2.40647

>  <r_i_glide_lipo>  (403) 
-0.585281

>  <r_i_glide_hbond>  (403) 
-0.00968264

>  <r_i_glide_metal>  (403) 
-0

>  <r_i_glide_rewards>  (403) 
-0.39832

>  <r_i_glide_evdw>  (403) 
-28.8241

>  <r_i_glide_ecoul>  (403) 
0.578159

>  <r_i_glide_erotb>  (403) 
0

>  <r_i_glide_esite>  (403) 
-0.0587042

>  <r_i_glide_emodel>  (403) 
-33.6995

>  <r_i_glide_energy>  (403) 
-28.2459

>  <r_i_glide_einternal>  (403) 
0.591263

>  <r_i_glide_intrahb_reward>  (403) 
-0

>  <i_i_glide_confnum>  (403) 
1

>  <i_i_glide_posenum>  (403) 
22

>  <r_i_glide_eff_state_penalty>  (403) 
0

>  <ligand_id>  (403) 
113

>  <original_smiles>  (403) 
CC(=O)C1CCC2C3CCC4C5C6CC(CC6C(=O)O)C5C5OC5C4(C)C3C(O)CC12C

>  <smiles>  (403) 
[H]OC1([H])C([H])([H])C2(C([H])([H])[H])C([H])(C(=O)C([H])([H])[H])C([H])([H])C([H])([H])C2([H])C2([H])C([H])([H])C([H])([H])C3([H])C4([H])C5([H])C([H])([H])C([H])(C([H])([H])C5([H])C(=O)[O-])C4([H])C4([H])OC4([H])C3(C([H])([H])[H])C12[H]

$$$$
113:0:2
     RDKit          3D

 69 75  0  0  1  0  0  0  0  0999 V2000
    4.1999  -12.7632    5.3752 C   0  0  0  0  0  0  0  0  0  0  0  0
    3.8126  -11.5238    4.5826 C   0  0  0  0  0  0  0  0  0  0  0  0
    4.4817  -11.1772    3.6142 O   0  0  0  0  0  0  0  0  0  0  0  0
    2.5589  -10.7470    5.0546 C   0  0  2  0  0  0  0  0  0  0  0  0
    1.3176  -11.1610    4.2196 C   0  0  0  0  0  0  0  0  0  0  0  0
    0.9633   -9.9748    3.2910 C   0  0  0  0  0  0  0  0  0  0  0  0
    2.1152   -8.9822    3.4823 C   0  0  1  0  0  0  0  0  0  0  0  0
    1.9268   -7.5026    3.0297 C   0  0  2  0  0  0  0  0  0  0  0  0
    2.1266   -7.4325    1.4816 C   0  0  0  0  0  0  0  0  0  0  0  0
    2.4114   -6.0479    0.8609 C   0  0  0  0  0  0  0  0  0  0  0  0
    3.4612   -5.3110    1.6885 C   0  0  1  0  0  0  0  0  0  0  0  0
    3.9944   -3.9824    1.1288 C   0  0  2  0  0  0  0  0  0  0  0  0
    4.4622   -3.7185   -0.3291 C   0  0  2  0  0  0  0  0  0  0  0  0
    5.9914   -3.8238   -0.2611 C   0  0  0  0  0  0  0  0  0  0  0  0
    6.1224   -2.8608    0.9268 C   0  0  1  0  0  0  0  0  0  0  0  0
    5.3997   -1.6071    0.3907 C   0  0  0  0  0  0  0  0  0  0  0  0
    4.2973   -2.1835   -0.5550 C   0  0  1  0  0  0  0  0  0  0  0  0
    4.4254   -1.7565   -2.0351 C   0  0  0  0  0  0  0  0  0  0  0  0
    3.9147   -2.4959   -2.9057 O   0  0  0  0  0  0  0  0  0  0  0  0
    5.0215   -0.6902   -2.2830 O   0  0  0  0  0  0  0  0  0  0  0  0
    5.2797   -3.6853    1.9155 C   0  0  1  0  0  0  0  0  0  0  0  0
    4.9538   -3.2930    3.3327 C   0  0  1  0  0  0  0  0  0  0  0  0
    3.6921   -2.7073    3.6074 O   0  0  0  0  0  0  0  0  0  0  0  0
    3.8360   -4.1051    3.9720 C   0  0  1  0  0  0  0  0  0  0  0  0
    2.9573   -5.1088    3.1640 C   0  0  1  0  0  0  0  0  0  0  0  0
    1.5257   -4.4852    3.2072 C   0  0  0  0  0  0  0  0  0  0  0  0
    2.8804   -6.5305    3.8240 C   0  0  2  0  0  0  0  0  0  0  0  0
    4.2061   -7.2969    4.1323 C   0  0  1  0  0  0  0  0  0  0  0  0
    5.2323   -6.5044    4.6878 O   0  0  0  0  0  0  0  0  0  0  0  0
    3.9672   -8.4733    5.1217 C   0  0  0  0  0  0  0  0  0  0  0  0
    2.5883   -9.1908    4.9318 C   0  0  2  0  0  0  0  0  0  0  0  0
    1.5620   -8.6675    5.9856 C   0  0  0  0  0  0  0  0  0  0  0  0
    4.3243  -12.5265    6.4322 H   0  0  0  0  0  0  0  0  0  0  0  0
    5.1345  -13.1728    4.9947 H   0  0  0  0  0  0  0  0  0  0  0  0
    3.4220  -13.5205    5.2792 H   0  0  0  0  0  0  0  0  0  0  0  0
    2.3968  -11.0305    6.0928 H   0  0  0  0  0  0  0  0  0  0  0  0
    1.4942  -12.0692    3.6395 H   0  0  0  0  0  0  0  0  0  0  0  0
    0.4723  -11.3770    4.8781 H   0  0  0  0  0  0  0  0  0  0  0  0
    0.8632  -10.2896    2.2488 H   0  0  0  0  0  0  0  0  0  0  0  0
    0.0109   -9.5330    3.5969 H   0  0  0  0  0  0  0  0  0  0  0  0
    2.9201   -9.3813    2.8650 H   0  0  0  0  0  0  0  0  0  0  0  0
    0.8991   -7.2224    3.2520 H   0  0  0  0  0  0  0  0  0  0  0  0
    2.9682   -8.0647    1.1940 H   0  0  0  0  0  0  0  0  0  0  0  0
    1.2627   -7.8677    0.9783 H   0  0  0  0  0  0  0  0  0  0  0  0
    2.8008   -6.1886   -0.1465 H   0  0  0  0  0  0  0  0  0  0  0  0
    1.5042   -5.4640    0.7309 H   0  0  0  0  0  0  0  0  0  0  0  0
    4.3096   -5.9920    1.7015 H   0  0  0  0  0  0  0  0  0  0  0  0
    3.2240   -3.2410    1.3343 H   0  0  0  0  0  0  0  0  0  0  0  0
    3.9857   -4.3436   -1.0848 H   0  0  0  0  0  0  0  0  0  0  0  0
    6.3347   -4.8384   -0.0542 H   0  0  0  0  0  0  0  0  0  0  0  0
    6.4983   -3.4753   -1.1601 H   0  0  0  0  0  0  0  0  0  0  0  0
    7.1437   -2.6905    1.2613 H   0  0  0  0  0  0  0  0  0  0  0  0
    4.9715   -1.0167    1.2004 H   0  0  0  0  0  0  0  0  0  0  0  0
    6.1146   -0.9712   -0.1252 H   0  0  0  0  0  0  0  0  0  0  0  0
    3.3111   -1.8316   -0.2524 H   0  0  0  0  0  0  0  0  0  0  0  0
    5.8663   -4.5984    2.0593 H   0  0  0  0  0  0  0  0  0  0  0  0
    5.7688   -2.9640    3.9710 H   0  0  0  0  0  0  0  0  0  0  0  0
    3.8563   -4.2564    5.0490 H   0  0  0  0  0  0  0  0  0  0  0  0
    1.1998   -4.3024    4.2321 H   0  0  0  0  0  0  0  0  0  0  0  0
    0.7635   -5.1145    2.7516 H   0  0  0  0  0  0  0  0  0  0  0  0
    1.4815   -3.5294    2.6810 H   0  0  0  0  0  0  0  0  0  0  0  0
    2.4471   -6.3174    4.7950 H   0  0  0  0  0  0  0  0  0  0  0  0
    4.5934   -7.7064    3.1970 H   0  0  0  0  0  0  0  0  0  0  0  0
    6.0190   -7.0345    4.7421 H   0  0  0  0  0  0  0  0  0  0  0  0
    4.8207   -9.1448    5.0229 H   0  0  0  0  0  0  0  0  0  0  0  0
    4.0367   -8.1157    6.1497 H   0  0  0  0  0  0  0  0  0  0  0  0
    1.3335   -7.6106    5.9224 H   0  0  0  0  0  0  0  0  0  0  0  0
    1.9227   -8.8464    6.9971 H   0  0  0  0  0  0  0  0  0  0  0  0
    0.6015   -9.1728    5.9180 H   0  0  0  0  0  0  0  0  0  0  0  0
  1  2  1  0
  1 33  1  0
  1 34  1  0
  1 35  1  0
  2  3  2  0
  2  4  1  0
  4 31  1  0
  4  5  1  0
  4 36  1  1
  5  6  1  0
  5 37  1  0
  5 38  1  0
  6  7  1  0
  6 39  1  0
  6 40  1  0
  7 31  1  0
  7  8  1  0
  7 41  1  6
  8 27  1  0
  8  9  1  0
  8 42  1  6
  9 10  1  0
  9 43  1  0
  9 44  1  0
 10 11  1  0
 10 45  1  0
 10 46  1  0
 11 25  1  0
 11 12  1  0
 11 47  1  1
 12 21  1  0
 12 13  1  0
 12 48  1  1
 13 17  1  0
 13 14  1  0
 13 49  1  6
 14 15  1  0
 14 50  1  0
 14 51  1  0
 15 16  1  0
 15 21  1  0
 15 52  1  1
 16 17  1  0
 16 53  1  0
 16 54  1  0
 17 18  1  0
 17 55  1  1
 18 19  2  0
 18 20  1  0
 21 22  1  0
 21 56  1  1
 22 24  1  0
 22 23  1  0
 22 57  1  1
 23 24  1  0
 24 25  1  0
 24 58  1  1
 25 26  1  6
 25 27  1  0
 26 59  1  0
 26 60  1  0
 26 61  1  0
 27 28  1  0
 27 62  1  1
 28 29  1  0
 28 30  1  0
 28 63  1  6
 29 64  1  0
 30 31  1  0
 30 65  1  0
 30 66  1  0
 31 32  1  1
 32 67  1  0
 32 68  1  0
 32 69  1  0
M  CHG  1  20  -1
M  END
>  <i_m_ct_stereo_status>  (404) 
1

>  <s_m_source_file>  (404) 
/var/tmp/pbs.5076255.sched01/tmp0q3ly_rt/135fqi89qhj.sdf

>  <i_m_source_file_index>  (404) 
33

>  <i_lp_mmshare_version>  (404) 
48012

>  <i_f3d_flags>  (404) 
0

>  <s_epik_input>  (404) 
W0NIM11DKD1PKVtDQEhdKFtDSDJdW0NIMl0xKVtDQEBdKFtDSDNdKShbQ0gyXVtDQEBIXShbQ0BIXTIzKVtPSF0pW0NAQEhdMVtDQEBIXTJbQ0gyXVtDSDJdW0NASF0oW0NAQF0zNFtDSDNdKVtDQEBIXTVbQ0BASF02W0NIMl1bQ0BIXShbQ0BIXTVbQ0BASF03W0NASF00TzcpW0NIMl1bQ0BIXTZDKD1PKVtPSF0=

>  <s_epik_cmdline>  (404) 
J2VwaWtfcHl0aG9uJywgJy1waHQnLCAnMi4wJywgJy1waCcsICc3LjAnLCAnLXRuJywgJzgnLCAnLW1hJywgJzIwMCcsICctaW1hZScsICc8aW5maWxlLm1hZT4nLCAnLW9tYWUnLCAnPG91dGZpbGUubWFlPic=

>  <r_lp_tautomer_probability>  (404) 
1

>  <r_epik_Ionization_Penalty>  (404) 
0.000848633

>  <r_epik_Ionization_Penalty_Charging>  (404) 
0.000847352

>  <r_epik_Ionization_Penalty_Neutral>  (404) 
1.28111e-06

>  <r_epik_State_Penalty>  (404) 
0.000546233

>  <r_epik_Charging_Adjusted_Penalty>  (404) 
0.00139358

>  <i_epik_Tot_Q>  (404) 
-1

>  <i_epik_Tot_abs_Q>  (404) 
1

>  <s_lp_Force_Field>  (404) 
OPLS3e

>  <r_lp_Energy>  (404) 
103.771

>  <b_lp_Chiralities_Consistent>  (404) 
1

>  <s_lp_Variant>  (404) 
113:0-1

>  <s_i_glide_gridfile>  (404) 
pfpi4k_grid

>  <i_i_glide_lignum>  (404) 
33

>  <i_i_glide_rotatable_bonds>  (404) 
3

>  <r_i_docking_score>  (404) 
-2.37241

>  <r_i_glide_ligand_efficiency>  (404) 
-0.0741379

>  <r_i_glide_ligand_efficiency_sa>  (404) 
-0.235373

>  <r_i_glide_ligand_efficiency_ln>  (404) 
-0.531248

>  <r_i_glide_gscore>  (404) 
-2.37241

>  <r_i_glide_lipo>  (404) 
-0.483006

>  <r_i_glide_hbond>  (404) 
0

>  <r_i_glide_metal>  (404) 
-0

>  <r_i_glide_rewards>  (404) 
-0.39832

>  <r_i_glide_evdw>  (404) 
-29.4357

>  <r_i_glide_ecoul>  (404) 
0.183835

>  <r_i_glide_erotb>  (404) 
0

>  <r_i_glide_esite>  (404) 
-0.0468773

>  <r_i_glide_emodel>  (404) 
-34.4714

>  <r_i_glide_energy>  (404) 
-29.2519

>  <r_i_glide_einternal>  (404) 
0.986629

>  <r_i_glide_intrahb_reward>  (404) 
-0

>  <i_i_glide_confnum>  (404) 
1

>  <i_i_glide_posenum>  (404) 
29

>  <r_i_glide_eff_state_penalty>  (404) 
0

>  <ligand_id>  (404) 
113

>  <original_smiles>  (404) 
CC(=O)C1CCC2C3CCC4C5C6CC(CC6C(=O)O)C5C5OC5C4(C)C3C(O)CC12C

>  <smiles>  (404) 
[H]OC1([H])C([H])([H])C2(C([H])([H])[H])C([H])(C(=O)C([H])([H])[H])C([H])([H])C([H])([H])C2([H])C2([H])C([H])([H])C([H])([H])C3([H])C4([H])C5([H])C([H])([H])C([H])(C([H])([H])C5([H])C(=O)[O-])C4([H])C4([H])OC4([H])C3(C([H])([H])[H])C12[H]

$$$$
114:0:0
     RDKit          3D

 54 58  0  0  1  0  0  0  0  0999 V2000
    2.9887    0.2052    3.4891 C   0  0  0  0  0  0  0  0  0  0  0  0
    2.9623   -0.5321    2.1285 C   0  0  2  0  0  0  0  0  0  0  0  0
    1.6132   -0.4757    1.6575 O   0  0  0  0  0  0  0  0  0  0  0  0
    3.4158   -2.0083    2.2612 C   0  0  2  0  0  0  0  0  0  0  0  0
    4.8389   -2.1261    2.8911 C   0  0  0  0  0  0  0  0  0  0  0  0
    5.6305   -2.8890    1.8125 C   0  0  1  0  0  0  0  0  0  0  0  0
    5.5954   -4.4308    1.9720 C   0  0  0  0  0  0  0  0  0  0  0  0
    4.1383   -5.0435    2.0166 C   0  0  1  0  0  0  0  0  0  0  0  0
    4.2084   -6.4037    1.6171 O   0  0  0  0  0  0  0  0  0  0  0  0
    3.5425   -4.9540    3.3948 C   0  0  0  0  0  0  0  0  0  0  0  0
    4.2745   -4.8686    4.5048 N   0  0  0  0  0  0  0  0  0  0  0  0
    3.5002   -4.6586    5.6553 C   0  0  0  0  0  0  0  0  0  0  0  0
    2.1630   -4.6821    5.4258 C   0  0  0  0  0  0  0  0  0  0  0  0
    1.0798   -4.5165    6.4018 C   0  0  0  0  0  0  0  0  0  0  0  0
   -0.1886   -4.7220    5.9848 N   0  0  0  0  0  0  0  0  0  0  0  0
   -1.1549   -4.6448    6.9044 C   0  0  0  0  0  0  0  0  0  0  0  0
   -0.8786   -4.3481    8.2538 C   0  0  0  0  0  0  0  0  0  0  0  0
    0.4833   -4.1474    8.5803 C   0  0  0  0  0  0  0  0  0  0  0  0
    1.4434   -4.2297    7.6530 N   0  0  0  0  0  0  0  0  0  0  0  0
    1.8101   -4.9558    3.7418 S   0  0  0  0  0  0  0  0  0  0  0  0
    3.2544   -4.2812    0.9650 C   0  0  0  0  0  0  0  0  0  0  0  0
    3.5255   -2.7432    0.8993 C   0  0  2  0  0  0  0  0  0  0  0  0
    4.9326   -2.5780    0.5591 N   0  0  0  0  0  0  0  0  0  0  0  0
    5.4963   -2.1353   -0.5983 C   0  0  0  0  0  0  0  0  0  0  0  0
    6.6918   -1.8945   -0.7215 O   0  0  0  0  0  0  0  0  0  0  0  0
    4.5752   -1.8913   -1.7743 C   0  0  0  0  0  0  0  0  0  0  0  0
    3.7208   -2.8972   -2.2582 C   0  0  0  0  0  0  0  0  0  0  0  0
    2.8615   -2.6081   -3.3281 C   0  0  0  0  0  0  0  0  0  0  0  0
    2.9264   -1.3300   -3.9220 C   0  0  0  0  0  0  0  0  0  0  0  0
    3.8149   -0.3884   -3.3802 C   0  0  0  0  0  0  0  0  0  0  0  0
    4.6198   -0.6532   -2.3372 N   0  0  0  0  0  0  0  0  0  0  0  0
    3.9929    0.2732    3.9165 H   0  0  0  0  0  0  0  0  0  0  0  0
    2.3624   -0.2989    4.2323 H   0  0  0  0  0  0  0  0  0  0  0  0
    2.6212    1.2313    3.3804 H   0  0  0  0  0  0  0  0  0  0  0  0
    3.5991    0.0006    1.4141 H   0  0  0  0  0  0  0  0  0  0  0  0
    1.5287   -0.6546    0.7376 H   0  0  0  0  0  0  0  0  0  0  0  0
    2.6695   -2.4936    2.8835 H   0  0  0  0  0  0  0  0  0  0  0  0
    5.3130   -1.1272    2.9716 H   0  0  0  0  0  0  0  0  0  0  0  0
    4.8180   -2.6385    3.8490 H   0  0  0  0  0  0  0  0  0  0  0  0
    6.6536   -2.5139    1.7957 H   0  0  0  0  0  0  0  0  0  0  0  0
    6.1307   -4.8321    1.1160 H   0  0  0  0  0  0  0  0  0  0  0  0
    6.1977   -4.7156    2.8355 H   0  0  0  0  0  0  0  0  0  0  0  0
    4.5732   -6.4432    0.7469 H   0  0  0  0  0  0  0  0  0  0  0  0
    3.9938   -4.4483    6.5799 H   0  0  0  0  0  0  0  0  0  0  0  0
   -2.1623   -4.8357    6.5711 H   0  0  0  0  0  0  0  0  0  0  0  0
   -1.6489   -4.2925    8.9971 H   0  0  0  0  0  0  0  0  0  0  0  0
    0.7995   -3.9225    9.5787 H   0  0  0  0  0  0  0  0  0  0  0  0
    3.5041   -4.7124    0.0003 H   0  0  0  0  0  0  0  0  0  0  0  0
    2.1827   -4.4636    1.0882 H   0  0  0  0  0  0  0  0  0  0  0  0
    2.8477   -2.2814    0.1717 H   0  0  0  0  0  0  0  0  0  0  0  0
    3.7005   -3.8861   -1.8244 H   0  0  0  0  0  0  0  0  0  0  0  0
    2.1610   -3.3456   -3.6726 H   0  0  0  0  0  0  0  0  0  0  0  0
    2.2793   -1.0678   -4.7308 H   0  0  0  0  0  0  0  0  0  0  0  0
    3.8892    0.6032   -3.8043 H   0  0  0  0  0  0  0  0  0  0  0  0
  1  2  1  0
  1 32  1  0
  1 33  1  0
  1 34  1  0
  2  3  1  0
  2  4  1  0
  2 35  1  6
  3 36  1  0
  4 22  1  0
  4  5  1  0
  4 37  1  1
  5  6  1  0
  5 38  1  0
  5 39  1  0
  6 23  1  0
  6  7  1  0
  6 40  1  6
  7  8  1  0
  7 41  1  0
  7 42  1  0
  8  9  1  6
  8 10  1  0
  8 21  1  0
  9 43  1  0
 10 20  1  0
 10 11  2  0
 11 12  1  0
 12 13  2  0
 12 44  1  0
 13 14  1  0
 13 20  1  0
 14 19  1  0
 14 15  2  0
 15 16  1  0
 16 17  2  0
 16 45  1  0
 17 18  1  0
 17 46  1  0
 18 19  2  0
 18 47  1  0
 21 22  1  0
 21 48  1  0
 21 49  1  0
 22 23  1  0
 22 50  1  6
 23 24  1  0
 24 25  2  0
 24 26  1  0
 26 31  1  0
 26 27  2  0
 27 28  1  0
 27 51  1  0
 28 29  2  0
 28 52  1  0
 29 30  1  0
 29 53  1  0
 30 31  2  0
 30 54  1  0
M  END
>  <i_m_ct_stereo_status>  (405) 
1

>  <s_m_source_file>  (405) 
/var/tmp/pbs.5076255.sched01/tmp0q3ly_rt/135fqi89qhj.sdf

>  <i_m_source_file_index>  (405) 
34

>  <i_lp_mmshare_version>  (405) 
48012

>  <i_f3d_flags>  (405) 
0

>  <s_epik_input>  (405) 
bjFbY0hdW2NIXVtjSF1bY0hdYzFDKD1PKU4yW0NASF0oW0NASF0oW0NASF0oW0NIM10pW09IXSlbQ0gyXVtDQEhdMjMpW0NIMl1bQ0BdKFtDSDJdMykoW09IXSljNG5bY0hdYyhzNCktYzVuW2NIXVtjSF1bY0hdbjU=

>  <s_epik_cmdline>  (405) 
J2VwaWtfcHl0aG9uJywgJy1waHQnLCAnMi4wJywgJy1waCcsICc3LjAnLCAnLXRuJywgJzgnLCAnLW1hJywgJzIwMCcsICctaW1hZScsICc8aW5maWxlLm1hZT4nLCAnLW9tYWUnLCAnPG91dGZpbGUubWFlPic=

>  <r_lp_tautomer_probability>  (405) 
1

>  <r_epik_Ionization_Penalty>  (405) 
1.73882e-05

>  <r_epik_Ionization_Penalty_Charging>  (405) 
0

>  <r_epik_Ionization_Penalty_Neutral>  (405) 
1.73882e-05

>  <r_epik_State_Penalty>  (405) 
-0

>  <r_epik_Charging_Adjusted_Penalty>  (405) 
0

>  <i_epik_Tot_Q>  (405) 
0

>  <i_epik_Tot_abs_Q>  (405) 
0

>  <s_lp_Force_Field>  (405) 
OPLS3e

>  <r_lp_Energy>  (405) 
43.3639

>  <b_lp_Chiralities_Consistent>  (405) 
1

>  <s_lp_Variant>  (405) 
114:0-1

>  <s_i_glide_gridfile>  (405) 
pfpi4k_grid

>  <i_i_glide_lignum>  (405) 
34

>  <i_i_glide_rotatable_bonds>  (405) 
7

>  <r_i_docking_score>  (405) 
-3.54063

>  <r_i_glide_ligand_efficiency>  (405) 
-0.114214

>  <r_i_glide_ligand_efficiency_sa>  (405) 
-0.35879

>  <r_i_glide_ligand_efficiency_ln>  (405) 
-0.798521

>  <r_i_glide_gscore>  (405) 
-3.54063

>  <r_i_glide_lipo>  (405) 
-0.620619

>  <r_i_glide_hbond>  (405) 
-0.32

>  <r_i_glide_metal>  (405) 
-0

>  <r_i_glide_rewards>  (405) 
-0.453362

>  <r_i_glide_evdw>  (405) 
-32.5072

>  <r_i_glide_ecoul>  (405) 
-6.7964

>  <r_i_glide_erotb>  (405) 
0.520896

>  <r_i_glide_esite>  (405) 
-0.0227267

>  <r_i_glide_emodel>  (405) 
-44.4276

>  <r_i_glide_energy>  (405) 
-39.3036

>  <r_i_glide_einternal>  (405) 
6.89062

>  <r_i_glide_intrahb_reward>  (405) 
-0

>  <i_i_glide_confnum>  (405) 
3

>  <i_i_glide_posenum>  (405) 
1

>  <r_i_glide_eff_state_penalty>  (405) 
0

>  <ligand_id>  (405) 
114

>  <original_smiles>  (405) 
CC(O)C1CC2CC(O)(c3ncc(-c4ncccn4)s3)CC1N2C(=O)c1ccccn1

>  <smiles>  (405) 
[H]OC([H])(C([H])([H])[H])C1([H])C([H])([H])C2([H])N(C(=O)c3nc([H])c([H])c([H])c3[H])C1([H])C([H])([H])C(O[H])(c1nc([H])c(-c3nc([H])c([H])c([H])n3)s1)C2([H])[H]

$$$$
114:0:1
     RDKit          3D

 54 58  0  0  1  0  0  0  0  0999 V2000
    0.3895   -2.7388    5.6378 C   0  0  0  0  0  0  0  0  0  0  0  0
    1.8178   -2.3444    5.2165 C   0  0  2  0  0  0  0  0  0  0  0  0
    2.6148   -2.3881    6.3846 O   0  0  0  0  0  0  0  0  0  0  0  0
    1.8688   -0.9305    4.6044 C   0  0  2  0  0  0  0  0  0  0  0  0
    1.0092   -0.8398    3.3124 C   0  0  0  0  0  0  0  0  0  0  0  0
    2.0027   -0.3827    2.2320 C   0  0  1  0  0  0  0  0  0  0  0  0
    2.1408    1.1558    2.0993 C   0  0  0  0  0  0  0  0  0  0  0  0
    2.4836    1.8835    3.4506 C   0  0  1  0  0  0  0  0  0  0  0  0
    3.0232    3.1517    3.1407 O   0  0  0  0  0  0  0  0  0  0  0  0
    1.2548    2.1102    4.2800 C   0  0  0  0  0  0  0  0  0  0  0  0
    0.0351    2.2530    3.7564 N   0  0  0  0  0  0  0  0  0  0  0  0
   -0.9733    2.3399    4.7184 C   0  0  0  0  0  0  0  0  0  0  0  0
   -0.5072    2.3884    6.0077 C   0  0  0  0  0  0  0  0  0  0  0  0
   -1.2804    2.4946    7.2385 C   0  0  0  0  0  0  0  0  0  0  0  0
   -0.6482    2.3492    8.4108 N   0  0  0  0  0  0  0  0  0  0  0  0
   -1.3627    2.5190    9.5387 C   0  0  0  0  0  0  0  0  0  0  0  0
   -2.7348    2.8258    9.4876 C   0  0  0  0  0  0  0  0  0  0  0  0
   -3.3065    2.9510    8.2133 C   0  0  0  0  0  0  0  0  0  0  0  0
   -2.5840    2.7636    7.0991 N   0  0  0  0  0  0  0  0  0  0  0  0
    1.2356    2.3100    6.0423 S   0  0  0  0  0  0  0  0  0  0  0  0
    3.5542    1.0232    4.2170 C   0  0  0  0  0  0  0  0  0  0  0  0
    3.2905   -0.5123    4.1391 C   0  0  2  0  0  0  0  0  0  0  0  0
    3.2836   -0.8732    2.7268 N   0  0  0  0  0  0  0  0  0  0  0  0
    4.2685   -1.5444    2.0684 C   0  0  0  0  0  0  0  0  0  0  0  0
    5.3055   -1.9142    2.6108 O   0  0  0  0  0  0  0  0  0  0  0  0
    4.0750   -1.8054    0.6019 C   0  0  0  0  0  0  0  0  0  0  0  0
    3.1671   -2.7884    0.1493 C   0  0  0  0  0  0  0  0  0  0  0  0
    3.0162   -2.9883   -1.2337 C   0  0  0  0  0  0  0  0  0  0  0  0
    3.7728   -2.1994   -2.1198 C   0  0  0  0  0  0  0  0  0  0  0  0
    4.6503   -1.2454   -1.5763 C   0  0  0  0  0  0  0  0  0  0  0  0
    4.8112   -1.0558   -0.2547 N   0  0  0  0  0  0  0  0  0  0  0  0
   -0.2981   -2.7667    4.7934 H   0  0  0  0  0  0  0  0  0  0  0  0
   -0.0285   -2.0361    6.3608 H   0  0  0  0  0  0  0  0  0  0  0  0
    0.3777   -3.7326    6.0879 H   0  0  0  0  0  0  0  0  0  0  0  0
    2.2062   -3.0738    4.4981 H   0  0  0  0  0  0  0  0  0  0  0  0
    2.3122   -1.7334    6.9956 H   0  0  0  0  0  0  0  0  0  0  0  0
    1.5095   -0.2537    5.3766 H   0  0  0  0  0  0  0  0  0  0  0  0
    0.6399   -1.8333    3.0184 H   0  0  0  0  0  0  0  0  0  0  0  0
    0.1594   -0.1643    3.4211 H   0  0  0  0  0  0  0  0  0  0  0  0
    1.7153   -0.8133    1.2777 H   0  0  0  0  0  0  0  0  0  0  0  0
    2.9431    1.3391    1.3869 H   0  0  0  0  0  0  0  0  0  0  0  0
    1.2495    1.5698    1.6269 H   0  0  0  0  0  0  0  0  0  0  0  0
    3.8876    3.0392    2.7405 H   0  0  0  0  0  0  0  0  0  0  0  0
   -1.9956    2.3147    4.3953 H   0  0  0  0  0  0  0  0  0  0  0  0
   -0.8486    2.3973   10.4802 H   0  0  0  0  0  0  0  0  0  0  0  0
   -3.3178    2.9509   10.3862 H   0  0  0  0  0  0  0  0  0  0  0  0
   -4.3546    3.1677    8.0822 H   0  0  0  0  0  0  0  0  0  0  0  0
    4.5343    1.1863    3.7695 H   0  0  0  0  0  0  0  0  0  0  0  0
    3.6781    1.3345    5.2559 H   0  0  0  0  0  0  0  0  0  0  0  0
    4.0749   -1.0414    4.6926 H   0  0  0  0  0  0  0  0  0  0  0  0
    2.5846   -3.3647    0.8512 H   0  0  0  0  0  0  0  0  0  0  0  0
    2.3238   -3.7206   -1.6174 H   0  0  0  0  0  0  0  0  0  0  0  0
    3.6678   -2.3094   -3.1844 H   0  0  0  0  0  0  0  0  0  0  0  0
    5.2444   -0.6139   -2.2198 H   0  0  0  0  0  0  0  0  0  0  0  0
  1  2  1  0
  1 32  1  0
  1 33  1  0
  1 34  1  0
  2  3  1  0
  2  4  1  0
  2 35  1  6
  3 36  1  0
  4 22  1  0
  4  5  1  0
  4 37  1  1
  5  6  1  0
  5 38  1  0
  5 39  1  0
  6 23  1  0
  6  7  1  0
  6 40  1  6
  7  8  1  0
  7 41  1  0
  7 42  1  0
  8  9  1  6
  8 10  1  0
  8 21  1  0
  9 43  1  0
 10 20  1  0
 10 11  2  0
 11 12  1  0
 12 13  2  0
 12 44  1  0
 13 14  1  0
 13 20  1  0
 14 19  1  0
 14 15  2  0
 15 16  1  0
 16 17  2  0
 16 45  1  0
 17 18  1  0
 17 46  1  0
 18 19  2  0
 18 47  1  0
 21 22  1  0
 21 48  1  0
 21 49  1  0
 22 23  1  0
 22 50  1  1
 23 24  1  0
 24 25  2  0
 24 26  1  0
 26 31  1  0
 26 27  2  0
 27 28  1  0
 27 51  1  0
 28 29  2  0
 28 52  1  0
 29 30  1  0
 29 53  1  0
 30 31  2  0
 30 54  1  0
M  END
>  <i_m_ct_stereo_status>  (406) 
1

>  <s_m_source_file>  (406) 
/var/tmp/pbs.5076255.sched01/tmp0q3ly_rt/135fqi89qhj.sdf

>  <i_m_source_file_index>  (406) 
34

>  <i_lp_mmshare_version>  (406) 
48012

>  <i_f3d_flags>  (406) 
0

>  <s_epik_input>  (406) 
bjFbY0hdW2NIXVtjSF1bY0hdYzFDKD1PKU4yW0NASF0oW0NASF0oW0NASF0oW0NIM10pW09IXSlbQ0gyXVtDQEhdMjMpW0NIMl1bQ0BdKFtDSDJdMykoW09IXSljNG5bY0hdYyhzNCktYzVuW2NIXVtjSF1bY0hdbjU=

>  <s_epik_cmdline>  (406) 
J2VwaWtfcHl0aG9uJywgJy1waHQnLCAnMi4wJywgJy1waCcsICc3LjAnLCAnLXRuJywgJzgnLCAnLW1hJywgJzIwMCcsICctaW1hZScsICc8aW5maWxlLm1hZT4nLCAnLW9tYWUnLCAnPG91dGZpbGUubWFlPic=

>  <r_lp_tautomer_probability>  (406) 
1

>  <r_epik_Ionization_Penalty>  (406) 
1.73882e-05

>  <r_epik_Ionization_Penalty_Charging>  (406) 
0

>  <r_epik_Ionization_Penalty_Neutral>  (406) 
1.73882e-05

>  <r_epik_State_Penalty>  (406) 
-0

>  <r_epik_Charging_Adjusted_Penalty>  (406) 
0

>  <i_epik_Tot_Q>  (406) 
0

>  <i_epik_Tot_abs_Q>  (406) 
0

>  <s_lp_Force_Field>  (406) 
OPLS3e

>  <r_lp_Energy>  (406) 
43.3639

>  <b_lp_Chiralities_Consistent>  (406) 
1

>  <s_lp_Variant>  (406) 
114:0-1

>  <s_i_glide_gridfile>  (406) 
pfpi4k_grid

>  <i_i_glide_lignum>  (406) 
34

>  <i_i_glide_rotatable_bonds>  (406) 
7

>  <r_i_docking_score>  (406) 
-2.77381

>  <r_i_glide_ligand_efficiency>  (406) 
-0.0894778

>  <r_i_glide_ligand_efficiency_sa>  (406) 
-0.281084

>  <r_i_glide_ligand_efficiency_ln>  (406) 
-0.62558

>  <r_i_glide_gscore>  (406) 
-2.77381

>  <r_i_glide_lipo>  (406) 
-0.0551694

>  <r_i_glide_hbond>  (406) 
-0.32

>  <r_i_glide_metal>  (406) 
-0

>  <r_i_glide_rewards>  (406) 
-0.440194

>  <r_i_glide_evdw>  (406) 
-32.5065

>  <r_i_glide_ecoul>  (406) 
-5.67983

>  <r_i_glide_erotb>  (406) 
0.520896

>  <r_i_glide_esite>  (406) 
-0.00204326

>  <r_i_glide_emodel>  (406) 
-43.443

>  <r_i_glide_energy>  (406) 
-38.1864

>  <r_i_glide_einternal>  (406) 
3.17357

>  <r_i_glide_intrahb_reward>  (406) 
-0

>  <i_i_glide_confnum>  (406) 
4

>  <i_i_glide_posenum>  (406) 
16

>  <r_i_glide_eff_state_penalty>  (406) 
0

>  <ligand_id>  (406) 
114

>  <original_smiles>  (406) 
CC(O)C1CC2CC(O)(c3ncc(-c4ncccn4)s3)CC1N2C(=O)c1ccccn1

>  <smiles>  (406) 
[H]OC([H])(C([H])([H])[H])C1([H])C([H])([H])C2([H])N(C(=O)c3nc([H])c([H])c([H])c3[H])C1([H])C([H])([H])C(O[H])(c1nc([H])c(-c3nc([H])c([H])c([H])n3)s1)C2([H])[H]

$$$$
114:0:2
     RDKit          3D

 54 58  0  0  1  0  0  0  0  0999 V2000
    0.9045   -2.2234    6.3199 C   0  0  0  0  0  0  0  0  0  0  0  0
    2.1446   -1.6571    5.6079 C   0  0  2  0  0  0  0  0  0  0  0  0
    3.0689   -1.3023    6.6129 O   0  0  0  0  0  0  0  0  0  0  0  0
    1.7993   -0.3921    4.7950 C   0  0  2  0  0  0  0  0  0  0  0  0
    0.8272   -0.7415    3.6309 C   0  0  0  0  0  0  0  0  0  0  0  0
    1.5726   -0.3131    2.3615 C   0  0  1  0  0  0  0  0  0  0  0  0
    1.3270    1.1556    1.9544 C   0  0  0  0  0  0  0  0  0  0  0  0
    1.6211    2.1955    3.0939 C   0  0  1  0  0  0  0  0  0  0  0  0
    1.8701    3.4460    2.4793 O   0  0  0  0  0  0  0  0  0  0  0  0
    0.4682    2.3449    4.0305 C   0  0  0  0  0  0  0  0  0  0  0  0
   -0.8086    2.2248    3.6461 N   0  0  0  0  0  0  0  0  0  0  0  0
   -1.7254    2.2562    4.7118 C   0  0  0  0  0  0  0  0  0  0  0  0
   -1.1273    2.5019    5.9313 C   0  0  0  0  0  0  0  0  0  0  0  0
   -1.7790    2.5884    7.2324 C   0  0  0  0  0  0  0  0  0  0  0  0
   -1.0279    2.4955    8.3454 N   0  0  0  0  0  0  0  0  0  0  0  0
   -1.6392    2.6497    9.5346 C   0  0  0  0  0  0  0  0  0  0  0  0
   -3.0242    2.8928    9.6165 C   0  0  0  0  0  0  0  0  0  0  0  0
   -3.7227    2.9471    8.3992 C   0  0  0  0  0  0  0  0  0  0  0  0
   -3.1035    2.7804    7.2250 N   0  0  0  0  0  0  0  0  0  0  0  0
    0.5891    2.7291    5.7581 S   0  0  0  0  0  0  0  0  0  0  0  0
    2.9283    1.7504    3.8498 C   0  0  0  0  0  0  0  0  0  0  0  0
    3.0313    0.2165    4.0618 C   0  0  2  0  0  0  0  0  0  0  0  0
    2.9732   -0.4076    2.7452 N   0  0  0  0  0  0  0  0  0  0  0  0
    4.0297   -0.9625    2.0775 C   0  0  0  0  0  0  0  0  0  0  0  0
    5.1738   -0.9262    2.5031 O   0  0  0  0  0  0  0  0  0  0  0  0
    3.7478   -1.6290    0.7593 C   0  0  0  0  0  0  0  0  0  0  0  0
    2.9617   -2.8006    0.6824 C   0  0  0  0  0  0  0  0  0  0  0  0
    2.7139   -3.3784   -0.5756 C   0  0  0  0  0  0  0  0  0  0  0  0
    3.2687   -2.7677   -1.7207 C   0  0  0  0  0  0  0  0  0  0  0  0
    4.0425   -1.6064   -1.5440 C   0  0  0  0  0  0  0  0  0  0  0  0
    4.2932   -1.0573   -0.3463 N   0  0  0  0  0  0  0  0  0  0  0  0
    0.1408   -2.5457    5.6136 H   0  0  0  0  0  0  0  0  0  0  0  0
    0.4404   -1.4797    6.9720 H   0  0  0  0  0  0  0  0  0  0  0  0
    1.1670   -3.0877    6.9309 H   0  0  0  0  0  0  0  0  0  0  0  0
    2.6019   -2.4250    4.9720 H   0  0  0  0  0  0  0  0  0  0  0  0
    3.8474   -0.9566    6.2124 H   0  0  0  0  0  0  0  0  0  0  0  0
    1.3705    0.3235    5.4851 H   0  0  0  0  0  0  0  0  0  0  0  0
    0.6247   -1.8166    3.5612 H   0  0  0  0  0  0  0  0  0  0  0  0
   -0.1302   -0.2370    3.7356 H   0  0  0  0  0  0  0  0  0  0  0  0
    1.2924   -0.9661    1.5344 H   0  0  0  0  0  0  0  0  0  0  0  0
    2.0026    1.3462    1.1264 H   0  0  0  0  0  0  0  0  0  0  0  0
    0.3248    1.2788    1.5399 H   0  0  0  0  0  0  0  0  0  0  0  0
    1.1370    3.6810    1.9121 H   0  0  0  0  0  0  0  0  0  0  0  0
   -2.7453    2.0539    4.4939 H   0  0  0  0  0  0  0  0  0  0  0  0
   -1.0391    2.5730   10.4244 H   0  0  0  0  0  0  0  0  0  0  0  0
   -3.5276    3.0083   10.5629 H   0  0  0  0  0  0  0  0  0  0  0  0
   -4.7857    3.1186    8.3659 H   0  0  0  0  0  0  0  0  0  0  0  0
    3.7810    2.0426    3.2518 H   0  0  0  0  0  0  0  0  0  0  0  0
    3.0701    2.2856    4.7904 H   0  0  0  0  0  0  0  0  0  0  0  0
    3.9745   -0.0040    4.5707 H   0  0  0  0  0  0  0  0  0  0  0  0
    2.5364   -3.2360    1.5737 H   0  0  0  0  0  0  0  0  0  0  0  0
    2.1069   -4.2590   -0.6767 H   0  0  0  0  0  0  0  0  0  0  0  0
    3.0849   -3.1708   -2.6992 H   0  0  0  0  0  0  0  0  0  0  0  0
    4.4761   -1.1018   -2.3964 H   0  0  0  0  0  0  0  0  0  0  0  0
  1  2  1  0
  1 32  1  0
  1 33  1  0
  1 34  1  0
  2  3  1  0
  2  4  1  0
  2 35  1  6
  3 36  1  0
  4 22  1  0
  4  5  1  0
  4 37  1  1
  5  6  1  0
  5 38  1  0
  5 39  1  0
  6 23  1  0
  6  7  1  0
  6 40  1  6
  7  8  1  0
  7 41  1  0
  7 42  1  0
  8  9  1  6
  8 10  1  0
  8 21  1  0
  9 43  1  0
 10 20  1  0
 10 11  2  0
 11 12  1  0
 12 13  2  0
 12 44  1  0
 13 14  1  0
 13 20  1  0
 14 19  1  0
 14 15  2  0
 15 16  1  0
 16 17  2  0
 16 45  1  0
 17 18  1  0
 17 46  1  0
 18 19  2  0
 18 47  1  0
 21 22  1  0
 21 48  1  0
 21 49  1  0
 22 23  1  0
 22 50  1  1
 23 24  1  0
 24 25  2  0
 24 26  1  0
 26 31  1  0
 26 27  2  0
 27 28  1  0
 27 51  1  0
 28 29  2  0
 28 52  1  0
 29 30  1  0
 29 53  1  0
 30 31  2  0
 30 54  1  0
M  END
>  <i_m_ct_stereo_status>  (407) 
1

>  <s_m_source_file>  (407) 
/var/tmp/pbs.5076255.sched01/tmp0q3ly_rt/135fqi89qhj.sdf

>  <i_m_source_file_index>  (407) 
34

>  <i_lp_mmshare_version>  (407) 
48012

>  <i_f3d_flags>  (407) 
0

>  <s_epik_input>  (407) 
bjFbY0hdW2NIXVtjSF1bY0hdYzFDKD1PKU4yW0NASF0oW0NASF0oW0NASF0oW0NIM10pW09IXSlbQ0gyXVtDQEhdMjMpW0NIMl1bQ0BdKFtDSDJdMykoW09IXSljNG5bY0hdYyhzNCktYzVuW2NIXVtjSF1bY0hdbjU=

>  <s_epik_cmdline>  (407) 
J2VwaWtfcHl0aG9uJywgJy1waHQnLCAnMi4wJywgJy1waCcsICc3LjAnLCAnLXRuJywgJzgnLCAnLW1hJywgJzIwMCcsICctaW1hZScsICc8aW5maWxlLm1hZT4nLCAnLW9tYWUnLCAnPG91dGZpbGUubWFlPic=

>  <r_lp_tautomer_probability>  (407) 
1

>  <r_epik_Ionization_Penalty>  (407) 
1.73882e-05

>  <r_epik_Ionization_Penalty_Charging>  (407) 
0

>  <r_epik_Ionization_Penalty_Neutral>  (407) 
1.73882e-05

>  <r_epik_State_Penalty>  (407) 
-0

>  <r_epik_Charging_Adjusted_Penalty>  (407) 
0

>  <i_epik_Tot_Q>  (407) 
0

>  <i_epik_Tot_abs_Q>  (407) 
0

>  <s_lp_Force_Field>  (407) 
OPLS3e

>  <r_lp_Energy>  (407) 
43.3639

>  <b_lp_Chiralities_Consistent>  (407) 
1

>  <s_lp_Variant>  (407) 
114:0-1

>  <s_i_glide_gridfile>  (407) 
pfpi4k_grid

>  <i_i_glide_lignum>  (407) 
34

>  <i_i_glide_rotatable_bonds>  (407) 
7

>  <r_i_docking_score>  (407) 
-2.66958

>  <r_i_glide_ligand_efficiency>  (407) 
-0.0861154

>  <r_i_glide_ligand_efficiency_sa>  (407) 
-0.270521

>  <r_i_glide_ligand_efficiency_ln>  (407) 
-0.602072

>  <r_i_glide_gscore>  (407) 
-2.66958

>  <r_i_glide_lipo>  (407) 
-0.0021056

>  <r_i_glide_hbond>  (407) 
-0.16

>  <r_i_glide_metal>  (407) 
-0

>  <r_i_glide_rewards>  (407) 
-0.487921

>  <r_i_glide_evdw>  (407) 
-32.3511

>  <r_i_glide_ecoul>  (407) 
-6.11356

>  <r_i_glide_erotb>  (407) 
0.520896

>  <r_i_glide_esite>  (407) 
-0.00586163

>  <r_i_glide_emodel>  (407) 
-43.1105

>  <r_i_glide_energy>  (407) 
-38.4646

>  <r_i_glide_einternal>  (407) 
3.91012

>  <r_i_glide_intrahb_reward>  (407) 
-0

>  <i_i_glide_confnum>  (407) 
4

>  <i_i_glide_posenum>  (407) 
2

>  <r_i_glide_eff_state_penalty>  (407) 
0

>  <ligand_id>  (407) 
114

>  <original_smiles>  (407) 
CC(O)C1CC2CC(O)(c3ncc(-c4ncccn4)s3)CC1N2C(=O)c1ccccn1

>  <smiles>  (407) 
[H]OC([H])(C([H])([H])[H])C1([H])C([H])([H])C2([H])N(C(=O)c3nc([H])c([H])c([H])c3[H])C1([H])C([H])([H])C(O[H])(c1nc([H])c(-c3nc([H])c([H])c([H])n3)s1)C2([H])[H]

$$$$
115:0:0
     RDKit          3D

 13 14  0  0  1  0  0  0  0  0999 V2000
    4.2443   -8.9542    1.2257 Cl  0  0  0  0  0  0  0  0  0  0  0  0
    2.6302   -8.9510    1.8378 C   0  0  0  0  0  0  0  0  0  0  0  0
    2.1500  -10.1048    2.4813 C   0  0  0  0  0  0  0  0  0  0  0  0
    0.8411  -10.1866    3.0036 C   0  0  0  0  0  0  0  0  0  0  0  0
    0.1051   -9.0190    2.8108 N   0  0  0  0  0  0  0  0  0  0  0  0
   -1.1651   -8.7051    3.1583 C   0  0  0  0  0  0  0  0  0  0  0  0
   -1.4317   -7.4557    2.7677 N   0  0  0  0  0  0  0  0  0  0  0  0
   -0.3031   -6.9455    2.1253 N   0  0  0  0  0  0  0  0  0  0  0  0
    0.6420   -7.8927    2.1566 C   0  0  0  0  0  0  0  0  0  0  0  0
    1.9060   -7.8290    1.6711 N   0  0  0  0  0  0  0  0  0  0  0  0
    2.7979  -10.9655    2.5747 H   0  0  0  0  0  0  0  0  0  0  0  0
    0.4051  -11.0407    3.5043 H   0  0  0  0  0  0  0  0  0  0  0  0
   -1.8503   -9.3606    3.6773 H   0  0  0  0  0  0  0  0  0  0  0  0
  1  2  1  0
  2 10  2  0
  2  3  1  0
  3  4  2  0
  3 11  1  0
  4  5  1  0
  4 12  1  0
  5  9  1  0
  5  6  1  0
  6  7  2  0
  6 13  1  0
  7  8  1  0
  8  9  2  0
  9 10  1  0
M  END
>  <i_m_ct_stereo_status>  (408) 
1

>  <s_m_source_file>  (408) 
/var/tmp/pbs.5076255.sched01/tmp0q3ly_rt/135fqi89qhj.sdf

>  <i_m_source_file_index>  (408) 
35

>  <i_lp_mmshare_version>  (408) 
48012

>  <i_f3d_flags>  (408) 
0

>  <s_epik_input>  (408) 
W2NIXTFbY0hdYyhDbCluYyhuMTIpbm5bY0hdMg==

>  <s_epik_cmdline>  (408) 
J2VwaWtfcHl0aG9uJywgJy1waHQnLCAnMi4wJywgJy1waCcsICc3LjAnLCAnLXRuJywgJzgnLCAnLW1hJywgJzIwMCcsICctaW1hZScsICc8aW5maWxlLm1hZT4nLCAnLW9tYWUnLCAnPG91dGZpbGUubWFlPic=

>  <r_lp_tautomer_probability>  (408) 
1

>  <r_epik_Ionization_Penalty>  (408) 
3.09398e-08

>  <r_epik_Ionization_Penalty_Charging>  (408) 
0

>  <r_epik_Ionization_Penalty_Neutral>  (408) 
3.09398e-08

>  <r_epik_State_Penalty>  (408) 
-0

>  <r_epik_Charging_Adjusted_Penalty>  (408) 
0

>  <i_epik_Tot_Q>  (408) 
0

>  <i_epik_Tot_abs_Q>  (408) 
0

>  <s_lp_Force_Field>  (408) 
OPLS3e

>  <r_lp_Energy>  (408) 
13.725

>  <b_lp_Chiralities_Consistent>  (408) 
1

>  <s_lp_Variant>  (408) 
115:0-1

>  <s_i_glide_gridfile>  (408) 
pfpi4k_grid

>  <i_i_glide_lignum>  (408) 
35

>  <i_i_glide_rotatable_bonds>  (408) 
0

>  <r_i_docking_score>  (408) 
-4.34933

>  <r_i_glide_ligand_efficiency>  (408) 
-0.434933

>  <r_i_glide_ligand_efficiency_sa>  (408) 
-0.937034

>  <r_i_glide_ligand_efficiency_ln>  (408) 
-1.31695

>  <r_i_glide_gscore>  (408) 
-4.34933

>  <r_i_glide_lipo>  (408) 
-0.166175

>  <r_i_glide_hbond>  (408) 
0

>  <r_i_glide_metal>  (408) 
-0

>  <r_i_glide_rewards>  (408) 
-2.25

>  <r_i_glide_evdw>  (408) 
-17.6512

>  <r_i_glide_ecoul>  (408) 
-4.90738

>  <r_i_glide_erotb>  (408) 
0

>  <r_i_glide_esite>  (408) 
-0.314484

>  <r_i_glide_emodel>  (408) 
-30.3059

>  <r_i_glide_energy>  (408) 
-22.5586

>  <r_i_glide_einternal>  (408) 
0

>  <r_i_glide_intrahb_reward>  (408) 
-0

>  <i_i_glide_confnum>  (408) 
2

>  <i_i_glide_posenum>  (408) 
10

>  <r_i_glide_eff_state_penalty>  (408) 
0

>  <ligand_id>  (408) 
115

>  <original_smiles>  (408) 
Clc1ccn2cnnc2n1

>  <smiles>  (408) 
[H]c1c(Cl)nc2nnc([H])n2c1[H]

$$$$
115:0:1
     RDKit          3D

 13 14  0  0  1  0  0  0  0  0999 V2000
   -1.7892    4.1117    3.2911 Cl  0  0  0  0  0  0  0  0  0  0  0  0
   -1.3182    2.4808    3.6056 C   0  0  0  0  0  0  0  0  0  0  0  0
   -0.4390    1.8422    2.7147 C   0  0  0  0  0  0  0  0  0  0  0  0
   -0.0069    0.5144    2.9039 C   0  0  0  0  0  0  0  0  0  0  0  0
   -0.5484   -0.0788    4.0446 N   0  0  0  0  0  0  0  0  0  0  0  0
   -0.3869   -1.3201    4.5588 C   0  0  0  0  0  0  0  0  0  0  0  0
   -1.1268   -1.4368    5.6663 N   0  0  0  0  0  0  0  0  0  0  0  0
   -1.7812   -0.2244    5.8837 N   0  0  0  0  0  0  0  0  0  0  0  0
   -1.4288    0.6119    4.8982 C   0  0  0  0  0  0  0  0  0  0  0  0
   -1.8182    1.8961    4.7094 N   0  0  0  0  0  0  0  0  0  0  0  0
   -0.0719    2.3839    1.8547 H   0  0  0  0  0  0  0  0  0  0  0  0
    0.6620   -0.0343    2.2551 H   0  0  0  0  0  0  0  0  0  0  0  0
    0.2298   -2.0990    4.1331 H   0  0  0  0  0  0  0  0  0  0  0  0
  1  2  1  0
  2 10  2  0
  2  3  1  0
  3  4  2  0
  3 11  1  0
  4  5  1  0
  4 12  1  0
  5  9  1  0
  5  6  1  0
  6  7  2  0
  6 13  1  0
  7  8  1  0
  8  9  2  0
  9 10  1  0
M  END
>  <i_m_ct_stereo_status>  (409) 
1

>  <s_m_source_file>  (409) 
/var/tmp/pbs.5076255.sched01/tmp0q3ly_rt/135fqi89qhj.sdf

>  <i_m_source_file_index>  (409) 
35

>  <i_lp_mmshare_version>  (409) 
48012

>  <i_f3d_flags>  (409) 
0

>  <s_epik_input>  (409) 
W2NIXTFbY0hdYyhDbCluYyhuMTIpbm5bY0hdMg==

>  <s_epik_cmdline>  (409) 
J2VwaWtfcHl0aG9uJywgJy1waHQnLCAnMi4wJywgJy1waCcsICc3LjAnLCAnLXRuJywgJzgnLCAnLW1hJywgJzIwMCcsICctaW1hZScsICc8aW5maWxlLm1hZT4nLCAnLW9tYWUnLCAnPG91dGZpbGUubWFlPic=

>  <r_lp_tautomer_probability>  (409) 
1

>  <r_epik_Ionization_Penalty>  (409) 
3.09398e-08

>  <r_epik_Ionization_Penalty_Charging>  (409) 
0

>  <r_epik_Ionization_Penalty_Neutral>  (409) 
3.09398e-08

>  <r_epik_State_Penalty>  (409) 
-0

>  <r_epik_Charging_Adjusted_Penalty>  (409) 
0

>  <i_epik_Tot_Q>  (409) 
0

>  <i_epik_Tot_abs_Q>  (409) 
0

>  <s_lp_Force_Field>  (409) 
OPLS3e

>  <r_lp_Energy>  (409) 
13.725

>  <b_lp_Chiralities_Consistent>  (409) 
1

>  <s_lp_Variant>  (409) 
115:0-1

>  <s_i_glide_gridfile>  (409) 
pfpi4k_grid

>  <i_i_glide_lignum>  (409) 
35

>  <i_i_glide_rotatable_bonds>  (409) 
0

>  <r_i_docking_score>  (409) 
-4.19984

>  <r_i_glide_ligand_efficiency>  (409) 
-0.419984

>  <r_i_glide_ligand_efficiency_sa>  (409) 
-0.904829

>  <r_i_glide_ligand_efficiency_ln>  (409) 
-1.27168

>  <r_i_glide_gscore>  (409) 
-4.19984

>  <r_i_glide_lipo>  (409) 
0

>  <r_i_glide_hbond>  (409) 
0

>  <r_i_glide_metal>  (409) 
-0

>  <r_i_glide_rewards>  (409) 
-2.25

>  <r_i_glide_evdw>  (409) 
-14.0884

>  <r_i_glide_ecoul>  (409) 
-6.80672

>  <r_i_glide_erotb>  (409) 
0

>  <r_i_glide_esite>  (409) 
-0.224413

>  <r_i_glide_emodel>  (409) 
-28.3745

>  <r_i_glide_energy>  (409) 
-20.8952

>  <r_i_glide_einternal>  (409) 
0

>  <r_i_glide_intrahb_reward>  (409) 
-0

>  <i_i_glide_confnum>  (409) 
2

>  <i_i_glide_posenum>  (409) 
35

>  <r_i_glide_eff_state_penalty>  (409) 
0

>  <ligand_id>  (409) 
115

>  <original_smiles>  (409) 
Clc1ccn2cnnc2n1

>  <smiles>  (409) 
[H]c1c(Cl)nc2nnc([H])n2c1[H]

$$$$
115:0:2
     RDKit          3D

 13 14  0  0  1  0  0  0  0  0999 V2000
    4.8278   -6.5417    0.8693 Cl  0  0  0  0  0  0  0  0  0  0  0  0
    3.3476   -7.2530    1.3928 C   0  0  0  0  0  0  0  0  0  0  0  0
    3.3771   -8.5624    1.9031 C   0  0  0  0  0  0  0  0  0  0  0  0
    2.2137   -9.2203    2.3526 C   0  0  0  0  0  0  0  0  0  0  0  0
    1.0628   -8.4402    2.2296 N   0  0  0  0  0  0  0  0  0  0  0  0
   -0.2291   -8.7044    2.5442 C   0  0  0  0  0  0  0  0  0  0  0  0
   -0.9783   -7.6392    2.2474 N   0  0  0  0  0  0  0  0  0  0  0  0
   -0.1495   -6.6586    1.7051 N   0  0  0  0  0  0  0  0  0  0  0  0
    1.0996   -7.1381    1.7002 C   0  0  0  0  0  0  0  0  0  0  0  0
    2.2273   -6.5153    1.2820 N   0  0  0  0  0  0  0  0  0  0  0  0
    4.3209   -9.0832    1.9574 H   0  0  0  0  0  0  0  0  0  0  0  0
    2.1655  -10.2206    2.7582 H   0  0  0  0  0  0  0  0  0  0  0  0
   -0.5868   -9.6297    2.9705 H   0  0  0  0  0  0  0  0  0  0  0  0
  1  2  1  0
  2 10  2  0
  2  3  1  0
  3  4  2  0
  3 11  1  0
  4  5  1  0
  4 12  1  0
  5  9  1  0
  5  6  1  0
  6  7  2  0
  6 13  1  0
  7  8  1  0
  8  9  2  0
  9 10  1  0
M  END
>  <i_m_ct_stereo_status>  (410) 
1

>  <s_m_source_file>  (410) 
/var/tmp/pbs.5076255.sched01/tmp0q3ly_rt/135fqi89qhj.sdf

>  <i_m_source_file_index>  (410) 
35

>  <i_lp_mmshare_version>  (410) 
48012

>  <i_f3d_flags>  (410) 
0

>  <s_epik_input>  (410) 
W2NIXTFbY0hdYyhDbCluYyhuMTIpbm5bY0hdMg==

>  <s_epik_cmdline>  (410) 
J2VwaWtfcHl0aG9uJywgJy1waHQnLCAnMi4wJywgJy1waCcsICc3LjAnLCAnLXRuJywgJzgnLCAnLW1hJywgJzIwMCcsICctaW1hZScsICc8aW5maWxlLm1hZT4nLCAnLW9tYWUnLCAnPG91dGZpbGUubWFlPic=

>  <r_lp_tautomer_probability>  (410) 
1

>  <r_epik_Ionization_Penalty>  (410) 
3.09398e-08

>  <r_epik_Ionization_Penalty_Charging>  (410) 
0

>  <r_epik_Ionization_Penalty_Neutral>  (410) 
3.09398e-08

>  <r_epik_State_Penalty>  (410) 
-0

>  <r_epik_Charging_Adjusted_Penalty>  (410) 
0

>  <i_epik_Tot_Q>  (410) 
0

>  <i_epik_Tot_abs_Q>  (410) 
0

>  <s_lp_Force_Field>  (410) 
OPLS3e

>  <r_lp_Energy>  (410) 
13.725

>  <b_lp_Chiralities_Consistent>  (410) 
1

>  <s_lp_Variant>  (410) 
115:0-1

>  <s_i_glide_gridfile>  (410) 
pfpi4k_grid

>  <i_i_glide_lignum>  (410) 
35

>  <i_i_glide_rotatable_bonds>  (410) 
0

>  <r_i_docking_score>  (410) 
-4.11878

>  <r_i_glide_ligand_efficiency>  (410) 
-0.411878

>  <r_i_glide_ligand_efficiency_sa>  (410) 
-0.887363

>  <r_i_glide_ligand_efficiency_ln>  (410) 
-1.24714

>  <r_i_glide_gscore>  (410) 
-4.11878

>  <r_i_glide_lipo>  (410) 
-0.226152

>  <r_i_glide_hbond>  (410) 
0

>  <r_i_glide_metal>  (410) 
-0

>  <r_i_glide_rewards>  (410) 
-2.25

>  <r_i_glide_evdw>  (410) 
-15.1266

>  <r_i_glide_ecoul>  (410) 
-3.97466

>  <r_i_glide_erotb>  (410) 
0

>  <r_i_glide_esite>  (410) 
-0.290096

>  <r_i_glide_emodel>  (410) 
-26.4379

>  <r_i_glide_energy>  (410) 
-19.1012

>  <r_i_glide_einternal>  (410) 
0

>  <r_i_glide_intrahb_reward>  (410) 
-0

>  <i_i_glide_confnum>  (410) 
2

>  <i_i_glide_posenum>  (410) 
19

>  <r_i_glide_eff_state_penalty>  (410) 
0

>  <ligand_id>  (410) 
115

>  <original_smiles>  (410) 
Clc1ccn2cnnc2n1

>  <smiles>  (410) 
[H]c1c(Cl)nc2nnc([H])n2c1[H]

$$$$
116:0:0
     RDKit          3D

 43 45  0  0  1  0  0  0  0  0999 V2000
    3.6085   -0.7325   -4.8483 C   0  0  0  0  0  0  0  0  0  0  0  0
    3.7233    0.0587   -3.5430 C   0  0  0  0  0  0  0  0  0  0  0  0
    4.4589   -0.6632   -2.3865 C   0  0  0  0  0  0  0  0  0  0  0  0
    3.6565   -1.6449   -1.7239 N   0  0  0  0  0  0  0  0  0  0  0  0
    3.1538   -2.7769   -2.2596 C   0  0  0  0  0  0  0  0  0  0  0  0
    3.3821   -3.2247   -3.3945 O   0  0  0  0  0  0  0  0  0  0  0  0
    2.2972   -3.5003   -1.2821 C   0  0  0  0  0  0  0  0  0  0  0  0
    2.6905   -2.8774    0.0638 C   0  0  2  0  0  0  0  0  0  0  0  0
    3.4563   -1.5985   -0.2635 C   0  0  1  0  0  0  0  0  0  0  0  0
    4.7777   -1.6614    0.5435 C   0  0  0  0  0  0  0  0  0  0  0  0
    4.5127   -2.7420    1.5810 C   0  0  0  0  0  0  0  0  0  0  0  0
    3.6418   -3.7013    0.8668 N   0  0  1  0  0  0  0  0  0  0  0  0
    3.0137   -4.7348    1.7230 C   0  0  0  0  0  0  0  0  0  0  0  0
    2.1295   -5.7084    0.9041 C   0  0  0  0  0  0  0  0  0  0  0  0
    1.3290   -6.6563    1.7986 C   0  0  0  0  0  0  0  0  0  0  0  0
    0.5802   -5.8729    2.7314 O   0  0  0  0  0  0  0  0  0  0  0  0
    1.4239   -5.1632    3.6390 C   0  0  0  0  0  0  0  0  0  0  0  0
    2.1976   -4.1014    2.8715 C   0  0  0  0  0  0  0  0  0  0  0  0
    3.2024   -0.1088   -5.6458 H   0  0  0  0  0  0  0  0  0  0  0  0
    2.9610   -1.6036   -4.7210 H   0  0  0  0  0  0  0  0  0  0  0  0
    4.6016   -1.0698   -5.1135 H   0  0  0  0  0  0  0  0  0  0  0  0
    4.2041    1.0108   -3.7251 H   0  0  0  0  0  0  0  0  0  0  0  0
    2.7185    0.2823   -3.1958 H   0  0  0  0  0  0  0  0  0  0  0  0
    5.3965   -1.1213   -2.7071 H   0  0  0  0  0  0  0  0  0  0  0  0
    4.7530    0.0890   -1.6452 H   0  0  0  0  0  0  0  0  0  0  0  0
    1.2283   -3.3630   -1.4776 H   0  0  0  0  0  0  0  0  0  0  0  0
    2.5435   -4.5484   -1.3297 H   0  0  0  0  0  0  0  0  0  0  0  0
    1.8027   -2.6149    0.6440 H   0  0  0  0  0  0  0  0  0  0  0  0
    2.8628   -0.7350    0.0430 H   0  0  0  0  0  0  0  0  0  0  0  0
    5.6292   -1.9540   -0.0760 H   0  0  0  0  0  0  0  0  0  0  0  0
    5.0092   -0.7135    1.0424 H   0  0  0  0  0  0  0  0  0  0  0  0
    5.4120   -3.2115    1.9988 H   0  0  0  0  0  0  0  0  0  0  0  0
    3.9556   -2.2738    2.3951 H   0  0  0  0  0  0  0  0  0  0  0  0
    3.8083   -5.3515    2.1488 H   0  0  0  0  0  0  0  0  0  0  0  0
    1.3869   -5.1607    0.3427 H   0  0  0  0  0  0  0  0  0  0  0  0
    2.7092   -6.2618    0.1646 H   0  0  0  0  0  0  0  0  0  0  0  0
    0.6305   -7.2281    1.1778 H   0  0  0  0  0  0  0  0  0  0  0  0
    2.0126   -7.3515    2.2938 H   0  0  0  0  0  0  0  0  0  0  0  0
    0.8171   -4.6485    4.3872 H   0  0  0  0  0  0  0  0  0  0  0  0
    2.1273   -5.8256    4.1609 H   0  0  0  0  0  0  0  0  0  0  0  0
    2.8607   -3.5923    3.5734 H   0  0  0  0  0  0  0  0  0  0  0  0
    1.4759   -3.3638    2.4984 H   0  0  0  0  0  0  0  0  0  0  0  0
    4.2412   -4.1908    0.2066 H   0  0  0  0  0  0  0  0  0  0  0  0
  1  2  1  0
  1 19  1  0
  1 20  1  0
  1 21  1  0
  2  3  1  0
  2 22  1  0
  2 23  1  0
  3  4  1  0
  3 24  1  0
  3 25  1  0
  4  9  1  0
  4  5  1  0
  5  6  2  0
  5  7  1  0
  7  8  1  0
  7 26  1  0
  7 27  1  0
  8 12  1  0
  8  9  1  0
  8 28  1  1
  9 10  1  0
  9 29  1  6
 10 11  1  0
 10 30  1  0
 10 31  1  0
 11 12  1  0
 11 32  1  0
 11 33  1  0
 12 13  1  0
 12 43  1  6
 13 18  1  0
 13 14  1  0
 13 34  1  0
 14 15  1  0
 14 35  1  0
 14 36  1  0
 15 16  1  0
 15 37  1  0
 15 38  1  0
 16 17  1  0
 17 18  1  0
 17 39  1  0
 17 40  1  0
 18 41  1  0
 18 42  1  0
M  CHG  1  12   1
M  END
>  <i_m_ct_stereo_status>  (411) 
1

>  <s_m_source_file>  (411) 
/var/tmp/pbs.5076255.sched01/tmp0q3ly_rt/135fqi89qhj.sdf

>  <i_m_source_file_index>  (411) 
36

>  <i_lp_mmshare_version>  (411) 
48012

>  <i_f3d_flags>  (411) 
0

>  <s_epik_input>  (411) 
W0NIM11bQ0gyXVtDSDJdTihDKD1PKVtDSDJdMSlbQ0BASF0oW0NAQEhdMTIpW0NIMl1bQ0gyXU4yW0NIXTNbQ0gyXVtDSDJdT1tDSDJdW0NIMl0z

>  <s_epik_cmdline>  (411) 
J2VwaWtfcHl0aG9uJywgJy1waHQnLCAnMi4wJywgJy1waCcsICc3LjAnLCAnLXRuJywgJzgnLCAnLW1hJywgJzIwMCcsICctaW1hZScsICc8aW5maWxlLm1hZT4nLCAnLW9tYWUnLCAnPG91dGZpbGUubWFlPic=

>  <r_epik_Ionization_Penalty>  (411) 
0.0212637

>  <r_epik_Ionization_Penalty_Charging>  (411) 
0.0212637

>  <r_epik_Ionization_Penalty_Neutral>  (411) 
9.91788e-11

>  <r_epik_State_Penalty>  (411) 
0.017091

>  <r_epik_Charging_Adjusted_Penalty>  (411) 
0.0383548

>  <i_epik_Tot_Q>  (411) 
1

>  <i_epik_Tot_abs_Q>  (411) 
1

>  <s_lp_Force_Field>  (411) 
OPLS3e

>  <r_lp_Energy>  (411) 
4.15823

>  <b_lp_Chiralities_Consistent>  (411) 
1

>  <s_lp_Variant>  (411) 
116:0-1

>  <s_i_glide_gridfile>  (411) 
pfpi4k_grid

>  <i_i_glide_lignum>  (411) 
36

>  <i_i_glide_rotatable_bonds>  (411) 
3

>  <r_i_docking_score>  (411) 
-3.20868

>  <r_i_glide_ligand_efficiency>  (411) 
-0.17826

>  <r_i_glide_ligand_efficiency_sa>  (411) 
-0.467173

>  <r_i_glide_ligand_efficiency_ln>  (411) 
-0.824775

>  <r_i_glide_gscore>  (411) 
-3.20868

>  <r_i_glide_lipo>  (411) 
-0.190194

>  <r_i_glide_hbond>  (411) 
-0.0645018

>  <r_i_glide_metal>  (411) 
-0

>  <r_i_glide_rewards>  (411) 
-1.68163

>  <r_i_glide_evdw>  (411) 
-19.3695

>  <r_i_glide_ecoul>  (411) 
-4.98077

>  <r_i_glide_erotb>  (411) 
0.547317

>  <r_i_glide_esite>  (411) 
-0.104081

>  <r_i_glide_emodel>  (411) 
-21.1853

>  <r_i_glide_energy>  (411) 
-24.3502

>  <r_i_glide_einternal>  (411) 
12.3649

>  <r_i_glide_intrahb_reward>  (411) 
-0

>  <i_i_glide_confnum>  (411) 
5

>  <i_i_glide_posenum>  (411) 
11

>  <r_i_glide_eff_state_penalty>  (411) 
0

>  <ligand_id>  (411) 
116

>  <original_smiles>  (411) 
CCCN1C(=O)CC2C1CCN2C1CCOCC1

>  <smiles>  (411) 
[H]C([H])([H])C([H])([H])C([H])([H])N1C(=O)C([H])([H])C2([H])C1([H])C([H])([H])C([H])([H])[N+]2([H])C1([H])C([H])([H])C([H])([H])OC([H])([H])C1([H])[H]

$$$$
116:0:1
     RDKit          3D

 43 45  0  0  1  0  0  0  0  0999 V2000
    3.2086   -3.0443    4.2259 C   0  0  0  0  0  0  0  0  0  0  0  0
    4.6450   -3.5742    4.0814 C   0  0  0  0  0  0  0  0  0  0  0  0
    4.7874   -4.8589    3.2284 C   0  0  0  0  0  0  0  0  0  0  0  0
    4.3152   -4.7117    1.8479 N   0  0  0  0  0  0  0  0  0  0  0  0
    3.0403   -4.7377    1.4741 C   0  0  0  0  0  0  0  0  0  0  0  0
    2.0675   -4.9197    2.2080 O   0  0  0  0  0  0  0  0  0  0  0  0
    2.9035   -4.4925   -0.0138 C   0  0  0  0  0  0  0  0  0  0  0  0
    4.3535   -4.2397   -0.4777 C   0  0  2  0  0  0  0  0  0  0  0  0
    5.2430   -4.5369    0.7328 C   0  0  1  0  0  0  0  0  0  0  0  0
    6.1994   -3.3372    0.8735 C   0  0  0  0  0  0  0  0  0  0  0  0
    6.0811   -2.6315   -0.4618 C   0  0  0  0  0  0  0  0  0  0  0  0
    4.6614   -2.8271   -0.8256 N   0  0  1  0  0  0  0  0  0  0  0  0
    4.3461   -2.4467   -2.2263 C   0  0  0  0  0  0  0  0  0  0  0  0
    4.5977   -0.9444   -2.4571 C   0  0  0  0  0  0  0  0  0  0  0  0
    4.1329   -0.5348   -3.8685 C   0  0  0  0  0  0  0  0  0  0  0  0
    2.7707   -0.8697   -4.0759 O   0  0  0  0  0  0  0  0  0  0  0  0
    2.5198   -2.2648   -3.9759 C   0  0  0  0  0  0  0  0  0  0  0  0
    2.8805   -2.7523   -2.5731 C   0  0  0  0  0  0  0  0  0  0  0  0
    3.1697   -2.2054    4.9150 H   0  0  0  0  0  0  0  0  0  0  0  0
    2.5523   -3.8131    4.6343 H   0  0  0  0  0  0  0  0  0  0  0  0
    2.7835   -2.7514    3.2615 H   0  0  0  0  0  0  0  0  0  0  0  0
    5.2666   -2.7760    3.6819 H   0  0  0  0  0  0  0  0  0  0  0  0
    5.0500   -3.7816    5.0757 H   0  0  0  0  0  0  0  0  0  0  0  0
    5.8245   -5.1642    3.2038 H   0  0  0  0  0  0  0  0  0  0  0  0
    4.2575   -5.6873    3.6944 H   0  0  0  0  0  0  0  0  0  0  0  0
    2.4987   -5.3982   -0.4741 H   0  0  0  0  0  0  0  0  0  0  0  0
    2.2256   -3.6576   -0.1858 H   0  0  0  0  0  0  0  0  0  0  0  0
    4.6385   -4.8947   -1.3157 H   0  0  0  0  0  0  0  0  0  0  0  0
    5.8020   -5.4570    0.5686 H   0  0  0  0  0  0  0  0  0  0  0  0
    5.8783   -2.6417    1.6472 H   0  0  0  0  0  0  0  0  0  0  0  0
    7.2291   -3.6233    1.0941 H   0  0  0  0  0  0  0  0  0  0  0  0
    6.3578   -1.5806   -0.3833 H   0  0  0  0  0  0  0  0  0  0  0  0
    6.7293   -3.1043   -1.2158 H   0  0  0  0  0  0  0  0  0  0  0  0
    4.9786   -3.0189   -2.9112 H   0  0  0  0  0  0  0  0  0  0  0  0
    4.0553   -0.3494   -1.7182 H   0  0  0  0  0  0  0  0  0  0  0  0
    5.6565   -0.7014   -2.3254 H   0  0  0  0  0  0  0  0  0  0  0  0
    4.2340    0.5409   -4.0078 H   0  0  0  0  0  0  0  0  0  0  0  0
    4.7406   -1.0276   -4.6281 H   0  0  0  0  0  0  0  0  0  0  0  0
    1.4616   -2.4589   -4.1616 H   0  0  0  0  0  0  0  0  0  0  0  0
    3.0889   -2.8172   -4.7231 H   0  0  0  0  0  0  0  0  0  0  0  0
    2.6645   -3.8251   -2.5377 H   0  0  0  0  0  0  0  0  0  0  0  0
    2.2314   -2.2575   -1.8591 H   0  0  0  0  0  0  0  0  0  0  0  0
    4.1061   -2.2310   -0.2199 H   0  0  0  0  0  0  0  0  0  0  0  0
  1  2  1  0
  1 19  1  0
  1 20  1  0
  1 21  1  0
  2  3  1  0
  2 22  1  0
  2 23  1  0
  3  4  1  0
  3 24  1  0
  3 25  1  0
  4  9  1  0
  4  5  1  0
  5  6  2  0
  5  7  1  0
  7  8  1  0
  7 26  1  0
  7 27  1  0
  8 12  1  0
  8  9  1  0
  8 28  1  6
  9 10  1  0
  9 29  1  6
 10 11  1  0
 10 30  1  0
 10 31  1  0
 11 12  1  0
 11 32  1  0
 11 33  1  0
 12 13  1  0
 12 43  1  1
 13 18  1  0
 13 14  1  0
 13 34  1  0
 14 15  1  0
 14 35  1  0
 14 36  1  0
 15 16  1  0
 15 37  1  0
 15 38  1  0
 16 17  1  0
 17 18  1  0
 17 39  1  0
 17 40  1  0
 18 41  1  0
 18 42  1  0
M  CHG  1  12   1
M  END
>  <i_m_ct_stereo_status>  (412) 
1

>  <s_m_source_file>  (412) 
/var/tmp/pbs.5076255.sched01/tmp0q3ly_rt/135fqi89qhj.sdf

>  <i_m_source_file_index>  (412) 
36

>  <i_lp_mmshare_version>  (412) 
48012

>  <i_f3d_flags>  (412) 
0

>  <s_epik_input>  (412) 
W0NIM11bQ0gyXVtDSDJdTihDKD1PKVtDSDJdMSlbQ0BASF0oW0NAQEhdMTIpW0NIMl1bQ0gyXU4yW0NIXTNbQ0gyXVtDSDJdT1tDSDJdW0NIMl0z

>  <s_epik_cmdline>  (412) 
J2VwaWtfcHl0aG9uJywgJy1waHQnLCAnMi4wJywgJy1waCcsICc3LjAnLCAnLXRuJywgJzgnLCAnLW1hJywgJzIwMCcsICctaW1hZScsICc8aW5maWxlLm1hZT4nLCAnLW9tYWUnLCAnPG91dGZpbGUubWFlPic=

>  <r_epik_Ionization_Penalty>  (412) 
0.0212637

>  <r_epik_Ionization_Penalty_Charging>  (412) 
0.0212637

>  <r_epik_Ionization_Penalty_Neutral>  (412) 
9.91788e-11

>  <r_epik_State_Penalty>  (412) 
0.017091

>  <r_epik_Charging_Adjusted_Penalty>  (412) 
0.0383548

>  <i_epik_Tot_Q>  (412) 
1

>  <i_epik_Tot_abs_Q>  (412) 
1

>  <s_lp_Force_Field>  (412) 
OPLS3e

>  <r_lp_Energy>  (412) 
4.15823

>  <b_lp_Chiralities_Consistent>  (412) 
1

>  <s_lp_Variant>  (412) 
116:0-1

>  <s_i_glide_gridfile>  (412) 
pfpi4k_grid

>  <i_i_glide_lignum>  (412) 
36

>  <i_i_glide_rotatable_bonds>  (412) 
3

>  <r_i_docking_score>  (412) 
-2.97695

>  <r_i_glide_ligand_efficiency>  (412) 
-0.165386

>  <r_i_glide_ligand_efficiency_sa>  (412) 
-0.433434

>  <r_i_glide_ligand_efficiency_ln>  (412) 
-0.765208

>  <r_i_glide_gscore>  (412) 
-2.97695

>  <r_i_glide_lipo>  (412) 
-0.590883

>  <r_i_glide_hbond>  (412) 
0

>  <r_i_glide_metal>  (412) 
-0

>  <r_i_glide_rewards>  (412) 
-1.70102

>  <r_i_glide_evdw>  (412) 
-18.2108

>  <r_i_glide_ecoul>  (412) 
-2.111

>  <r_i_glide_erotb>  (412) 
0.547317

>  <r_i_glide_esite>  (412) 
-0.00516532

>  <r_i_glide_emodel>  (412) 
-23.6865

>  <r_i_glide_energy>  (412) 
-20.3219

>  <r_i_glide_einternal>  (412) 
1.74581

>  <r_i_glide_intrahb_reward>  (412) 
-0

>  <i_i_glide_confnum>  (412) 
2

>  <i_i_glide_posenum>  (412) 
39

>  <r_i_glide_eff_state_penalty>  (412) 
0

>  <ligand_id>  (412) 
116

>  <original_smiles>  (412) 
CCCN1C(=O)CC2C1CCN2C1CCOCC1

>  <smiles>  (412) 
[H]C([H])([H])C([H])([H])C([H])([H])N1C(=O)C([H])([H])C2([H])C1([H])C([H])([H])C([H])([H])[N+]2([H])C1([H])C([H])([H])C([H])([H])OC([H])([H])C1([H])[H]

$$$$
116:1:0
     RDKit          3D

 42 44  0  0  1  0  0  0  0  0999 V2000
    3.2585    0.9274   -5.1138 C   0  0  0  0  0  0  0  0  0  0  0  0
    2.9758   -0.1885   -4.1075 C   0  0  0  0  0  0  0  0  0  0  0  0
    4.2294   -0.6032   -3.3376 C   0  0  0  0  0  0  0  0  0  0  0  0
    3.9713   -1.6997   -2.4167 N   0  0  0  0  0  0  0  0  0  0  0  0
    3.8464   -2.9791   -2.7656 C   0  0  0  0  0  0  0  0  0  0  0  0
    3.9328   -3.4284   -3.9103 O   0  0  0  0  0  0  0  0  0  0  0  0
    3.5683   -3.8286   -1.5405 C   0  0  0  0  0  0  0  0  0  0  0  0
    3.7839   -2.8873   -0.3477 C   0  0  2  0  0  0  0  0  0  0  0  0
    3.9308   -1.4971   -0.9703 C   0  0  1  0  0  0  0  0  0  0  0  0
    5.2200   -0.9089   -0.3887 C   0  0  0  0  0  0  0  0  0  0  0  0
    5.4977   -1.7878    0.8110 C   0  0  0  0  0  0  0  0  0  0  0  0
    5.0572   -3.0980    0.3538 N   0  0  0  0  0  0  0  0  0  0  0  0
    5.0530   -4.1010    1.4367 C   0  0  0  0  0  0  0  0  0  0  0  0
    4.8301   -5.5402    0.9316 C   0  0  0  0  0  0  0  0  0  0  0  0
    4.8669   -6.5397    2.1031 C   0  0  0  0  0  0  0  0  0  0  0  0
    3.8931   -6.1740    3.0747 O   0  0  0  0  0  0  0  0  0  0  0  0
    4.1387   -4.8956    3.6534 C   0  0  0  0  0  0  0  0  0  0  0  0
    4.0515   -3.8116    2.5760 C   0  0  0  0  0  0  0  0  0  0  0  0
    2.3475    1.2236   -5.6280 H   0  0  0  0  0  0  0  0  0  0  0  0
    3.9787    0.6061   -5.8609 H   0  0  0  0  0  0  0  0  0  0  0  0
    3.6623    1.8058   -4.6116 H   0  0  0  0  0  0  0  0  0  0  0  0
    2.2223    0.1427   -3.3931 H   0  0  0  0  0  0  0  0  0  0  0  0
    2.5614   -1.0513   -4.6287 H   0  0  0  0  0  0  0  0  0  0  0  0
    5.0085   -0.9177   -4.0341 H   0  0  0  0  0  0  0  0  0  0  0  0
    4.6157    0.2584   -2.7965 H   0  0  0  0  0  0  0  0  0  0  0  0
    2.5376   -4.1903   -1.5484 H   0  0  0  0  0  0  0  0  0  0  0  0
    4.2598   -4.6671   -1.5357 H   0  0  0  0  0  0  0  0  0  0  0  0
    2.9221   -2.8891    0.3220 H   0  0  0  0  0  0  0  0  0  0  0  0
    3.0627   -0.8972   -0.7062 H   0  0  0  0  0  0  0  0  0  0  0  0
    6.0460   -0.9681   -1.1017 H   0  0  0  0  0  0  0  0  0  0  0  0
    5.0885    0.1313   -0.0773 H   0  0  0  0  0  0  0  0  0  0  0  0
    6.5473   -1.7870    1.1005 H   0  0  0  0  0  0  0  0  0  0  0  0
    4.9024   -1.4344    1.6475 H   0  0  0  0  0  0  0  0  0  0  0  0
    6.0553   -4.0861    1.8645 H   0  0  0  0  0  0  0  0  0  0  0  0
    3.8573   -5.6343    0.4535 H   0  0  0  0  0  0  0  0  0  0  0  0
    5.5800   -5.8155    0.1894 H   0  0  0  0  0  0  0  0  0  0  0  0
    4.6477   -7.5493    1.7470 H   0  0  0  0  0  0  0  0  0  0  0  0
    5.8586   -6.5651    2.5588 H   0  0  0  0  0  0  0  0  0  0  0  0
    3.3896   -4.7024    4.4231 H   0  0  0  0  0  0  0  0  0  0  0  0
    5.1173   -4.8772    4.1358 H   0  0  0  0  0  0  0  0  0  0  0  0
    4.2361   -2.8477    3.0495 H   0  0  0  0  0  0  0  0  0  0  0  0
    3.0300   -3.7967    2.2041 H   0  0  0  0  0  0  0  0  0  0  0  0
  1  2  1  0
  1 19  1  0
  1 20  1  0
  1 21  1  0
  2  3  1  0
  2 22  1  0
  2 23  1  0
  3  4  1  0
  3 24  1  0
  3 25  1  0
  4  9  1  0
  4  5  1  0
  5  6  2  0
  5  7  1  0
  7  8  1  0
  7 26  1  0
  7 27  1  0
  8 12  1  0
  8  9  1  0
  8 28  1  1
  9 10  1  0
  9 29  1  6
 10 11  1  0
 10 30  1  0
 10 31  1  0
 11 12  1  0
 11 32  1  0
 11 33  1  0
 12 13  1  0
 13 18  1  0
 13 14  1  0
 13 34  1  0
 14 15  1  0
 14 35  1  0
 14 36  1  0
 15 16  1  0
 15 37  1  0
 15 38  1  0
 16 17  1  0
 17 18  1  0
 17 39  1  0
 17 40  1  0
 18 41  1  0
 18 42  1  0
M  END
>  <i_m_ct_stereo_status>  (413) 
1

>  <s_m_source_file>  (413) 
/var/tmp/pbs.5076255.sched01/tmp0q3ly_rt/135fqi89qhj.sdf

>  <i_m_source_file_index>  (413) 
37

>  <i_lp_mmshare_version>  (413) 
48012

>  <i_f3d_flags>  (413) 
0

>  <s_epik_input>  (413) 
W0NIM11bQ0gyXVtDSDJdTihDKD1PKVtDSDJdMSlbQ0BASF0oW0NAQEhdMTIpW0NIMl1bQ0gyXU4yW0NIXTNbQ0gyXVtDSDJdT1tDSDJdW0NIMl0z

>  <s_epik_cmdline>  (413) 
J2VwaWtfcHl0aG9uJywgJy1waHQnLCAnMi4wJywgJy1waCcsICc3LjAnLCAnLXRuJywgJzgnLCAnLW1hJywgJzIwMCcsICctaW1hZScsICc8aW5maWxlLm1hZT4nLCAnLW9tYWUnLCAnPG91dGZpbGUubWFlPic=

>  <r_epik_Ionization_Penalty>  (413) 
1.98199

>  <r_epik_Ionization_Penalty_Charging>  (413) 
0

>  <r_epik_Ionization_Penalty_Neutral>  (413) 
1.98199

>  <r_epik_State_Penalty>  (413) 
2.10935

>  <r_epik_Charging_Adjusted_Penalty>  (413) 
2.10935

>  <i_epik_Tot_Q>  (413) 
0

>  <i_epik_Tot_abs_Q>  (413) 
0

>  <s_lp_Force_Field>  (413) 
OPLS3e

>  <r_lp_Energy>  (413) 
9.16379

>  <b_lp_Chiralities_Consistent>  (413) 
1

>  <s_lp_Variant>  (413) 
116:0-2

>  <s_i_glide_gridfile>  (413) 
pfpi4k_grid

>  <i_i_glide_lignum>  (413) 
37

>  <i_i_glide_rotatable_bonds>  (413) 
3

>  <r_i_docking_score>  (413) 
-3.21469

>  <r_i_glide_ligand_efficiency>  (413) 
-0.178594

>  <r_i_glide_ligand_efficiency_sa>  (413) 
-0.468048

>  <r_i_glide_ligand_efficiency_ln>  (413) 
-0.826319

>  <r_i_glide_gscore>  (413) 
-3.21469

>  <r_i_glide_lipo>  (413) 
-0.616053

>  <r_i_glide_hbond>  (413) 
0

>  <r_i_glide_metal>  (413) 
-0

>  <r_i_glide_rewards>  (413) 
-1.68851

>  <r_i_glide_evdw>  (413) 
-21.599

>  <r_i_glide_ecoul>  (413) 
-2.30663

>  <r_i_glide_erotb>  (413) 
0.551075

>  <r_i_glide_esite>  (413) 
-0.0352563

>  <r_i_glide_emodel>  (413) 
-27.4612

>  <r_i_glide_energy>  (413) 
-23.9057

>  <r_i_glide_einternal>  (413) 
1.73837

>  <r_i_glide_intrahb_reward>  (413) 
-0

>  <i_i_glide_confnum>  (413) 
4

>  <i_i_glide_posenum>  (413) 
28

>  <r_i_glide_eff_state_penalty>  (413) 
0

>  <ligand_id>  (413) 
116

>  <original_smiles>  (413) 
CCCN1C(=O)CC2C1CCN2C1CCOCC1

>  <smiles>  (413) 
[H]C([H])([H])C([H])([H])C([H])([H])N1C(=O)C([H])([H])C2([H])N(C3([H])C([H])([H])C([H])([H])OC([H])([H])C3([H])[H])C([H])([H])C([H])([H])C12[H]

$$$$
116:1:1
     RDKit          3D

 42 44  0  0  1  0  0  0  0  0999 V2000
    3.5204    1.1220   -4.9143 C   0  0  0  0  0  0  0  0  0  0  0  0
    3.0968   -0.1102   -4.1049 C   0  0  0  0  0  0  0  0  0  0  0  0
    4.2300   -0.6192   -3.2107 C   0  0  0  0  0  0  0  0  0  0  0  0
    3.7718   -1.6324   -2.2769 N   0  0  0  0  0  0  0  0  0  0  0  0
    3.6044   -2.9240   -2.5624 C   0  0  0  0  0  0  0  0  0  0  0  0
    3.8187   -3.4449   -3.6620 O   0  0  0  0  0  0  0  0  0  0  0  0
    3.0847   -3.6732   -1.3468 C   0  0  0  0  0  0  0  0  0  0  0  0
    3.1741   -2.6561   -0.1953 C   0  0  2  0  0  0  0  0  0  0  0  0
    3.5189   -1.3267   -0.8799 C   0  0  1  0  0  0  0  0  0  0  0  0
    4.7264   -0.7531   -0.1424 C   0  0  0  0  0  0  0  0  0  0  0  0
    4.7463   -1.5414    1.1470 C   0  0  0  0  0  0  0  0  0  0  0  0
    4.3001   -2.8673    0.7216 N   0  0  0  0  0  0  0  0  0  0  0  0
    4.0593   -3.7710    1.8616 C   0  0  0  0  0  0  0  0  0  0  0  0
    3.6919   -5.2049    1.4230 C   0  0  0  0  0  0  0  0  0  0  0  0
    3.4758   -6.1122    2.6437 C   0  0  0  0  0  0  0  0  0  0  0  0
    2.4592   -5.5584    3.4757 O   0  0  0  0  0  0  0  0  0  0  0  0
    2.8242   -4.2848    4.0061 C   0  0  0  0  0  0  0  0  0  0  0  0
    2.9913   -3.2729    2.8660 C   0  0  0  0  0  0  0  0  0  0  0  0
    2.7028    1.4788   -5.5459 H   0  0  0  0  0  0  0  0  0  0  0  0
    4.3811    0.9123   -5.5444 H   0  0  0  0  0  0  0  0  0  0  0  0
    3.8198    1.9347   -4.2510 H   0  0  0  0  0  0  0  0  0  0  0  0
    2.2399    0.1410   -3.4858 H   0  0  0  0  0  0  0  0  0  0  0  0
    2.7651   -0.9055   -4.7721 H   0  0  0  0  0  0  0  0  0  0  0  0
    5.0143   -1.0505   -3.8294 H   0  0  0  0  0  0  0  0  0  0  0  0
    4.6774    0.2141   -2.6687 H   0  0  0  0  0  0  0  0  0  0  0  0
    2.0511   -3.9744   -1.5105 H   0  0  0  0  0  0  0  0  0  0  0  0
    3.6896   -4.5565   -1.1638 H   0  0  0  0  0  0  0  0  0  0  0  0
    2.2200   -2.5551    0.3263 H   0  0  0  0  0  0  0  0  0  0  0  0
    2.6719   -0.6553   -0.8040 H   0  0  0  0  0  0  0  0  0  0  0  0
    5.6564   -0.8863   -0.6913 H   0  0  0  0  0  0  0  0  0  0  0  0
    4.5967    0.2985    0.0730 H   0  0  0  0  0  0  0  0  0  0  0  0
    5.7290   -1.5615    1.6222 H   0  0  0  0  0  0  0  0  0  0  0  0
    4.0343   -1.0652    1.8261 H   0  0  0  0  0  0  0  0  0  0  0  0
    5.0079   -3.8464    2.3945 H   0  0  0  0  0  0  0  0  0  0  0  0
    2.7654   -5.2124    0.8518 H   0  0  0  0  0  0  0  0  0  0  0  0
    4.4686   -5.6291    0.7861 H   0  0  0  0  0  0  0  0  0  0  0  0
    3.1595   -7.1101    2.3281 H   0  0  0  0  0  0  0  0  0  0  0  0
    4.4080   -6.2237    3.2019 H   0  0  0  0  0  0  0  0  0  0  0  0
    2.0427   -3.9303    4.6827 H   0  0  0  0  0  0  0  0  0  0  0  0
    3.7553   -4.3485    4.5780 H   0  0  0  0  0  0  0  0  0  0  0  0
    3.2634   -2.3207    3.3215 H   0  0  0  0  0  0  0  0  0  0  0  0
    2.0196   -3.1381    2.3892 H   0  0  0  0  0  0  0  0  0  0  0  0
  1  2  1  0
  1 19  1  0
  1 20  1  0
  1 21  1  0
  2  3  1  0
  2 22  1  0
  2 23  1  0
  3  4  1  0
  3 24  1  0
  3 25  1  0
  4  9  1  0
  4  5  1  0
  5  6  2  0
  5  7  1  0
  7  8  1  0
  7 26  1  0
  7 27  1  0
  8 12  1  0
  8  9  1  0
  8 28  1  1
  9 10  1  0
  9 29  1  6
 10 11  1  0
 10 30  1  0
 10 31  1  0
 11 12  1  0
 11 32  1  0
 11 33  1  0
 12 13  1  0
 13 18  1  0
 13 14  1  0
 13 34  1  0
 14 15  1  0
 14 35  1  0
 14 36  1  0
 15 16  1  0
 15 37  1  0
 15 38  1  0
 16 17  1  0
 17 18  1  0
 17 39  1  0
 17 40  1  0
 18 41  1  0
 18 42  1  0
M  END
>  <i_m_ct_stereo_status>  (414) 
1

>  <s_m_source_file>  (414) 
/var/tmp/pbs.5076255.sched01/tmp0q3ly_rt/135fqi89qhj.sdf

>  <i_m_source_file_index>  (414) 
37

>  <i_lp_mmshare_version>  (414) 
48012

>  <i_f3d_flags>  (414) 
0

>  <s_epik_input>  (414) 
W0NIM11bQ0gyXVtDSDJdTihDKD1PKVtDSDJdMSlbQ0BASF0oW0NAQEhdMTIpW0NIMl1bQ0gyXU4yW0NIXTNbQ0gyXVtDSDJdT1tDSDJdW0NIMl0z

>  <s_epik_cmdline>  (414) 
J2VwaWtfcHl0aG9uJywgJy1waHQnLCAnMi4wJywgJy1waCcsICc3LjAnLCAnLXRuJywgJzgnLCAnLW1hJywgJzIwMCcsICctaW1hZScsICc8aW5maWxlLm1hZT4nLCAnLW9tYWUnLCAnPG91dGZpbGUubWFlPic=

>  <r_epik_Ionization_Penalty>  (414) 
1.98199

>  <r_epik_Ionization_Penalty_Charging>  (414) 
0

>  <r_epik_Ionization_Penalty_Neutral>  (414) 
1.98199

>  <r_epik_State_Penalty>  (414) 
2.10935

>  <r_epik_Charging_Adjusted_Penalty>  (414) 
2.10935

>  <i_epik_Tot_Q>  (414) 
0

>  <i_epik_Tot_abs_Q>  (414) 
0

>  <s_lp_Force_Field>  (414) 
OPLS3e

>  <r_lp_Energy>  (414) 
9.16379

>  <b_lp_Chiralities_Consistent>  (414) 
1

>  <s_lp_Variant>  (414) 
116:0-2

>  <s_i_glide_gridfile>  (414) 
pfpi4k_grid

>  <i_i_glide_lignum>  (414) 
37

>  <i_i_glide_rotatable_bonds>  (414) 
3

>  <r_i_docking_score>  (414) 
-2.9492

>  <r_i_glide_ligand_efficiency>  (414) 
-0.163844

>  <r_i_glide_ligand_efficiency_sa>  (414) 
-0.429394

>  <r_i_glide_ligand_efficiency_ln>  (414) 
-0.758076

>  <r_i_glide_gscore>  (414) 
-2.9492

>  <r_i_glide_lipo>  (414) 
-0.453761

>  <r_i_glide_hbond>  (414) 
0

>  <r_i_glide_metal>  (414) 
-0

>  <r_i_glide_rewards>  (414) 
-1.68851

>  <r_i_glide_evdw>  (414) 
-19.4314

>  <r_i_glide_ecoul>  (414) 
-2.10462

>  <r_i_glide_erotb>  (414) 
0.551075

>  <r_i_glide_esite>  (414) 
-0.0707455

>  <r_i_glide_emodel>  (414) 
-24.3001

>  <r_i_glide_energy>  (414) 
-21.536

>  <r_i_glide_einternal>  (414) 
2.37183

>  <r_i_glide_intrahb_reward>  (414) 
-0

>  <i_i_glide_confnum>  (414) 
4

>  <i_i_glide_posenum>  (414) 
8

>  <r_i_glide_eff_state_penalty>  (414) 
0

>  <ligand_id>  (414) 
116

>  <original_smiles>  (414) 
CCCN1C(=O)CC2C1CCN2C1CCOCC1

>  <smiles>  (414) 
[H]C([H])([H])C([H])([H])C([H])([H])N1C(=O)C([H])([H])C2([H])N(C3([H])C([H])([H])C([H])([H])OC([H])([H])C3([H])[H])C([H])([H])C([H])([H])C12[H]

$$$$
116:1:2
     RDKit          3D

 42 44  0  0  1  0  0  0  0  0999 V2000
   -3.9138    3.8689    2.2273 C   0  0  0  0  0  0  0  0  0  0  0  0
   -2.4958    3.8634    2.8001 C   0  0  0  0  0  0  0  0  0  0  0  0
   -1.9896    2.4386    3.0579 C   0  0  0  0  0  0  0  0  0  0  0  0
   -0.5831    2.4232    3.4510 N   0  0  0  0  0  0  0  0  0  0  0  0
   -0.0886    2.8871    4.6027 C   0  0  0  0  0  0  0  0  0  0  0  0
   -0.7294    3.4038    5.5197 O   0  0  0  0  0  0  0  0  0  0  0  0
    1.4192    2.7278    4.6427 C   0  0  0  0  0  0  0  0  0  0  0  0
    1.7398    1.8328    3.4292 C   0  0  2  0  0  0  0  0  0  0  0  0
    0.4374    1.7962    2.6144 C   0  0  1  0  0  0  0  0  0  0  0  0
    0.1784    0.3237    2.3273 C   0  0  0  0  0  0  0  0  0  0  0  0
    1.5213   -0.3156    2.6148 C   0  0  0  0  0  0  0  0  0  0  0  0
    2.0160    0.4299    3.7703 N   0  0  0  0  0  0  0  0  0  0  0  0
    3.4509    0.1702    3.9866 C   0  0  0  0  0  0  0  0  0  0  0  0
    3.7117   -1.2983    4.3854 C   0  0  0  0  0  0  0  0  0  0  0  0
    5.2171   -1.5237    4.6024 C   0  0  0  0  0  0  0  0  0  0  0  0
    5.7114   -0.6473    5.6094 O   0  0  0  0  0  0  0  0  0  0  0  0
    5.5621    0.7227    5.2555 C   0  0  0  0  0  0  0  0  0  0  0  0
    4.0805    1.0591    5.0784 C   0  0  0  0  0  0  0  0  0  0  0  0
   -4.2660    4.8835    2.0494 H   0  0  0  0  0  0  0  0  0  0  0  0
   -4.6027    3.3840    2.9137 H   0  0  0  0  0  0  0  0  0  0  0  0
   -3.9612    3.3268    1.2825 H   0  0  0  0  0  0  0  0  0  0  0  0
   -1.8172    4.3705    2.1125 H   0  0  0  0  0  0  0  0  0  0  0  0
   -2.4763    4.4332    3.7285 H   0  0  0  0  0  0  0  0  0  0  0  0
   -2.5796    1.9647    3.8438 H   0  0  0  0  0  0  0  0  0  0  0  0
   -2.1356    1.8317    2.1638 H   0  0  0  0  0  0  0  0  0  0  0  0
    1.8939    3.7067    4.5436 H   0  0  0  0  0  0  0  0  0  0  0  0
    1.6997    2.2847    5.5990 H   0  0  0  0  0  0  0  0  0  0  0  0
    2.5444    2.2434    2.8158 H   0  0  0  0  0  0  0  0  0  0  0  0
    0.5645    2.3557    1.6866 H   0  0  0  0  0  0  0  0  0  0  0  0
   -0.5783   -0.0869    2.9964 H   0  0  0  0  0  0  0  0  0  0  0  0
   -0.1349    0.1631    1.2921 H   0  0  0  0  0  0  0  0  0  0  0  0
    1.4123   -1.3821    2.8062 H   0  0  0  0  0  0  0  0  0  0  0  0
    2.1899   -0.1830    1.7607 H   0  0  0  0  0  0  0  0  0  0  0  0
    3.9742    0.3734    3.0514 H   0  0  0  0  0  0  0  0  0  0  0  0
    3.1668   -1.5439    5.2975 H   0  0  0  0  0  0  0  0  0  0  0  0
    3.3754   -1.9991    3.6224 H   0  0  0  0  0  0  0  0  0  0  0  0
    5.4176   -2.5543    4.9010 H   0  0  0  0  0  0  0  0  0  0  0  0
    5.7518   -1.3519    3.6657 H   0  0  0  0  0  0  0  0  0  0  0  0
    5.9964    1.3453    6.0383 H   0  0  0  0  0  0  0  0  0  0  0  0
    6.1044    0.9388    4.3334 H   0  0  0  0  0  0  0  0  0  0  0  0
    4.0179    2.1156    4.8257 H   0  0  0  0  0  0  0  0  0  0  0  0
    3.5637    0.9216    6.0271 H   0  0  0  0  0  0  0  0  0  0  0  0
  1  2  1  0
  1 19  1  0
  1 20  1  0
  1 21  1  0
  2  3  1  0
  2 22  1  0
  2 23  1  0
  3  4  1  0
  3 24  1  0
  3 25  1  0
  4  9  1  0
  4  5  1  0
  5  6  2  0
  5  7  1  0
  7  8  1  0
  7 26  1  0
  7 27  1  0
  8 12  1  0
  8  9  1  0
  8 28  1  6
  9 10  1  0
  9 29  1  6
 10 11  1  0
 10 30  1  0
 10 31  1  0
 11 12  1  0
 11 32  1  0
 11 33  1  0
 12 13  1  0
 13 18  1  0
 13 14  1  0
 13 34  1  0
 14 15  1  0
 14 35  1  0
 14 36  1  0
 15 16  1  0
 15 37  1  0
 15 38  1  0
 16 17  1  0
 17 18  1  0
 17 39  1  0
 17 40  1  0
 18 41  1  0
 18 42  1  0
M  END
>  <i_m_ct_stereo_status>  (415) 
1

>  <s_m_source_file>  (415) 
/var/tmp/pbs.5076255.sched01/tmp0q3ly_rt/135fqi89qhj.sdf

>  <i_m_source_file_index>  (415) 
37

>  <i_lp_mmshare_version>  (415) 
48012

>  <i_f3d_flags>  (415) 
0

>  <s_epik_input>  (415) 
W0NIM11bQ0gyXVtDSDJdTihDKD1PKVtDSDJdMSlbQ0BASF0oW0NAQEhdMTIpW0NIMl1bQ0gyXU4yW0NIXTNbQ0gyXVtDSDJdT1tDSDJdW0NIMl0z

>  <s_epik_cmdline>  (415) 
J2VwaWtfcHl0aG9uJywgJy1waHQnLCAnMi4wJywgJy1waCcsICc3LjAnLCAnLXRuJywgJzgnLCAnLW1hJywgJzIwMCcsICctaW1hZScsICc8aW5maWxlLm1hZT4nLCAnLW9tYWUnLCAnPG91dGZpbGUubWFlPic=

>  <r_epik_Ionization_Penalty>  (415) 
1.98199

>  <r_epik_Ionization_Penalty_Charging>  (415) 
0

>  <r_epik_Ionization_Penalty_Neutral>  (415) 
1.98199

>  <r_epik_State_Penalty>  (415) 
2.10935

>  <r_epik_Charging_Adjusted_Penalty>  (415) 
2.10935

>  <i_epik_Tot_Q>  (415) 
0

>  <i_epik_Tot_abs_Q>  (415) 
0

>  <s_lp_Force_Field>  (415) 
OPLS3e

>  <r_lp_Energy>  (415) 
9.16379

>  <b_lp_Chiralities_Consistent>  (415) 
1

>  <s_lp_Variant>  (415) 
116:0-2

>  <s_i_glide_gridfile>  (415) 
pfpi4k_grid

>  <i_i_glide_lignum>  (415) 
37

>  <i_i_glide_rotatable_bonds>  (415) 
3

>  <r_i_docking_score>  (415) 
-2.74721

>  <r_i_glide_ligand_efficiency>  (415) 
-0.152623

>  <r_i_glide_ligand_efficiency_sa>  (415) 
-0.399985

>  <r_i_glide_ligand_efficiency_ln>  (415) 
-0.706157

>  <r_i_glide_gscore>  (415) 
-2.74721

>  <r_i_glide_lipo>  (415) 
-0.343816

>  <r_i_glide_hbond>  (415) 
0

>  <r_i_glide_metal>  (415) 
-0

>  <r_i_glide_rewards>  (415) 
-1.68851

>  <r_i_glide_evdw>  (415) 
-16.6106

>  <r_i_glide_ecoul>  (415) 
-2.41992

>  <r_i_glide_erotb>  (415) 
0.551075

>  <r_i_glide_esite>  (415) 
-0.0724497

>  <r_i_glide_emodel>  (415) 
-22.6735

>  <r_i_glide_energy>  (415) 
-19.0305

>  <r_i_glide_einternal>  (415) 
0.241694

>  <r_i_glide_intrahb_reward>  (415) 
-0

>  <i_i_glide_confnum>  (415) 
2

>  <i_i_glide_posenum>  (415) 
35

>  <r_i_glide_eff_state_penalty>  (415) 
0

>  <ligand_id>  (415) 
116

>  <original_smiles>  (415) 
CCCN1C(=O)CC2C1CCN2C1CCOCC1

>  <smiles>  (415) 
[H]C([H])([H])C([H])([H])C([H])([H])N1C(=O)C([H])([H])C2([H])N(C3([H])C([H])([H])C([H])([H])OC([H])([H])C3([H])[H])C([H])([H])C([H])([H])C12[H]

$$$$
118:0:0
     RDKit          3D

 65 70  0  0  1  0  0  0  0  0999 V2000
   -2.5112    2.7344    2.8716 C   0  0  0  0  0  0  0  0  0  0  0  0
   -1.4252    3.7229    3.3192 C   0  0  0  0  0  0  0  0  0  0  0  0
   -1.6803    4.8907    3.2859 O   0  0  0  0  0  0  0  0  0  0  0  0
   -0.1964    3.2679    3.7781 O   0  0  0  0  0  0  0  0  0  0  0  0
    0.3203    1.8945    3.8419 C   0  0  1  0  0  0  0  0  0  0  0  0
   -0.6652    0.9687    4.5720 C   0  0  0  0  0  0  0  0  0  0  0  0
   -0.8436    0.1600    3.3754 O   0  0  0  0  0  0  0  0  0  0  0  0
    0.0506    1.0277    2.5902 C   0  0  2  0  0  0  0  0  0  0  0  0
    1.1194    0.2130    1.8908 C   0  0  0  0  0  0  0  0  0  0  0  0
    2.5347    0.2369    2.4668 C   0  0  1  0  0  0  0  0  0  0  0  0
    2.5115    0.5502    3.9872 C   0  0  2  0  0  0  0  0  0  0  0  0
    2.0379   -0.7187    4.7482 C   0  0  0  0  0  0  0  0  0  0  0  0
    2.8890   -1.9489    4.4109 C   0  0  0  0  0  0  0  0  0  0  0  0
    2.9123   -2.2787    2.8965 C   0  0  1  0  0  0  0  0  0  0  0  0
    3.3834   -1.0280    2.0816 C   0  0  1  0  0  0  0  0  0  0  0  0
    3.2528   -1.2692    0.5634 C   0  0  0  0  0  0  0  0  0  0  0  0
    4.8662   -0.7591    2.3634 C   0  0  0  0  0  0  0  0  0  0  0  0
    5.8210   -1.9550    2.1273 C   0  0  2  0  0  0  0  0  0  0  0  0
    6.5166   -1.8087    0.9059 O   0  0  0  0  0  0  0  0  0  0  0  0
    6.6268   -2.9177    0.2164 C   0  0  0  0  0  0  0  0  0  0  0  0
    7.2771   -3.0496   -0.8149 O   0  0  0  0  0  0  0  0  0  0  0  0
    5.7945   -4.0221    0.8589 C   0  0  1  0  0  0  0  0  0  0  0  0
    6.6299   -5.3096    1.0510 C   0  0  0  0  0  0  0  0  0  0  0  0
    5.1923   -3.3722    2.1181 C   0  0  1  0  0  0  0  0  0  0  0  0
    5.6351   -4.0881    3.3079 O   0  0  0  0  0  0  0  0  0  0  0  0
    4.2824   -4.4937    3.6014 C   0  0  0  0  0  0  0  0  0  0  0  0
    3.7122   -3.5616    2.5033 C   0  0  1  0  0  0  0  0  0  0  0  0
    2.9381   -4.2413    1.5478 O   0  0  0  0  0  0  0  0  0  0  0  0
    1.7811    1.9239    4.2972 C   0  0  0  0  0  0  0  0  0  0  0  0
    2.5505    3.0493    3.5489 C   0  0  0  0  0  0  0  0  0  0  0  0
    1.8970    2.2356    5.8098 C   0  0  0  0  0  0  0  0  0  0  0  0
   -2.1555    2.0971    2.0678 H   0  0  0  0  0  0  0  0  0  0  0  0
   -3.3508    3.2193    2.4077 H   0  0  0  0  0  0  0  0  0  0  0  0
   -2.8534    2.1117    3.6695 H   0  0  0  0  0  0  0  0  0  0  0  0
   -0.2461    0.4156    5.4142 H   0  0  0  0  0  0  0  0  0  0  0  0
   -1.5707    1.3849    4.9817 H   0  0  0  0  0  0  0  0  0  0  0  0
   -0.4359    1.4992    1.7731 H   0  0  0  0  0  0  0  0  0  0  0  0
    0.7259   -0.7827    1.7011 H   0  0  0  0  0  0  0  0  0  0  0  0
    1.1990    0.6534    0.8823 H   0  0  0  0  0  0  0  0  0  0  0  0
    3.0551    1.0760    1.9811 H   0  0  0  0  0  0  0  0  0  0  0  0
    3.5310    0.7111    4.3098 H   0  0  0  0  0  0  0  0  0  0  0  0
    2.0613   -0.5537    5.8232 H   0  0  0  0  0  0  0  0  0  0  0  0
    1.0184   -0.9962    4.4985 H   0  0  0  0  0  0  0  0  0  0  0  0
    3.8993   -1.8134    4.8077 H   0  0  0  0  0  0  0  0  0  0  0  0
    2.4583   -2.7892    4.9581 H   0  0  0  0  0  0  0  0  0  0  0  0
    1.8658   -2.4534    2.6324 H   0  0  0  0  0  0  0  0  0  0  0  0
    3.9072   -2.0292    0.1538 H   0  0  0  0  0  0  0  0  0  0  0  0
    3.4256   -0.3594   -0.0179 H   0  0  0  0  0  0  0  0  0  0  0  0
    2.2591   -1.6434    0.3502 H   0  0  0  0  0  0  0  0  0  0  0  0
    5.2279    0.0956    1.8010 H   0  0  0  0  0  0  0  0  0  0  0  0
    5.0227   -0.4791    3.4002 H   0  0  0  0  0  0  0  0  0  0  0  0
    6.5474   -1.9001    2.8947 H   0  0  0  0  0  0  0  0  0  0  0  0
    4.9973   -4.2441    0.1471 H   0  0  0  0  0  0  0  0  0  0  0  0
    6.9736   -5.6895    0.0937 H   0  0  0  0  0  0  0  0  0  0  0  0
    6.0377   -6.0911    1.5172 H   0  0  0  0  0  0  0  0  0  0  0  0
    7.5056   -5.1271    1.6689 H   0  0  0  0  0  0  0  0  0  0  0  0
    4.1162   -5.5563    3.4031 H   0  0  0  0  0  0  0  0  0  0  0  0
    3.9780   -4.2820    4.6174 H   0  0  0  0  0  0  0  0  0  0  0  0
    3.4769   -4.9615    1.2215 H   0  0  0  0  0  0  0  0  0  0  0  0
    3.6300    2.9320    3.6482 H   0  0  0  0  0  0  0  0  0  0  0  0
    2.3046    4.0460    3.9200 H   0  0  0  0  0  0  0  0  0  0  0  0
    2.3178    3.0644    2.4827 H   0  0  0  0  0  0  0  0  0  0  0  0
    2.9436    2.2378    6.1282 H   0  0  0  0  0  0  0  0  0  0  0  0
    1.3797    1.5094    6.4334 H   0  0  0  0  0  0  0  0  0  0  0  0
    1.4799    3.2152    6.0537 H   0  0  0  0  0  0  0  0  0  0  0  0
  1  2  1  0
  1 32  1  0
  1 33  1  0
  1 34  1  0
  2  3  2  0
  2  4  1  0
  5  4  1  6
  5  8  1  0
  5 29  1  0
  5  6  1  0
  6  7  1  0
  6 35  1  0
  6 36  1  0
  7  8  1  0
  8  9  1  0
  8 37  1  6
  9 10  1  0
  9 38  1  0
  9 39  1  0
 10 15  1  0
 10 11  1  0
 10 40  1  6
 11 12  1  0
 11 29  1  0
 11 41  1  1
 12 13  1  0
 12 42  1  0
 12 43  1  0
 13 14  1  0
 13 44  1  0
 13 45  1  0
 14 27  1  0
 14 15  1  0
 14 46  1  6
 15 16  1  6
 15 17  1  0
 16 47  1  0
 16 48  1  0
 16 49  1  0
 17 18  1  0
 17 50  1  0
 17 51  1  0
 18 24  1  0
 18 19  1  0
 18 52  1  1
 19 20  1  0
 20 21  2  0
 20 22  1  0
 22 23  1  0
 22 24  1  0
 22 53  1  6
 23 54  1  0
 23 55  1  0
 23 56  1  0
 24 27  1  0
 24 25  1  1
 25 26  1  0
 26 27  1  0
 26 57  1  0
 26 58  1  0
 27 28  1  6
 28 59  1  0
 29 30  1  0
 29 31  1  0
 30 60  1  0
 30 61  1  0
 30 62  1  0
 31 63  1  0
 31 64  1  0
 31 65  1  0
M  END
>  <i_m_ct_stereo_status>  (416) 
1

>  <s_m_source_file>  (416) 
/var/tmp/pbs.5076255.sched01/tmp0q3ly_rt/135fqi89qhj.sdf

>  <i_m_source_file_index>  (416) 
39

>  <i_lp_mmshare_version>  (416) 
48012

>  <i_f3d_flags>  (416) 
0

>  <s_epik_input>  (416) 
TzFbQ0gyXVtDQEBdMihbT0hdKVtDQEhdM1tDSDJdW0NIMl1bQ0BIXShDKFtDSDNdKShbQ0gzXSlbQ0BAXTQoT0MoPU8pW0NIM10pW0NAQEhdKFtDSDJdNSlPW0NIMl00KVtDQEhdNVtDQEBdMyhbQ0gzXSlbQ0gyXVtDQEBIXShbQ0BAXTEyNilPQyg9TylbQ0BIXTZbQ0gzXQ==

>  <s_epik_cmdline>  (416) 
J2VwaWtfcHl0aG9uJywgJy1waHQnLCAnMi4wJywgJy1waCcsICc3LjAnLCAnLXRuJywgJzgnLCAnLW1hJywgJzIwMCcsICctaW1hZScsICc8aW5maWxlLm1hZT4nLCAnLW9tYWUnLCAnPG91dGZpbGUubWFlPic=

>  <r_lp_tautomer_probability>  (416) 
1

>  <r_epik_Ionization_Penalty>  (416) 
1.86248e-07

>  <r_epik_Ionization_Penalty_Charging>  (416) 
0

>  <r_epik_Ionization_Penalty_Neutral>  (416) 
1.86248e-07

>  <r_epik_State_Penalty>  (416) 
-0

>  <r_epik_Charging_Adjusted_Penalty>  (416) 
0

>  <i_epik_Tot_Q>  (416) 
0

>  <i_epik_Tot_abs_Q>  (416) 
0

>  <s_epik_Chemistry_Notes>  (416) 
This compound has an ester and may undergo hydrolysis at high or low pH.

>  <s_lp_Force_Field>  (416) 
OPLS3e

>  <r_lp_Energy>  (416) 
60.9456

>  <b_lp_Chiralities_Consistent>  (416) 
1

>  <s_lp_Variant>  (416) 
118:0-1

>  <s_i_glide_gridfile>  (416) 
pfpi4k_grid

>  <i_i_glide_lignum>  (416) 
39

>  <i_i_glide_rotatable_bonds>  (416) 
3

>  <r_i_docking_score>  (416) 
-2.93501

>  <r_i_glide_ligand_efficiency>  (416) 
-0.0946777

>  <r_i_glide_ligand_efficiency_sa>  (416) 
-0.297419

>  <r_i_glide_ligand_efficiency_ln>  (416) 
-0.661934

>  <r_i_glide_gscore>  (416) 
-2.93501

>  <r_i_glide_lipo>  (416) 
-0.407965

>  <r_i_glide_hbond>  (416) 
-0.16

>  <r_i_glide_metal>  (416) 
-0

>  <r_i_glide_rewards>  (416) 
-0.566067

>  <r_i_glide_evdw>  (416) 
-25.9356

>  <r_i_glide_ecoul>  (416) 
-3.43607

>  <r_i_glide_erotb>  (416) 
0.105484

>  <r_i_glide_esite>  (416) 
-0.0942689

>  <r_i_glide_emodel>  (416) 
-31.559

>  <r_i_glide_energy>  (416) 
-29.3717

>  <r_i_glide_einternal>  (416) 
4.91464

>  <r_i_glide_intrahb_reward>  (416) 
-0

>  <i_i_glide_confnum>  (416) 
1

>  <i_i_glide_posenum>  (416) 
1

>  <r_i_glide_eff_state_penalty>  (416) 
0

>  <ligand_id>  (416) 
118

>  <original_smiles>  (416) 
CC(=O)OC12COC1CC1C(CCC3C1(C)CC1OC(=O)C(C)C14OCC34O)C2(C)C

>  <smiles>  (416) 
[H]OC12C([H])([H])OC13C([H])(OC(=O)C3([H])C([H])([H])[H])C([H])([H])C1(C([H])([H])[H])C3([H])C([H])([H])C4([H])OC([H])([H])C4(OC(=O)C([H])([H])[H])C(C([H])([H])[H])(C([H])([H])[H])C3([H])C([H])([H])C([H])([H])C21[H]

$$$$
118:0:1
     RDKit          3D

 65 70  0  0  1  0  0  0  0  0999 V2000
   -3.6963    3.6525    2.4895 C   0  0  0  0  0  0  0  0  0  0  0  0
   -2.5274    3.4085    3.4472 C   0  0  0  0  0  0  0  0  0  0  0  0
   -1.9810    4.3656    4.0393 O   0  0  0  0  0  0  0  0  0  0  0  0
   -2.1851    2.1095    3.5636 O   0  0  0  0  0  0  0  0  0  0  0  0
   -1.1105    1.5957    4.3832 C   0  0  1  0  0  0  0  0  0  0  0  0
   -1.3581    1.9703    5.8584 C   0  0  0  0  0  0  0  0  0  0  0  0
   -1.5061    0.6003    6.2618 O   0  0  0  0  0  0  0  0  0  0  0  0
   -1.4799    0.1722    4.8819 C   0  0  2  0  0  0  0  0  0  0  0  0
   -0.5037   -1.0252    4.7680 C   0  0  0  0  0  0  0  0  0  0  0  0
    0.9070   -0.7573    4.1572 C   0  0  1  0  0  0  0  0  0  0  0  0
    1.3271    0.7333    4.3126 C   0  0  2  0  0  0  0  0  0  0  0  0
    1.7566    0.9744    5.7798 C   0  0  0  0  0  0  0  0  0  0  0  0
    2.8783    0.0290    6.2264 C   0  0  0  0  0  0  0  0  0  0  0  0
    2.4934   -1.4680    6.0676 C   0  0  1  0  0  0  0  0  0  0  0  0
    2.0361   -1.7637    4.6025 C   0  0  1  0  0  0  0  0  0  0  0  0
    1.4709   -3.2047    4.4615 C   0  0  0  0  0  0  0  0  0  0  0  0
    3.2782   -1.6497    3.6609 C   0  0  0  0  0  0  0  0  0  0  0  0
    4.5335   -2.4793    4.0270 C   0  0  2  0  0  0  0  0  0  0  0  0
    4.6293   -3.6332    3.2161 O   0  0  0  0  0  0  0  0  0  0  0  0
    4.9214   -4.7308    3.8782 C   0  0  0  0  0  0  0  0  0  0  0  0
    5.1418   -5.8351    3.3779 O   0  0  0  0  0  0  0  0  0  0  0  0
    4.9329   -4.4806    5.3733 C   0  0  1  0  0  0  0  0  0  0  0  0
    6.2520   -4.9628    6.0092 C   0  0  0  0  0  0  0  0  0  0  0  0
    4.6151   -2.9743    5.4867 C   0  0  1  0  0  0  0  0  0  0  0  0
    5.7096   -2.2898    6.1453 O   0  0  0  0  0  0  0  0  0  0  0  0
    4.8632   -1.9775    7.2661 C   0  0  0  0  0  0  0  0  0  0  0  0
    3.6088   -2.4510    6.5290 C   0  0  1  0  0  0  0  0  0  0  0  0
    2.9209   -3.4658    7.2568 O   0  0  0  0  0  0  0  0  0  0  0  0
    0.2713    1.7260    3.6926 C   0  0  0  0  0  0  0  0  0  0  0  0
    0.1238    1.3737    2.1873 C   0  0  0  0  0  0  0  0  0  0  0  0
    0.8442    3.1683    3.7521 C   0  0  0  0  0  0  0  0  0  0  0  0
   -3.5790    3.1167    1.5519 H   0  0  0  0  0  0  0  0  0  0  0  0
   -3.7999    4.7107    2.2648 H   0  0  0  0  0  0  0  0  0  0  0  0
   -4.6308    3.3329    2.9624 H   0  0  0  0  0  0  0  0  0  0  0  0
   -0.5047    2.4690    6.3289 H   0  0  0  0  0  0  0  0  0  0  0  0
   -2.2819    2.5243    6.0318 H   0  0  0  0  0  0  0  0  0  0  0  0
   -2.4943   -0.0726    4.5570 H   0  0  0  0  0  0  0  0  0  0  0  0
   -0.4205   -1.5248    5.7333 H   0  0  0  0  0  0  0  0  0  0  0  0
   -0.9800   -1.7715    4.1249 H   0  0  0  0  0  0  0  0  0  0  0  0
    0.7952   -0.9478    3.0917 H   0  0  0  0  0  0  0  0  0  0  0  0
    2.2222    0.8968    3.7209 H   0  0  0  0  0  0  0  0  0  0  0  0
    2.0929    1.9987    5.9210 H   0  0  0  0  0  0  0  0  0  0  0  0
    0.9413    0.8110    6.4779 H   0  0  0  0  0  0  0  0  0  0  0  0
    3.7885    0.2609    5.6767 H   0  0  0  0  0  0  0  0  0  0  0  0
    3.0861    0.2517    7.2741 H   0  0  0  0  0  0  0  0  0  0  0  0
    1.6281   -1.5963    6.7198 H   0  0  0  0  0  0  0  0  0  0  0  0
    2.2365   -3.9643    4.6074 H   0  0  0  0  0  0  0  0  0  0  0  0
    1.0583   -3.3640    3.4648 H   0  0  0  0  0  0  0  0  0  0  0  0
    0.6964   -3.4162    5.1954 H   0  0  0  0  0  0  0  0  0  0  0  0
    2.9982   -1.8634    2.6345 H   0  0  0  0  0  0  0  0  0  0  0  0
    3.6241   -0.6182    3.6410 H   0  0  0  0  0  0  0  0  0  0  0  0
    5.4179   -1.8943    3.7900 H   0  0  0  0  0  0  0  0  0  0  0  0
    4.1185   -5.0880    5.7759 H   0  0  0  0  0  0  0  0  0  0  0  0
    6.3700   -6.0402    5.8671 H   0  0  0  0  0  0  0  0  0  0  0  0
    6.2716   -4.7735    7.0818 H   0  0  0  0  0  0  0  0  0  0  0  0
    7.1291   -4.4879    5.5635 H   0  0  0  0  0  0  0  0  0  0  0  0
    5.1200   -2.5817    8.1401 H   0  0  0  0  0  0  0  0  0  0  0  0
    4.9129   -0.9195    7.5219 H   0  0  0  0  0  0  0  0  0  0  0  0
    3.5719   -4.0943    7.4944 H   0  0  0  0  0  0  0  0  0  0  0  0
    1.0908    1.2324    1.7042 H   0  0  0  0  0  0  0  0  0  0  0  0
   -0.3910    2.1612    1.6418 H   0  0  0  0  0  0  0  0  0  0  0  0
   -0.4659    0.4739    2.0220 H   0  0  0  0  0  0  0  0  0  0  0  0
    1.8693    3.1995    3.3585 H   0  0  0  0  0  0  0  0  0  0  0  0
    0.8742    3.5355    4.7799 H   0  0  0  0  0  0  0  0  0  0  0  0
    0.2488    3.8607    3.1694 H   0  0  0  0  0  0  0  0  0  0  0  0
  1  2  1  0
  1 32  1  0
  1 33  1  0
  1 34  1  0
  2  3  2  0
  2  4  1  0
  5  4  1  6
  5  8  1  0
  5 29  1  0
  5  6  1  0
  6  7  1  0
  6 35  1  0
  6 36  1  0
  7  8  1  0
  8  9  1  0
  8 37  1  6
  9 10  1  0
  9 38  1  0
  9 39  1  0
 10 15  1  0
 10 11  1  0
 10 40  1  6
 11 12  1  0
 11 29  1  0
 11 41  1  6
 12 13  1  0
 12 42  1  0
 12 43  1  0
 13 14  1  0
 13 44  1  0
 13 45  1  0
 14 27  1  0
 14 15  1  0
 14 46  1  1
 15 16  1  1
 15 17  1  0
 16 47  1  0
 16 48  1  0
 16 49  1  0
 17 18  1  0
 17 50  1  0
 17 51  1  0
 18 24  1  0
 18 19  1  0
 18 52  1  6
 19 20  1  0
 20 21  2  0
 20 22  1  0
 22 23  1  0
 22 24  1  0
 22 53  1  1
 23 54  1  0
 23 55  1  0
 23 56  1  0
 24 27  1  0
 24 25  1  1
 25 26  1  0
 26 27  1  0
 26 57  1  0
 26 58  1  0
 27 28  1  1
 28 59  1  0
 29 30  1  0
 29 31  1  0
 30 60  1  0
 30 61  1  0
 30 62  1  0
 31 63  1  0
 31 64  1  0
 31 65  1  0
M  END
>  <i_m_ct_stereo_status>  (417) 
1

>  <s_m_source_file>  (417) 
/var/tmp/pbs.5076255.sched01/tmp0q3ly_rt/135fqi89qhj.sdf

>  <i_m_source_file_index>  (417) 
39

>  <i_lp_mmshare_version>  (417) 
48012

>  <i_f3d_flags>  (417) 
0

>  <s_epik_input>  (417) 
TzFbQ0gyXVtDQEBdMihbT0hdKVtDQEhdM1tDSDJdW0NIMl1bQ0BIXShDKFtDSDNdKShbQ0gzXSlbQ0BAXTQoT0MoPU8pW0NIM10pW0NAQEhdKFtDSDJdNSlPW0NIMl00KVtDQEhdNVtDQEBdMyhbQ0gzXSlbQ0gyXVtDQEBIXShbQ0BAXTEyNilPQyg9TylbQ0BIXTZbQ0gzXQ==

>  <s_epik_cmdline>  (417) 
J2VwaWtfcHl0aG9uJywgJy1waHQnLCAnMi4wJywgJy1waCcsICc3LjAnLCAnLXRuJywgJzgnLCAnLW1hJywgJzIwMCcsICctaW1hZScsICc8aW5maWxlLm1hZT4nLCAnLW9tYWUnLCAnPG91dGZpbGUubWFlPic=

>  <r_lp_tautomer_probability>  (417) 
1

>  <r_epik_Ionization_Penalty>  (417) 
1.86248e-07

>  <r_epik_Ionization_Penalty_Charging>  (417) 
0

>  <r_epik_Ionization_Penalty_Neutral>  (417) 
1.86248e-07

>  <r_epik_State_Penalty>  (417) 
-0

>  <r_epik_Charging_Adjusted_Penalty>  (417) 
0

>  <i_epik_Tot_Q>  (417) 
0

>  <i_epik_Tot_abs_Q>  (417) 
0

>  <s_epik_Chemistry_Notes>  (417) 
This compound has an ester and may undergo hydrolysis at high or low pH.

>  <s_lp_Force_Field>  (417) 
OPLS3e

>  <r_lp_Energy>  (417) 
60.9456

>  <b_lp_Chiralities_Consistent>  (417) 
1

>  <s_lp_Variant>  (417) 
118:0-1

>  <s_i_glide_gridfile>  (417) 
pfpi4k_grid

>  <i_i_glide_lignum>  (417) 
39

>  <i_i_glide_rotatable_bonds>  (417) 
3

>  <r_i_docking_score>  (417) 
-2.82202

>  <r_i_glide_ligand_efficiency>  (417) 
-0.091033

>  <r_i_glide_ligand_efficiency_sa>  (417) 
-0.285969

>  <r_i_glide_ligand_efficiency_ln>  (417) 
-0.636453

>  <r_i_glide_gscore>  (417) 
-2.82202

>  <r_i_glide_lipo>  (417) 
-0.263425

>  <r_i_glide_hbond>  (417) 
-0.207863

>  <r_i_glide_metal>  (417) 
-0

>  <r_i_glide_rewards>  (417) 
-0.450993

>  <r_i_glide_evdw>  (417) 
-24.8369

>  <r_i_glide_ecoul>  (417) 
-4.71031

>  <r_i_glide_erotb>  (417) 
0.105484

>  <r_i_glide_esite>  (417) 
-0.0568368

>  <r_i_glide_emodel>  (417) 
-34.8024

>  <r_i_glide_energy>  (417) 
-29.5472

>  <r_i_glide_einternal>  (417) 
0.301915

>  <r_i_glide_intrahb_reward>  (417) 
-0

>  <i_i_glide_confnum>  (417) 
2

>  <i_i_glide_posenum>  (417) 
22

>  <r_i_glide_eff_state_penalty>  (417) 
0

>  <ligand_id>  (417) 
118

>  <original_smiles>  (417) 
CC(=O)OC12COC1CC1C(CCC3C1(C)CC1OC(=O)C(C)C14OCC34O)C2(C)C

>  <smiles>  (417) 
[H]OC12C([H])([H])OC13C([H])(OC(=O)C3([H])C([H])([H])[H])C([H])([H])C1(C([H])([H])[H])C3([H])C([H])([H])C4([H])OC([H])([H])C4(OC(=O)C([H])([H])[H])C(C([H])([H])[H])(C([H])([H])[H])C3([H])C([H])([H])C([H])([H])C21[H]

$$$$
118:0:2
     RDKit          3D

 65 70  0  0  1  0  0  0  0  0999 V2000
    3.9932   -7.7720    4.6713 C   0  0  0  0  0  0  0  0  0  0  0  0
    3.8975   -6.4957    3.8424 C   0  0  0  0  0  0  0  0  0  0  0  0
    3.7950   -6.5493    2.6180 O   0  0  0  0  0  0  0  0  0  0  0  0
    3.9429   -5.3719    4.6170 O   0  0  0  0  0  0  0  0  0  0  0  0
    3.8742   -3.9932    4.1674 C   0  0  1  0  0  0  0  0  0  0  0  0
    4.8903   -3.7145    3.0490 C   0  0  0  0  0  0  0  0  0  0  0  0
    3.8489   -3.2763    2.1454 O   0  0  0  0  0  0  0  0  0  0  0  0
    2.8197   -3.6789    3.0873 C   0  0  2  0  0  0  0  0  0  0  0  0
    1.8037   -2.5305    3.2379 C   0  0  0  0  0  0  0  0  0  0  0  0
    1.9192   -1.6148    4.4962 C   0  0  1  0  0  0  0  0  0  0  0  0
    3.3535   -1.6258    5.0959 C   0  0  2  0  0  0  0  0  0  0  0  0
    4.2651   -0.7347    4.2130 C   0  0  0  0  0  0  0  0  0  0  0  0
    3.7129    0.6882    4.0556 C   0  0  0  0  0  0  0  0  0  0  0  0
    2.2823    0.7250    3.4618 C   0  0  1  0  0  0  0  0  0  0  0  0
    1.3232   -0.1626    4.3225 C   0  0  1  0  0  0  0  0  0  0  0  0
   -0.0693   -0.2940    3.6619 C   0  0  0  0  0  0  0  0  0  0  0  0
    1.1191    0.5277    5.7065 C   0  0  0  0  0  0  0  0  0  0  0  0
    0.6495    2.0052    5.6889 C   0  0  2  0  0  0  0  0  0  0  0  0
   -0.7359    2.0826    5.9700 O   0  0  0  0  0  0  0  0  0  0  0  0
   -1.3977    2.9182    5.1854 C   0  0  0  0  0  0  0  0  0  0  0  0
   -2.5750    3.2469    5.3057 O   0  0  0  0  0  0  0  0  0  0  0  0
   -0.4903    3.4278    4.0793 C   0  0  1  0  0  0  0  0  0  0  0  0
   -0.5087    4.9623    4.0194 C   0  0  0  0  0  0  0  0  0  0  0  0
    0.8702    2.7830    4.3774 C   0  0  1  0  0  0  0  0  0  0  0  0
    1.8775    3.8016    4.6148 O   0  0  0  0  0  0  0  0  0  0  0  0
    2.5831    3.4104    3.4154 C   0  0  0  0  0  0  0  0  0  0  0  0
    1.7104    2.1646    3.2407 C   0  0  1  0  0  0  0  0  0  0  0  0
    1.0626    2.1245    1.9832 O   0  0  0  0  0  0  0  0  0  0  0  0
    3.8431   -3.0854    5.4286 C   0  0  0  0  0  0  0  0  0  0  0  0
    2.8611   -3.6850    6.4755 C   0  0  0  0  0  0  0  0  0  0  0  0
    5.2267   -3.0347    6.1171 C   0  0  0  0  0  0  0  0  0  0  0  0
    4.8666   -7.7402    5.3222 H   0  0  0  0  0  0  0  0  0  0  0  0
    4.0825   -8.6470    4.0249 H   0  0  0  0  0  0  0  0  0  0  0  0
    3.1031   -7.8963    5.2880 H   0  0  0  0  0  0  0  0  0  0  0  0
    5.6073   -2.9302    3.2753 H   0  0  0  0  0  0  0  0  0  0  0  0
    5.4163   -4.5834    2.6568 H   0  0  0  0  0  0  0  0  0  0  0  0
    2.3260   -4.5727    2.7132 H   0  0  0  0  0  0  0  0  0  0  0  0
    1.8035   -1.9369    2.3240 H   0  0  0  0  0  0  0  0  0  0  0  0
    0.8083   -2.9787    3.2709 H   0  0  0  0  0  0  0  0  0  0  0  0
    1.2697   -2.0672    5.2431 H   0  0  0  0  0  0  0  0  0  0  0  0
    3.3287   -1.1254    6.0624 H   0  0  0  0  0  0  0  0  0  0  0  0
    5.2719   -0.6782    4.6261 H   0  0  0  0  0  0  0  0  0  0  0  0
    4.3612   -1.1294    3.2067 H   0  0  0  0  0  0  0  0  0  0  0  0
    3.7630    1.2130    5.0088 H   0  0  0  0  0  0  0  0  0  0  0  0
    4.3899    1.2082    3.3855 H   0  0  0  0  0  0  0  0  0  0  0  0
    2.3822    0.2464    2.4845 H   0  0  0  0  0  0  0  0  0  0  0  0
   -0.6190    0.6424    3.6191 H   0  0  0  0  0  0  0  0  0  0  0  0
   -0.6981   -1.0079    4.1951 H   0  0  0  0  0  0  0  0  0  0  0  0
    0.0185   -0.6242    2.6279 H   0  0  0  0  0  0  0  0  0  0  0  0
    0.4406   -0.0618    6.3221 H   0  0  0  0  0  0  0  0  0  0  0  0
    2.0568    0.5324    6.2562 H   0  0  0  0  0  0  0  0  0  0  0  0
    1.1336    2.5239    6.5165 H   0  0  0  0  0  0  0  0  0  0  0  0
   -0.9058    3.0513    3.1455 H   0  0  0  0  0  0  0  0  0  0  0  0
   -1.5123    5.2984    3.7734 H   0  0  0  0  0  0  0  0  0  0  0  0
    0.1461    5.3475    3.2345 H   0  0  0  0  0  0  0  0  0  0  0  0
   -0.2197    5.4232    4.9690 H   0  0  0  0  0  0  0  0  0  0  0  0
    2.4558    4.1430    2.6155 H   0  0  0  0  0  0  0  0  0  0  0  0
    3.6363    3.2496    3.6097 H   0  0  0  0  0  0  0  0  0  0  0  0
    0.7819    3.0126    1.7464 H   0  0  0  0  0  0  0  0  0  0  0  0
    2.6200   -2.9665    7.2607 H   0  0  0  0  0  0  0  0  0  0  0  0
    3.2715   -4.5677    6.9676 H   0  0  0  0  0  0  0  0  0  0  0  0
    1.9242   -4.0024    6.0160 H   0  0  0  0  0  0  0  0  0  0  0  0
    5.1951   -2.4010    7.0055 H   0  0  0  0  0  0  0  0  0  0  0  0
    6.0077   -2.6432    5.4690 H   0  0  0  0  0  0  0  0  0  0  0  0
    5.5499   -4.0262    6.4380 H   0  0  0  0  0  0  0  0  0  0  0  0
  1  2  1  0
  1 32  1  0
  1 33  1  0
  1 34  1  0
  2  3  2  0
  2  4  1  0
  5  4  1  1
  5  8  1  0
  5 29  1  0
  5  6  1  0
  6  7  1  0
  6 35  1  0
  6 36  1  0
  7  8  1  0
  8  9  1  0
  8 37  1  6
  9 10  1  0
  9 38  1  0
  9 39  1  0
 10 15  1  0
 10 11  1  0
 10 40  1  1
 11 12  1  0
 11 29  1  0
 11 41  1  1
 12 13  1  0
 12 42  1  0
 12 43  1  0
 13 14  1  0
 13 44  1  0
 13 45  1  0
 14 27  1  0
 14 15  1  0
 14 46  1  6
 15 16  1  6
 15 17  1  0
 16 47  1  0
 16 48  1  0
 16 49  1  0
 17 18  1  0
 17 50  1  0
 17 51  1  0
 18 24  1  0
 18 19  1  0
 18 52  1  1
 19 20  1  0
 20 21  2  0
 20 22  1  0
 22 23  1  0
 22 24  1  0
 22 53  1  6
 23 54  1  0
 23 55  1  0
 23 56  1  0
 24 27  1  0
 24 25  1  1
 25 26  1  0
 26 27  1  0
 26 57  1  0
 26 58  1  0
 27 28  1  6
 28 59  1  0
 29 30  1  0
 29 31  1  0
 30 60  1  0
 30 61  1  0
 30 62  1  0
 31 63  1  0
 31 64  1  0
 31 65  1  0
M  END
>  <i_m_ct_stereo_status>  (418) 
1

>  <s_m_source_file>  (418) 
/var/tmp/pbs.5076255.sched01/tmp0q3ly_rt/135fqi89qhj.sdf

>  <i_m_source_file_index>  (418) 
39

>  <i_lp_mmshare_version>  (418) 
48012

>  <i_f3d_flags>  (418) 
0

>  <s_epik_input>  (418) 
TzFbQ0gyXVtDQEBdMihbT0hdKVtDQEhdM1tDSDJdW0NIMl1bQ0BIXShDKFtDSDNdKShbQ0gzXSlbQ0BAXTQoT0MoPU8pW0NIM10pW0NAQEhdKFtDSDJdNSlPW0NIMl00KVtDQEhdNVtDQEBdMyhbQ0gzXSlbQ0gyXVtDQEBIXShbQ0BAXTEyNilPQyg9TylbQ0BIXTZbQ0gzXQ==

>  <s_epik_cmdline>  (418) 
J2VwaWtfcHl0aG9uJywgJy1waHQnLCAnMi4wJywgJy1waCcsICc3LjAnLCAnLXRuJywgJzgnLCAnLW1hJywgJzIwMCcsICctaW1hZScsICc8aW5maWxlLm1hZT4nLCAnLW9tYWUnLCAnPG91dGZpbGUubWFlPic=

>  <r_lp_tautomer_probability>  (418) 
1

>  <r_epik_Ionization_Penalty>  (418) 
1.86248e-07

>  <r_epik_Ionization_Penalty_Charging>  (418) 
0

>  <r_epik_Ionization_Penalty_Neutral>  (418) 
1.86248e-07

>  <r_epik_State_Penalty>  (418) 
-0

>  <r_epik_Charging_Adjusted_Penalty>  (418) 
0

>  <i_epik_Tot_Q>  (418) 
0

>  <i_epik_Tot_abs_Q>  (418) 
0

>  <s_epik_Chemistry_Notes>  (418) 
This compound has an ester and may undergo hydrolysis at high or low pH.

>  <s_lp_Force_Field>  (418) 
OPLS3e

>  <r_lp_Energy>  (418) 
60.9456

>  <b_lp_Chiralities_Consistent>  (418) 
1

>  <s_lp_Variant>  (418) 
118:0-1

>  <s_i_glide_gridfile>  (418) 
pfpi4k_grid

>  <i_i_glide_lignum>  (418) 
39

>  <i_i_glide_rotatable_bonds>  (418) 
3

>  <r_i_docking_score>  (418) 
-2.19368

>  <r_i_glide_ligand_efficiency>  (418) 
-0.0707637

>  <r_i_glide_ligand_efficiency_sa>  (418) 
-0.222296

>  <r_i_glide_ligand_efficiency_ln>  (418) 
-0.494741

>  <r_i_glide_gscore>  (418) 
-2.19368

>  <r_i_glide_lipo>  (418) 
-0.0672322

>  <r_i_glide_hbond>  (418) 
0

>  <r_i_glide_metal>  (418) 
-0

>  <r_i_glide_rewards>  (418) 
-0.446437

>  <r_i_glide_evdw>  (418) 
-21.37

>  <r_i_glide_ecoul>  (418) 
-4.74465

>  <r_i_glide_erotb>  (418) 
0.105484

>  <r_i_glide_esite>  (418) 
-0.00529239

>  <r_i_glide_emodel>  (418) 
-29.9552

>  <r_i_glide_energy>  (418) 
-26.1147

>  <r_i_glide_einternal>  (418) 
0.550019

>  <r_i_glide_intrahb_reward>  (418) 
-0

>  <i_i_glide_confnum>  (418) 
1

>  <i_i_glide_posenum>  (418) 
2

>  <r_i_glide_eff_state_penalty>  (418) 
0

>  <ligand_id>  (418) 
118

>  <original_smiles>  (418) 
CC(=O)OC12COC1CC1C(CCC3C1(C)CC1OC(=O)C(C)C14OCC34O)C2(C)C

>  <smiles>  (418) 
[H]OC12C([H])([H])OC13C([H])(OC(=O)C3([H])C([H])([H])[H])C([H])([H])C1(C([H])([H])[H])C3([H])C([H])([H])C4([H])OC([H])([H])C4(OC(=O)C([H])([H])[H])C(C([H])([H])[H])(C([H])([H])[H])C3([H])C([H])([H])C([H])([H])C21[H]

$$$$
119:0:0
     RDKit          3D

 33 36  0  0  1  0  0  0  0  0999 V2000
   -0.1561   -7.1426    1.1648 C   0  0  0  0  0  0  0  0  0  0  0  0
    1.2949   -6.7762    1.2061 C   0  0  0  0  0  0  0  0  0  0  0  0
    1.7353   -5.7358    0.3909 N   0  0  0  0  0  0  0  0  0  0  0  0
    3.0473   -5.6368    0.5785 C   0  0  0  0  0  0  0  0  0  0  0  0
    4.1188   -4.8305    0.0928 C   0  0  0  0  0  0  0  0  0  0  0  0
    3.8892   -3.7892   -0.8152 N   0  0  0  0  0  0  0  0  0  0  0  0
    2.6196   -3.4376   -1.4203 C   0  0  0  0  0  0  0  0  0  0  0  0
    3.0583   -2.3717   -2.4374 C   0  0  1  0  0  0  0  0  0  0  0  0
    4.2081   -1.6876   -1.7201 C   0  0  0  0  0  0  0  0  0  0  0  0
    4.9035   -3.0221   -1.5143 C   0  0  2  0  0  0  0  0  0  0  0  0
    4.9812   -3.5030   -2.9666 C   0  0  0  0  0  0  0  0  0  0  0  0
    3.7449   -3.0320   -3.4997 O   0  0  0  0  0  0  0  0  0  0  0  0
    5.3831   -5.0006    0.5355 N   0  0  0  0  0  0  0  0  0  0  0  0
    5.5855   -5.9688    1.4637 C   0  0  0  0  0  0  0  0  0  0  0  0
    4.6694   -6.8076    2.0077 N   0  0  0  0  0  0  0  0  0  0  0  0
    3.4468   -6.5920    1.5282 N   0  0  0  0  0  0  0  0  0  0  0  0
    2.3279   -7.3195    1.9284 C   0  0  0  0  0  0  0  0  0  0  0  0
    2.3610   -8.4334    2.9280 C   0  0  0  0  0  0  0  0  0  0  0  0
   -0.4153   -7.9507    1.8457 H   0  0  0  0  0  0  0  0  0  0  0  0
   -0.4441   -7.4460    0.1603 H   0  0  0  0  0  0  0  0  0  0  0  0
   -0.7617   -6.2757    1.4079 H   0  0  0  0  0  0  0  0  0  0  0  0
    2.0763   -4.2572   -1.8808 H   0  0  0  0  0  0  0  0  0  0  0  0
    1.9951   -2.9978   -0.6469 H   0  0  0  0  0  0  0  0  0  0  0  0
    2.2596   -1.7242   -2.7818 H   0  0  0  0  0  0  0  0  0  0  0  0
    4.7588   -0.9857   -2.3549 H   0  0  0  0  0  0  0  0  0  0  0  0
    3.9088   -1.2122   -0.7796 H   0  0  0  0  0  0  0  0  0  0  0  0
    5.8593   -2.9660   -0.9983 H   0  0  0  0  0  0  0  0  0  0  0  0
    5.8024   -3.0188   -3.4907 H   0  0  0  0  0  0  0  0  0  0  0  0
    5.0818   -4.5807   -3.0620 H   0  0  0  0  0  0  0  0  0  0  0  0
    6.6000   -6.0774    1.8085 H   0  0  0  0  0  0  0  0  0  0  0  0
    1.3700   -8.8599    3.0696 H   0  0  0  0  0  0  0  0  0  0  0  0
    2.7089   -8.0731    3.8932 H   0  0  0  0  0  0  0  0  0  0  0  0
    3.0232   -9.2316    2.5992 H   0  0  0  0  0  0  0  0  0  0  0  0
  1  2  1  0
  1 19  1  0
  1 20  1  0
  1 21  1  0
  2 17  2  0
  2  3  1  0
  3  4  2  0
  4 16  1  0
  4  5  1  0
  5  6  1  0
  5 13  2  0
  6 10  1  0
  6  7  1  0
  7  8  1  0
  7 22  1  0
  7 23  1  0
  8 12  1  0
  8  9  1  0
  8 24  1  6
  9 10  1  0
  9 25  1  0
  9 26  1  0
 10 11  1  0
 10 27  1  1
 11 12  1  0
 11 28  1  0
 11 29  1  0
 13 14  1  0
 14 15  2  0
 14 30  1  0
 15 16  1  0
 16 17  1  0
 17 18  1  0
 18 31  1  0
 18 32  1  0
 18 33  1  0
M  END
>  <i_m_ct_stereo_status>  (419) 
1

>  <s_m_source_file>  (419) 
/var/tmp/pbs.5076255.sched01/tmp0q3ly_rt/135fqi89qhj.sdf

>  <i_m_source_file_index>  (419) 
40

>  <i_lp_mmshare_version>  (419) 
48012

>  <i_f3d_flags>  (419) 
0

>  <s_epik_input>  (419) 
W0NIM11jKG4xKWMoW0NIM10pbihjMTIpbltjSF1uYzJOKFtDSDJdW0NAQEhdMzQpW0NASF0oW0NIMl0zKVtDSDJdTzQ=

>  <s_epik_cmdline>  (419) 
J2VwaWtfcHl0aG9uJywgJy1waHQnLCAnMi4wJywgJy1waCcsICc3LjAnLCAnLXRuJywgJzgnLCAnLW1hJywgJzIwMCcsICctaW1hZScsICc8aW5maWxlLm1hZT4nLCAnLW9tYWUnLCAnPG91dGZpbGUubWFlPic=

>  <r_epik_Ionization_Penalty>  (419) 
0.0326289

>  <r_epik_Ionization_Penalty_Charging>  (419) 
1.4655e-05

>  <r_epik_Ionization_Penalty_Neutral>  (419) 
0.0326142

>  <r_epik_State_Penalty>  (419) 
0.0267811

>  <r_epik_Charging_Adjusted_Penalty>  (419) 
0.0267958

>  <i_epik_Tot_Q>  (419) 
0

>  <i_epik_Tot_abs_Q>  (419) 
0

>  <s_lp_Force_Field>  (419) 
OPLS3e

>  <r_lp_Energy>  (419) 
18.9475

>  <b_lp_Chiralities_Consistent>  (419) 
1

>  <s_lp_Variant>  (419) 
119:0-1

>  <s_i_glide_gridfile>  (419) 
pfpi4k_grid

>  <i_i_glide_lignum>  (419) 
40

>  <i_i_glide_rotatable_bonds>  (419) 
1

>  <r_i_docking_score>  (419) 
-3.45338

>  <r_i_glide_ligand_efficiency>  (419) 
-0.191854

>  <r_i_glide_ligand_efficiency_sa>  (419) 
-0.502801

>  <r_i_glide_ligand_efficiency_ln>  (419) 
-0.887673

>  <r_i_glide_gscore>  (419) 
-3.45338

>  <r_i_glide_lipo>  (419) 
-0.257117

>  <r_i_glide_hbond>  (419) 
-0.0988084

>  <r_i_glide_metal>  (419) 
-0

>  <r_i_glide_rewards>  (419) 
-1.91027

>  <r_i_glide_evdw>  (419) 
-22.1182

>  <r_i_glide_ecoul>  (419) 
-2.25862

>  <r_i_glide_erotb>  (419) 
0.289289

>  <r_i_glide_esite>  (419) 
-0.0317631

>  <r_i_glide_emodel>  (419) 
-29.7671

>  <r_i_glide_energy>  (419) 
-24.3768

>  <r_i_glide_einternal>  (419) 
0.108211

>  <r_i_glide_intrahb_reward>  (419) 
-0

>  <i_i_glide_confnum>  (419) 
2

>  <i_i_glide_posenum>  (419) 
17

>  <r_i_glide_eff_state_penalty>  (419) 
0

>  <ligand_id>  (419) 
119

>  <original_smiles>  (419) 
Cc1nc2c(N3CC4CC3CO4)ncnn2c1C

>  <smiles>  (419) 
[H]c1nc(N2C([H])([H])C3([H])OC([H])([H])C2([H])C3([H])[H])c2nc(C([H])([H])[H])c(C([H])([H])[H])n2n1

$$$$
119:0:1
     RDKit          3D

 33 36  0  0  1  0  0  0  0  0999 V2000
    2.9562   -3.6213    0.3482 C   0  0  0  0  0  0  0  0  0  0  0  0
    3.0964   -5.0461    0.7845 C   0  0  0  0  0  0  0  0  0  0  0  0
    1.9597   -5.7288    1.2196 N   0  0  0  0  0  0  0  0  0  0  0  0
    2.3742   -6.9502    1.5561 C   0  0  0  0  0  0  0  0  0  0  0  0
    1.7816   -8.1260    2.0851 C   0  0  0  0  0  0  0  0  0  0  0  0
    0.4148   -8.1881    2.3710 N   0  0  0  0  0  0  0  0  0  0  0  0
   -0.6136   -7.3135    1.8531 C   0  0  0  0  0  0  0  0  0  0  0  0
   -1.8456   -7.8391    2.6061 C   0  0  1  0  0  0  0  0  0  0  0  0
   -1.5749   -9.3289    2.6540 C   0  0  0  0  0  0  0  0  0  0  0  0
   -0.2272   -9.0909    3.3068 C   0  0  2  0  0  0  0  0  0  0  0  0
   -0.6650   -8.2686    4.5251 C   0  0  0  0  0  0  0  0  0  0  0  0
   -1.7113   -7.4548    3.9759 O   0  0  0  0  0  0  0  0  0  0  0  0
    2.5145   -9.2376    2.3259 N   0  0  0  0  0  0  0  0  0  0  0  0
    3.8307   -9.1817    2.0200 C   0  0  0  0  0  0  0  0  0  0  0  0
    4.5295   -8.1300    1.5196 N   0  0  0  0  0  0  0  0  0  0  0  0
    3.7486   -7.0609    1.3217 N   0  0  0  0  0  0  0  0  0  0  0  0
    4.2165   -5.8441    0.8383 C   0  0  0  0  0  0  0  0  0  0  0  0
    5.6442   -5.5699    0.4806 C   0  0  0  0  0  0  0  0  0  0  0  0
    3.8916   -3.1840   -0.0006 H   0  0  0  0  0  0  0  0  0  0  0  0
    2.5822   -3.0064    1.1658 H   0  0  0  0  0  0  0  0  0  0  0  0
    2.2317   -3.5438   -0.4605 H   0  0  0  0  0  0  0  0  0  0  0  0
   -0.4305   -6.2585    2.0463 H   0  0  0  0  0  0  0  0  0  0  0  0
   -0.7117   -7.4785    0.7804 H   0  0  0  0  0  0  0  0  0  0  0  0
   -2.8019   -7.5538    2.1846 H   0  0  0  0  0  0  0  0  0  0  0  0
   -2.2926   -9.8591    3.2794 H   0  0  0  0  0  0  0  0  0  0  0  0
   -1.5027   -9.7993    1.6709 H   0  0  0  0  0  0  0  0  0  0  0  0
    0.3376   -9.9941    3.5374 H   0  0  0  0  0  0  0  0  0  0  0  0
   -1.0580   -8.9172    5.3075 H   0  0  0  0  0  0  0  0  0  0  0  0
    0.1415   -7.6651    4.9408 H   0  0  0  0  0  0  0  0  0  0  0  0
    4.3887  -10.0860    2.2074 H   0  0  0  0  0  0  0  0  0  0  0  0
    5.7819   -4.5542    0.1122 H   0  0  0  0  0  0  0  0  0  0  0  0
    5.9663   -6.2331   -0.3145 H   0  0  0  0  0  0  0  0  0  0  0  0
    6.3083   -5.7198    1.3329 H   0  0  0  0  0  0  0  0  0  0  0  0
  1  2  1  0
  1 19  1  0
  1 20  1  0
  1 21  1  0
  2 17  2  0
  2  3  1  0
  3  4  2  0
  4 16  1  0
  4  5  1  0
  5  6  1  0
  5 13  2  0
  6 10  1  0
  6  7  1  0
  7  8  1  0
  7 22  1  0
  7 23  1  0
  8 12  1  0
  8  9  1  0
  8 24  1  6
  9 10  1  0
  9 25  1  0
  9 26  1  0
 10 11  1  0
 10 27  1  1
 11 12  1  0
 11 28  1  0
 11 29  1  0
 13 14  1  0
 14 15  2  0
 14 30  1  0
 15 16  1  0
 16 17  1  0
 17 18  1  0
 18 31  1  0
 18 32  1  0
 18 33  1  0
M  END
>  <i_m_ct_stereo_status>  (420) 
1

>  <s_m_source_file>  (420) 
/var/tmp/pbs.5076255.sched01/tmp0q3ly_rt/135fqi89qhj.sdf

>  <i_m_source_file_index>  (420) 
40

>  <i_lp_mmshare_version>  (420) 
48012

>  <i_f3d_flags>  (420) 
0

>  <s_epik_input>  (420) 
W0NIM11jKG4xKWMoW0NIM10pbihjMTIpbltjSF1uYzJOKFtDSDJdW0NAQEhdMzQpW0NASF0oW0NIMl0zKVtDSDJdTzQ=

>  <s_epik_cmdline>  (420) 
J2VwaWtfcHl0aG9uJywgJy1waHQnLCAnMi4wJywgJy1waCcsICc3LjAnLCAnLXRuJywgJzgnLCAnLW1hJywgJzIwMCcsICctaW1hZScsICc8aW5maWxlLm1hZT4nLCAnLW9tYWUnLCAnPG91dGZpbGUubWFlPic=

>  <r_epik_Ionization_Penalty>  (420) 
0.0326289

>  <r_epik_Ionization_Penalty_Charging>  (420) 
1.4655e-05

>  <r_epik_Ionization_Penalty_Neutral>  (420) 
0.0326142

>  <r_epik_State_Penalty>  (420) 
0.0267811

>  <r_epik_Charging_Adjusted_Penalty>  (420) 
0.0267958

>  <i_epik_Tot_Q>  (420) 
0

>  <i_epik_Tot_abs_Q>  (420) 
0

>  <s_lp_Force_Field>  (420) 
OPLS3e

>  <r_lp_Energy>  (420) 
18.9475

>  <b_lp_Chiralities_Consistent>  (420) 
1

>  <s_lp_Variant>  (420) 
119:0-1

>  <s_i_glide_gridfile>  (420) 
pfpi4k_grid

>  <i_i_glide_lignum>  (420) 
40

>  <i_i_glide_rotatable_bonds>  (420) 
1

>  <r_i_docking_score>  (420) 
-3.2599

>  <r_i_glide_ligand_efficiency>  (420) 
-0.181106

>  <r_i_glide_ligand_efficiency_sa>  (420) 
-0.474631

>  <r_i_glide_ligand_efficiency_ln>  (420) 
-0.837941

>  <r_i_glide_gscore>  (420) 
-3.2599

>  <r_i_glide_lipo>  (420) 
-0.310637

>  <r_i_glide_hbond>  (420) 
-0.0240459

>  <r_i_glide_metal>  (420) 
-0

>  <r_i_glide_rewards>  (420) 
-1.84294

>  <r_i_glide_evdw>  (420) 
-22.4517

>  <r_i_glide_ecoul>  (420) 
-1.0613

>  <r_i_glide_erotb>  (420) 
0.289289

>  <r_i_glide_esite>  (420) 
-0.089785

>  <r_i_glide_emodel>  (420) 
-27.9888

>  <r_i_glide_energy>  (420) 
-23.513

>  <r_i_glide_einternal>  (420) 
1.19254

>  <r_i_glide_intrahb_reward>  (420) 
-0

>  <i_i_glide_confnum>  (420) 
2

>  <i_i_glide_posenum>  (420) 
9

>  <r_i_glide_eff_state_penalty>  (420) 
0

>  <ligand_id>  (420) 
119

>  <original_smiles>  (420) 
Cc1nc2c(N3CC4CC3CO4)ncnn2c1C

>  <smiles>  (420) 
[H]c1nc(N2C([H])([H])C3([H])OC([H])([H])C2([H])C3([H])[H])c2nc(C([H])([H])[H])c(C([H])([H])[H])n2n1

$$$$
119:0:2
     RDKit          3D

 33 36  0  0  1  0  0  0  0  0999 V2000
    2.4204    1.1733    2.6074 C   0  0  0  0  0  0  0  0  0  0  0  0
    2.5556   -0.2782    2.2673 C   0  0  0  0  0  0  0  0  0  0  0  0
    3.0869   -0.6135    1.0240 N   0  0  0  0  0  0  0  0  0  0  0  0
    3.0468   -1.9509    0.9422 C   0  0  0  0  0  0  0  0  0  0  0  0
    3.3854   -2.9360   -0.0145 C   0  0  0  0  0  0  0  0  0  0  0  0
    3.9336   -2.5941   -1.2510 N   0  0  0  0  0  0  0  0  0  0  0  0
    3.9684   -1.2656   -1.8238 C   0  0  0  0  0  0  0  0  0  0  0  0
    4.5025   -1.5671   -3.2257 C   0  0  1  0  0  0  0  0  0  0  0  0
    5.4367   -2.7349   -2.9857 C   0  0  0  0  0  0  0  0  0  0  0  0
    4.3301   -3.5011   -2.2993 C   0  0  2  0  0  0  0  0  0  0  0  0
    3.2839   -3.4839   -3.4059 C   0  0  0  0  0  0  0  0  0  0  0  0
    3.4674   -2.1906   -3.9623 O   0  0  0  0  0  0  0  0  0  0  0  0
    3.2585   -4.2623    0.2795 N   0  0  0  0  0  0  0  0  0  0  0  0
    2.7987   -4.5731    1.5107 C   0  0  0  0  0  0  0  0  0  0  0  0
    2.4170   -3.7298    2.5046 N   0  0  0  0  0  0  0  0  0  0  0  0
    2.5653   -2.4505    2.1527 N   0  0  0  0  0  0  0  0  0  0  0  0
    2.2461   -1.3992    3.0049 C   0  0  0  0  0  0  0  0  0  0  0  0
    1.7042   -1.5542    4.3883 C   0  0  0  0  0  0  0  0  0  0  0  0
    2.0508    1.3453    3.6172 H   0  0  0  0  0  0  0  0  0  0  0  0
    1.7461    1.6663    1.9062 H   0  0  0  0  0  0  0  0  0  0  0  0
    3.3862    1.6661    2.5108 H   0  0  0  0  0  0  0  0  0  0  0  0
    3.0086   -0.7481   -1.8283 H   0  0  0  0  0  0  0  0  0  0  0  0
    4.6873   -0.6754   -1.2695 H   0  0  0  0  0  0  0  0  0  0  0  0
    4.9009   -0.7128   -3.7461 H   0  0  0  0  0  0  0  0  0  0  0  0
    5.7919   -3.2289   -3.8929 H   0  0  0  0  0  0  0  0  0  0  0  0
    6.2662   -2.4891   -2.3192 H   0  0  0  0  0  0  0  0  0  0  0  0
    4.6181   -4.4846   -1.9530 H   0  0  0  0  0  0  0  0  0  0  0  0
    3.5182   -4.2134   -4.1743 H   0  0  0  0  0  0  0  0  0  0  0  0
    2.2697   -3.6484   -3.0575 H   0  0  0  0  0  0  0  0  0  0  0  0
    2.7060   -5.6302    1.7139 H   0  0  0  0  0  0  0  0  0  0  0  0
    1.5330   -0.5843    4.8509 H   0  0  0  0  0  0  0  0  0  0  0  0
    2.4048   -2.1034    5.0144 H   0  0  0  0  0  0  0  0  0  0  0  0
    0.7595   -2.0933    4.3741 H   0  0  0  0  0  0  0  0  0  0  0  0
  1  2  1  0
  1 19  1  0
  1 20  1  0
  1 21  1  0
  2 17  2  0
  2  3  1  0
  3  4  2  0
  4 16  1  0
  4  5  1  0
  5  6  1  0
  5 13  2  0
  6 10  1  0
  6  7  1  0
  7  8  1  0
  7 22  1  0
  7 23  1  0
  8 12  1  0
  8  9  1  0
  8 24  1  6
  9 10  1  0
  9 25  1  0
  9 26  1  0
 10 11  1  0
 10 27  1  1
 11 12  1  0
 11 28  1  0
 11 29  1  0
 13 14  1  0
 14 15  2  0
 14 30  1  0
 15 16  1  0
 16 17  1  0
 17 18  1  0
 18 31  1  0
 18 32  1  0
 18 33  1  0
M  END
>  <i_m_ct_stereo_status>  (421) 
1

>  <s_m_source_file>  (421) 
/var/tmp/pbs.5076255.sched01/tmp0q3ly_rt/135fqi89qhj.sdf

>  <i_m_source_file_index>  (421) 
40

>  <i_lp_mmshare_version>  (421) 
48012

>  <i_f3d_flags>  (421) 
0

>  <s_epik_input>  (421) 
W0NIM11jKG4xKWMoW0NIM10pbihjMTIpbltjSF1uYzJOKFtDSDJdW0NAQEhdMzQpW0NASF0oW0NIMl0zKVtDSDJdTzQ=

>  <s_epik_cmdline>  (421) 
J2VwaWtfcHl0aG9uJywgJy1waHQnLCAnMi4wJywgJy1waCcsICc3LjAnLCAnLXRuJywgJzgnLCAnLW1hJywgJzIwMCcsICctaW1hZScsICc8aW5maWxlLm1hZT4nLCAnLW9tYWUnLCAnPG91dGZpbGUubWFlPic=

>  <r_epik_Ionization_Penalty>  (421) 
0.0326289

>  <r_epik_Ionization_Penalty_Charging>  (421) 
1.4655e-05

>  <r_epik_Ionization_Penalty_Neutral>  (421) 
0.0326142

>  <r_epik_State_Penalty>  (421) 
0.0267811

>  <r_epik_Charging_Adjusted_Penalty>  (421) 
0.0267958

>  <i_epik_Tot_Q>  (421) 
0

>  <i_epik_Tot_abs_Q>  (421) 
0

>  <s_lp_Force_Field>  (421) 
OPLS3e

>  <r_lp_Energy>  (421) 
18.9475

>  <b_lp_Chiralities_Consistent>  (421) 
1

>  <s_lp_Variant>  (421) 
119:0-1

>  <s_i_glide_gridfile>  (421) 
pfpi4k_grid

>  <i_i_glide_lignum>  (421) 
40

>  <i_i_glide_rotatable_bonds>  (421) 
1

>  <r_i_docking_score>  (421) 
-3.05068

>  <r_i_glide_ligand_efficiency>  (421) 
-0.169482

>  <r_i_glide_ligand_efficiency_sa>  (421) 
-0.44417

>  <r_i_glide_ligand_efficiency_ln>  (421) 
-0.784163

>  <r_i_glide_gscore>  (421) 
-3.05068

>  <r_i_glide_lipo>  (421) 
-0.289515

>  <r_i_glide_hbond>  (421) 
-0.100843

>  <r_i_glide_metal>  (421) 
-0

>  <r_i_glide_rewards>  (421) 
-1.73672

>  <r_i_glide_evdw>  (421) 
-20.9298

>  <r_i_glide_ecoul>  (421) 
-0.495089

>  <r_i_glide_erotb>  (421) 
0.289289

>  <r_i_glide_esite>  (421) 
-0.0921384

>  <r_i_glide_emodel>  (421) 
-26.1331

>  <r_i_glide_energy>  (421) 
-21.4248

>  <r_i_glide_einternal>  (421) 
0.0140193

>  <r_i_glide_intrahb_reward>  (421) 
-0

>  <i_i_glide_confnum>  (421) 
1

>  <i_i_glide_posenum>  (421) 
6

>  <r_i_glide_eff_state_penalty>  (421) 
0

>  <ligand_id>  (421) 
119

>  <original_smiles>  (421) 
Cc1nc2c(N3CC4CC3CO4)ncnn2c1C

>  <smiles>  (421) 
[H]c1nc(N2C([H])([H])C3([H])OC([H])([H])C2([H])C3([H])[H])c2nc(C([H])([H])[H])c(C([H])([H])[H])n2n1

$$$$
119:1:0
     RDKit          3D

 34 37  0  0  1  0  0  0  0  0999 V2000
    0.3393   -1.1837    3.8443 C   0  0  0  0  0  0  0  0  0  0  0  0
    0.2171    0.3057    3.9816 C   0  0  0  0  0  0  0  0  0  0  0  0
   -0.1393    0.8167    5.2353 N   0  0  0  0  0  0  0  0  0  0  0  0
   -0.1795    2.1340    5.1073 C   0  0  0  0  0  0  0  0  0  0  0  0
   -0.4817    3.2730    5.9095 C   0  0  0  0  0  0  0  0  0  0  0  0
   -0.7963    3.1121    7.2629 N   0  0  0  0  0  0  0  0  0  0  0  0
   -0.8315    1.8733    7.9999 C   0  0  0  0  0  0  0  0  0  0  0  0
   -1.3793    2.3538    9.3460 C   0  0  1  0  0  0  0  0  0  0  0  0
   -0.7696    3.7271    9.4912 C   0  0  0  0  0  0  0  0  0  0  0  0
   -1.3180    4.1282    8.1435 C   0  0  2  0  0  0  0  0  0  0  0  0
   -2.7989    3.8525    8.3641 C   0  0  0  0  0  0  0  0  0  0  0  0
   -2.7433    2.6605    9.1296 O   0  0  0  0  0  0  0  0  0  0  0  0
   -0.4376    4.5303    5.4108 N   0  0  0  0  0  0  0  0  0  0  0  0
   -0.0624    4.7279    4.1109 C   0  0  0  0  0  0  0  0  0  0  0  0
    0.2211    3.6893    3.2784 N   0  0  0  0  0  0  0  0  0  0  0  0
    0.1598    2.4706    3.7957 N   0  0  0  0  0  0  0  0  0  0  0  0
    0.4034    1.3131    3.0641 C   0  0  0  0  0  0  0  0  0  0  0  0
    0.7840    1.2527    1.6118 C   0  0  0  0  0  0  0  0  0  0  0  0
    0.6295   -1.5172    2.8470 H   0  0  0  0  0  0  0  0  0  0  0  0
   -0.6057   -1.6577    4.1037 H   0  0  0  0  0  0  0  0  0  0  0  0
    1.0672   -1.5648    4.5598 H   0  0  0  0  0  0  0  0  0  0  0  0
   -1.4377    1.0931    7.5456 H   0  0  0  0  0  0  0  0  0  0  0  0
    0.1853    1.5089    8.1144 H   0  0  0  0  0  0  0  0  0  0  0  0
   -1.2296    1.6693   10.1715 H   0  0  0  0  0  0  0  0  0  0  0  0
   -1.1783    4.2953   10.3311 H   0  0  0  0  0  0  0  0  0  0  0  0
    0.3215    3.7070    9.5097 H   0  0  0  0  0  0  0  0  0  0  0  0
   -1.0914    5.1389    7.8438 H   0  0  0  0  0  0  0  0  0  0  0  0
   -3.2694    4.6412    8.9445 H   0  0  0  0  0  0  0  0  0  0  0  0
   -3.3642    3.6962    7.4501 H   0  0  0  0  0  0  0  0  0  0  0  0
   -0.0303    5.7267    3.6911 H   0  0  0  0  0  0  0  0  0  0  0  0
    0.9292    0.2176    1.3011 H   0  0  0  0  0  0  0  0  0  0  0  0
    1.7189    1.7771    1.4193 H   0  0  0  0  0  0  0  0  0  0  0  0
    0.0099    1.6702    0.9680 H   0  0  0  0  0  0  0  0  0  0  0  0
    0.4175    3.8672    2.2739 H   0  0  0  0  0  0  0  0  0  0  0  0
  1  2  1  0
  1 19  1  0
  1 20  1  0
  1 21  1  0
  2 17  2  0
  2  3  1  0
  3  4  2  0
  4 16  1  0
  4  5  1  0
  5  6  1  0
  5 13  2  0
  6 10  1  0
  6  7  1  0
  7  8  1  0
  7 22  1  0
  7 23  1  0
  8 12  1  0
  8  9  1  0
  8 24  1  1
  9 10  1  0
  9 25  1  0
  9 26  1  0
 10 11  1  0
 10 27  1  6
 11 12  1  0
 11 28  1  0
 11 29  1  0
 13 14  1  0
 14 15  2  0
 14 30  1  0
 15 16  1  0
 15 34  1  0
 16 17  1  0
 17 18  1  0
 18 31  1  0
 18 32  1  0
 18 33  1  0
M  CHG  1  15   1
M  END
>  <i_m_ct_stereo_status>  (422) 
1

>  <s_m_source_file>  (422) 
/var/tmp/pbs.5076255.sched01/tmp0q3ly_rt/135fqi89qhj.sdf

>  <i_m_source_file_index>  (422) 
41

>  <i_lp_mmshare_version>  (422) 
48012

>  <i_f3d_flags>  (422) 
0

>  <s_epik_input>  (422) 
W0NIM11jKG4xKWMoW0NIM10pbihjMTIpbltjSF1uYzJOKFtDSDJdW0NAQEhdMzQpW0NASF0oW0NIMl0zKVtDSDJdTzQ=

>  <s_epik_cmdline>  (422) 
J2VwaWtfcHl0aG9uJywgJy1waHQnLCAnMi4wJywgJy1waCcsICc3LjAnLCAnLXRuJywgJzgnLCAnLW1hJywgJzIwMCcsICctaW1hZScsICc8aW5maWxlLm1hZT4nLCAnLW9tYWUnLCAnPG91dGZpbGUubWFlPic=

>  <r_epik_Ionization_Penalty>  (422) 
1.73911

>  <r_epik_Ionization_Penalty_Charging>  (422) 
1.73911

>  <r_epik_Ionization_Penalty_Neutral>  (422) 
3.33484e-10

>  <r_epik_State_Penalty>  (422) 
1.84805

>  <r_epik_Charging_Adjusted_Penalty>  (422) 
3.58716

>  <i_epik_Tot_Q>  (422) 
1

>  <i_epik_Tot_abs_Q>  (422) 
1

>  <s_lp_Force_Field>  (422) 
OPLS3e

>  <r_lp_Energy>  (422) 
23.2821

>  <b_lp_Chiralities_Consistent>  (422) 
1

>  <s_lp_Variant>  (422) 
119:0-2

>  <s_i_glide_gridfile>  (422) 
pfpi4k_grid

>  <i_i_glide_lignum>  (422) 
41

>  <i_i_glide_rotatable_bonds>  (422) 
1

>  <r_i_docking_score>  (422) 
-4.08672

>  <r_i_glide_ligand_efficiency>  (422) 
-0.22704

>  <r_i_glide_ligand_efficiency_sa>  (422) 
-0.595012

>  <r_i_glide_ligand_efficiency_ln>  (422) 
-1.05047

>  <r_i_glide_gscore>  (422) 
-4.08672

>  <r_i_glide_lipo>  (422) 
-0.106274

>  <r_i_glide_hbond>  (422) 
-0.2

>  <r_i_glide_metal>  (422) 
-0

>  <r_i_glide_rewards>  (422) 
-1.72985

>  <r_i_glide_evdw>  (422) 
-14.8588

>  <r_i_glide_ecoul>  (422) 
-9.07355

>  <r_i_glide_erotb>  (422) 
0.287266

>  <r_i_glide_esite>  (422) 
-0.233886

>  <r_i_glide_emodel>  (422) 
-32.3338

>  <r_i_glide_energy>  (422) 
-23.9323

>  <r_i_glide_einternal>  (422) 
0.225108

>  <r_i_glide_intrahb_reward>  (422) 
-0

>  <i_i_glide_confnum>  (422) 
3

>  <i_i_glide_posenum>  (422) 
2

>  <r_i_glide_eff_state_penalty>  (422) 
0

>  <ligand_id>  (422) 
119

>  <original_smiles>  (422) 
Cc1nc2c(N3CC4CC3CO4)ncnn2c1C

>  <smiles>  (422) 
[H]c1nc(N2C([H])([H])C3([H])OC([H])([H])C2([H])C3([H])[H])c2nc(C([H])([H])[H])c(C([H])([H])[H])n2[n+]1[H]

$$$$
119:1:1
     RDKit          3D

 34 37  0  0  1  0  0  0  0  0999 V2000
   -0.1014   -0.9716    4.0695 C   0  0  0  0  0  0  0  0  0  0  0  0
   -0.1147    0.5239    4.1284 C   0  0  0  0  0  0  0  0  0  0  0  0
   -0.5070    1.1211    5.3275 N   0  0  0  0  0  0  0  0  0  0  0  0
   -0.4358    2.4308    5.1435 C   0  0  0  0  0  0  0  0  0  0  0  0
   -0.6919    3.6173    5.8828 C   0  0  0  0  0  0  0  0  0  0  0  0
   -1.1901    3.5459    7.1773 N   0  0  0  0  0  0  0  0  0  0  0  0
   -1.1297    4.5905    8.1767 C   0  0  0  0  0  0  0  0  0  0  0  0
   -1.7279    3.8600    9.3916 C   0  0  1  0  0  0  0  0  0  0  0  0
   -2.7660    2.9538    8.7718 C   0  0  0  0  0  0  0  0  0  0  0  0
   -1.7176    2.3746    7.8509 C   0  0  2  0  0  0  0  0  0  0  0  0
   -0.7006    1.8762    8.8731 C   0  0  0  0  0  0  0  0  0  0  0  0
   -0.7585    2.9224    9.8295 O   0  0  0  0  0  0  0  0  0  0  0  0
   -0.4947    4.8461    5.3399 N   0  0  0  0  0  0  0  0  0  0  0  0
   -0.0442    4.9565    4.0542 C   0  0  0  0  0  0  0  0  0  0  0  0
    0.2030    3.8583    3.2854 N   0  0  0  0  0  0  0  0  0  0  0  0
    0.0044    2.6723    3.8467 N   0  0  0  0  0  0  0  0  0  0  0  0
    0.2091    1.4682    3.1760 C   0  0  0  0  0  0  0  0  0  0  0  0
    0.6790    1.3088    1.7607 C   0  0  0  0  0  0  0  0  0  0  0  0
    0.2323   -1.3744    3.1141 H   0  0  0  0  0  0  0  0  0  0  0  0
   -1.0964   -1.3615    4.2809 H   0  0  0  0  0  0  0  0  0  0  0  0
    0.5476   -1.3697    4.8483 H   0  0  0  0  0  0  0  0  0  0  0  0
   -0.1254    4.9792    8.3531 H   0  0  0  0  0  0  0  0  0  0  0  0
   -1.7803    5.4009    7.8601 H   0  0  0  0  0  0  0  0  0  0  0  0
   -2.0765    4.5126   10.1832 H   0  0  0  0  0  0  0  0  0  0  0  0
   -3.1947    2.2382    9.4801 H   0  0  0  0  0  0  0  0  0  0  0  0
   -3.5457    3.4938    8.2285 H   0  0  0  0  0  0  0  0  0  0  0  0
   -2.1064    1.6081    7.1953 H   0  0  0  0  0  0  0  0  0  0  0  0
   -1.0181    0.9466    9.3393 H   0  0  0  0  0  0  0  0  0  0  0  0
    0.3012    1.7416    8.4748 H   0  0  0  0  0  0  0  0  0  0  0  0
    0.0877    5.9291    3.5930 H   0  0  0  0  0  0  0  0  0  0  0  0
    0.7624    0.2552    1.4987 H   0  0  0  0  0  0  0  0  0  0  0  0
    1.6625    1.7521    1.6165 H   0  0  0  0  0  0  0  0  0  0  0  0
   -0.0188    1.7461    1.0490 H   0  0  0  0  0  0  0  0  0  0  0  0
    0.4641    3.9793    2.2894 H   0  0  0  0  0  0  0  0  0  0  0  0
  1  2  1  0
  1 19  1  0
  1 20  1  0
  1 21  1  0
  2 17  2  0
  2  3  1  0
  3  4  2  0
  4 16  1  0
  4  5  1  0
  5  6  1  0
  5 13  2  0
  6 10  1  0
  6  7  1  0
  7  8  1  0
  7 22  1  0
  7 23  1  0
  8 12  1  0
  8  9  1  0
  8 24  1  1
  9 10  1  0
  9 25  1  0
  9 26  1  0
 10 11  1  0
 10 27  1  6
 11 12  1  0
 11 28  1  0
 11 29  1  0
 13 14  1  0
 14 15  2  0
 14 30  1  0
 15 16  1  0
 15 34  1  0
 16 17  1  0
 17 18  1  0
 18 31  1  0
 18 32  1  0
 18 33  1  0
M  CHG  1  15   1
M  END
>  <i_m_ct_stereo_status>  (423) 
1

>  <s_m_source_file>  (423) 
/var/tmp/pbs.5076255.sched01/tmp0q3ly_rt/135fqi89qhj.sdf

>  <i_m_source_file_index>  (423) 
41

>  <i_lp_mmshare_version>  (423) 
48012

>  <i_f3d_flags>  (423) 
0

>  <s_epik_input>  (423) 
W0NIM11jKG4xKWMoW0NIM10pbihjMTIpbltjSF1uYzJOKFtDSDJdW0NAQEhdMzQpW0NASF0oW0NIMl0zKVtDSDJdTzQ=

>  <s_epik_cmdline>  (423) 
J2VwaWtfcHl0aG9uJywgJy1waHQnLCAnMi4wJywgJy1waCcsICc3LjAnLCAnLXRuJywgJzgnLCAnLW1hJywgJzIwMCcsICctaW1hZScsICc8aW5maWxlLm1hZT4nLCAnLW9tYWUnLCAnPG91dGZpbGUubWFlPic=

>  <r_epik_Ionization_Penalty>  (423) 
1.73911

>  <r_epik_Ionization_Penalty_Charging>  (423) 
1.73911

>  <r_epik_Ionization_Penalty_Neutral>  (423) 
3.33484e-10

>  <r_epik_State_Penalty>  (423) 
1.84805

>  <r_epik_Charging_Adjusted_Penalty>  (423) 
3.58716

>  <i_epik_Tot_Q>  (423) 
1

>  <i_epik_Tot_abs_Q>  (423) 
1

>  <s_lp_Force_Field>  (423) 
OPLS3e

>  <r_lp_Energy>  (423) 
23.2821

>  <b_lp_Chiralities_Consistent>  (423) 
1

>  <s_lp_Variant>  (423) 
119:0-2

>  <s_i_glide_gridfile>  (423) 
pfpi4k_grid

>  <i_i_glide_lignum>  (423) 
41

>  <i_i_glide_rotatable_bonds>  (423) 
1

>  <r_i_docking_score>  (423) 
-4.00648

>  <r_i_glide_ligand_efficiency>  (423) 
-0.222582

>  <r_i_glide_ligand_efficiency_sa>  (423) 
-0.58333

>  <r_i_glide_ligand_efficiency_ln>  (423) 
-1.02984

>  <r_i_glide_gscore>  (423) 
-4.00648

>  <r_i_glide_lipo>  (423) 
-0.00168077

>  <r_i_glide_hbond>  (423) 
-0.2

>  <r_i_glide_metal>  (423) 
-0

>  <r_i_glide_rewards>  (423) 
-1.75384

>  <r_i_glide_evdw>  (423) 
-14.9541

>  <r_i_glide_ecoul>  (423) 
-8.98223

>  <r_i_glide_erotb>  (423) 
0.287266

>  <r_i_glide_esite>  (423) 
-0.243183

>  <r_i_glide_emodel>  (423) 
-31.802

>  <r_i_glide_energy>  (423) 
-23.9363

>  <r_i_glide_einternal>  (423) 
0.649113

>  <r_i_glide_intrahb_reward>  (423) 
-0

>  <i_i_glide_confnum>  (423) 
2

>  <i_i_glide_posenum>  (423) 
34

>  <r_i_glide_eff_state_penalty>  (423) 
0

>  <ligand_id>  (423) 
119

>  <original_smiles>  (423) 
Cc1nc2c(N3CC4CC3CO4)ncnn2c1C

>  <smiles>  (423) 
[H]c1nc(N2C([H])([H])C3([H])OC([H])([H])C2([H])C3([H])[H])c2nc(C([H])([H])[H])c(C([H])([H])[H])n2[n+]1[H]

$$$$
119:1:2
     RDKit          3D

 34 37  0  0  1  0  0  0  0  0999 V2000
    3.4392    5.1994    5.5448 C   0  0  0  0  0  0  0  0  0  0  0  0
    2.2269    4.5064    5.0111 C   0  0  0  0  0  0  0  0  0  0  0  0
    1.1826    4.2440    5.8976 N   0  0  0  0  0  0  0  0  0  0  0  0
    0.2505    3.6093    5.1993 C   0  0  0  0  0  0  0  0  0  0  0  0
   -1.0321    3.0591    5.4540 C   0  0  0  0  0  0  0  0  0  0  0  0
   -1.5766    3.0714    6.7476 N   0  0  0  0  0  0  0  0  0  0  0  0
   -2.9468    2.7654    7.1019 C   0  0  0  0  0  0  0  0  0  0  0  0
   -2.9215    3.0446    8.6230 C   0  0  1  0  0  0  0  0  0  0  0  0
   -1.5344    2.5611    9.0143 C   0  0  0  0  0  0  0  0  0  0  0  0
   -0.9042    3.4680    7.9757 C   0  0  2  0  0  0  0  0  0  0  0  0
   -1.4659    4.8205    8.4303 C   0  0  0  0  0  0  0  0  0  0  0  0
   -2.8066    4.4635    8.8023 O   0  0  0  0  0  0  0  0  0  0  0  0
   -1.7620    2.4789    4.4685 N   0  0  0  0  0  0  0  0  0  0  0  0
   -1.2464    2.4044    3.2068 C   0  0  0  0  0  0  0  0  0  0  0  0
   -0.0190    2.9095    2.8980 N   0  0  0  0  0  0  0  0  0  0  0  0
    0.6698    3.4795    3.8837 N   0  0  0  0  0  0  0  0  0  0  0  0
    1.9305    4.0512    3.7453 C   0  0  0  0  0  0  0  0  0  0  0  0
    2.7242    4.1107    2.4769 C   0  0  0  0  0  0  0  0  0  0  0  0
    4.2086    5.3843    4.7929 H   0  0  0  0  0  0  0  0  0  0  0  0
    3.8886    4.6164    6.3482 H   0  0  0  0  0  0  0  0  0  0  0  0
    3.1631    6.1560    5.9857 H   0  0  0  0  0  0  0  0  0  0  0  0
   -3.6815    3.3638    6.5621 H   0  0  0  0  0  0  0  0  0  0  0  0
   -3.1388    1.7107    6.9019 H   0  0  0  0  0  0  0  0  0  0  0  0
   -3.7436    2.6027    9.1806 H   0  0  0  0  0  0  0  0  0  0  0  0
   -1.2604    2.8071   10.0455 H   0  0  0  0  0  0  0  0  0  0  0  0
   -1.3541    1.5014    8.8053 H   0  0  0  0  0  0  0  0  0  0  0  0
    0.1819    3.4093    7.9704 H   0  0  0  0  0  0  0  0  0  0  0  0
   -0.9231    5.2007    9.2970 H   0  0  0  0  0  0  0  0  0  0  0  0
   -1.4354    5.5777    7.6482 H   0  0  0  0  0  0  0  0  0  0  0  0
   -1.8128    1.9435    2.4066 H   0  0  0  0  0  0  0  0  0  0  0  0
    3.6783    4.6033    2.6390 H   0  0  0  0  0  0  0  0  0  0  0  0
    2.2112    4.6778    1.7006 H   0  0  0  0  0  0  0  0  0  0  0  0
    2.9325    3.1125    2.0951 H   0  0  0  0  0  0  0  0  0  0  0  0
    0.3306    2.8945    1.9342 H   0  0  0  0  0  0  0  0  0  0  0  0
  1  2  1  0
  1 19  1  0
  1 20  1  0
  1 21  1  0
  2 17  2  0
  2  3  1  0
  3  4  2  0
  4 16  1  0
  4  5  1  0
  5  6  1  0
  5 13  2  0
  6 10  1  0
  6  7  1  0
  7  8  1  0
  7 22  1  0
  7 23  1  0
  8 12  1  0
  8  9  1  0
  8 24  1  1
  9 10  1  0
  9 25  1  0
  9 26  1  0
 10 11  1  0
 10 27  1  6
 11 12  1  0
 11 28  1  0
 11 29  1  0
 13 14  1  0
 14 15  2  0
 14 30  1  0
 15 16  1  0
 15 34  1  0
 16 17  1  0
 17 18  1  0
 18 31  1  0
 18 32  1  0
 18 33  1  0
M  CHG  1  15   1
M  END
>  <i_m_ct_stereo_status>  (424) 
1

>  <s_m_source_file>  (424) 
/var/tmp/pbs.5076255.sched01/tmp0q3ly_rt/135fqi89qhj.sdf

>  <i_m_source_file_index>  (424) 
41

>  <i_lp_mmshare_version>  (424) 
48012

>  <i_f3d_flags>  (424) 
0

>  <s_epik_input>  (424) 
W0NIM11jKG4xKWMoW0NIM10pbihjMTIpbltjSF1uYzJOKFtDSDJdW0NAQEhdMzQpW0NASF0oW0NIMl0zKVtDSDJdTzQ=

>  <s_epik_cmdline>  (424) 
J2VwaWtfcHl0aG9uJywgJy1waHQnLCAnMi4wJywgJy1waCcsICc3LjAnLCAnLXRuJywgJzgnLCAnLW1hJywgJzIwMCcsICctaW1hZScsICc8aW5maWxlLm1hZT4nLCAnLW9tYWUnLCAnPG91dGZpbGUubWFlPic=

>  <r_epik_Ionization_Penalty>  (424) 
1.73911

>  <r_epik_Ionization_Penalty_Charging>  (424) 
1.73911

>  <r_epik_Ionization_Penalty_Neutral>  (424) 
3.33484e-10

>  <r_epik_State_Penalty>  (424) 
1.84805

>  <r_epik_Charging_Adjusted_Penalty>  (424) 
3.58716

>  <i_epik_Tot_Q>  (424) 
1

>  <i_epik_Tot_abs_Q>  (424) 
1

>  <s_lp_Force_Field>  (424) 
OPLS3e

>  <r_lp_Energy>  (424) 
23.2821

>  <b_lp_Chiralities_Consistent>  (424) 
1

>  <s_lp_Variant>  (424) 
119:0-2

>  <s_i_glide_gridfile>  (424) 
pfpi4k_grid

>  <i_i_glide_lignum>  (424) 
41

>  <i_i_glide_rotatable_bonds>  (424) 
1

>  <r_i_docking_score>  (424) 
-3.82923

>  <r_i_glide_ligand_efficiency>  (424) 
-0.212735

>  <r_i_glide_ligand_efficiency_sa>  (424) 
-0.557524

>  <r_i_glide_ligand_efficiency_ln>  (424) 
-0.984284

>  <r_i_glide_gscore>  (424) 
-3.82923

>  <r_i_glide_lipo>  (424) 
-0.240627

>  <r_i_glide_hbond>  (424) 
-0.0925005

>  <r_i_glide_metal>  (424) 
-0

>  <r_i_glide_rewards>  (424) 
-1.78693

>  <r_i_glide_evdw>  (424) 
-15.3708

>  <r_i_glide_ecoul>  (424) 
-6.69758

>  <r_i_glide_erotb>  (424) 
0.287266

>  <r_i_glide_esite>  (424) 
-0.223261

>  <r_i_glide_emodel>  (424) 
-29.6254

>  <r_i_glide_energy>  (424) 
-22.0684

>  <r_i_glide_einternal>  (424) 
0.559736

>  <r_i_glide_intrahb_reward>  (424) 
-0

>  <i_i_glide_confnum>  (424) 
2

>  <i_i_glide_posenum>  (424) 
27

>  <r_i_glide_eff_state_penalty>  (424) 
0

>  <ligand_id>  (424) 
119

>  <original_smiles>  (424) 
Cc1nc2c(N3CC4CC3CO4)ncnn2c1C

>  <smiles>  (424) 
[H]c1nc(N2C([H])([H])C3([H])OC([H])([H])C2([H])C3([H])[H])c2nc(C([H])([H])[H])c(C([H])([H])[H])n2[n+]1[H]

$$$$
120:0:0
     RDKit          3D

 87 93  0  0  1  0  0  0  0  0999 V2000
    4.3536    2.7114    5.7171 C   0  0  0  0  0  0  0  0  0  0  0  0
    3.6473    1.3834    5.5474 C   0  0  0  0  0  0  0  0  0  0  0  0
    2.4838    1.2191    5.9482 O   0  0  0  0  0  0  0  0  0  0  0  0
    4.3984    0.4539    4.9278 O   0  0  0  0  0  0  0  0  0  0  0  0
    3.9398   -0.8717    4.6257 C   0  0  2  0  0  0  0  0  0  0  0  0
    2.5362   -0.9207    3.8448 C   0  0  1  0  0  0  0  0  0  0  0  0
    2.5365    0.0817    2.6570 C   0  0  0  0  0  0  0  0  0  0  0  0
    1.8472   -2.2735    3.3362 C   0  0  0  0  0  0  0  0  0  0  0  0
    2.0416   -3.6924    4.0366 C   0  0  2  0  0  0  0  0  0  0  0  0
    1.4791   -4.6142    3.1365 O   0  0  0  0  0  0  0  0  0  0  0  0
    1.3658   -3.7350    5.4826 C   0  0  2  0  0  0  0  0  0  0  0  0
    0.8582   -2.4621    5.8092 O   0  0  0  0  0  0  0  0  0  0  0  0
    2.6201   -3.9068    6.3299 C   0  0  0  0  0  0  0  0  0  0  0  0
    3.7720   -3.2694    5.4854 C   0  0  2  0  0  0  0  0  0  0  0  0
    5.2457   -3.4528    5.6854 C   0  0  1  0  0  0  0  0  0  0  0  0
    5.3302   -2.2462    6.4764 O   0  0  0  0  0  0  0  0  0  0  0  0
    4.0477   -1.8076    5.8651 C   0  0  1  0  0  0  0  0  0  0  0  0
    3.2060   -1.2988    6.8798 O   0  0  0  0  0  0  0  0  0  0  0  0
    5.4163   -4.9487    5.8468 C   0  0  1  0  0  0  0  0  0  0  0  0
    6.8688   -5.4409    5.7244 C   0  0  0  0  0  0  0  0  0  0  0  0
    4.9801   -5.3319    7.1275 O   0  0  0  0  0  0  0  0  0  0  0  0
    4.4375   -5.3183    4.6298 C   0  0  1  0  0  0  0  0  0  0  0  0
    4.0468   -6.7956    4.2864 C   0  0  0  0  0  0  0  0  0  0  0  0
    3.7157   -7.7992    5.4398 C   0  0  2  0  0  0  0  0  0  0  0  0
    4.1882   -9.2360    5.1228 C   0  0  1  0  0  0  0  0  0  0  0  0
    5.6848   -9.4773    5.3984 C   0  0  0  0  0  0  0  0  0  0  0  0
    3.2836  -10.1273    5.9678 C   0  0  0  0  0  0  0  0  0  0  0  0
    1.9037   -9.4490    5.8896 C   0  0  2  0  0  0  0  0  0  0  0  0
    1.1508   -9.8309    7.0394 O   0  0  0  0  0  0  0  0  0  0  0  0
    1.1255   -9.8721    4.6138 C   0  0  0  0  0  0  0  0  0  0  0  0
    1.2420  -11.0235    4.2031 O   0  0  0  0  0  0  0  0  0  0  0  0
    0.2598   -8.8815    3.9431 C   0  0  0  0  0  0  0  0  0  0  0  0
   -0.6774   -9.4057    2.8675 C   0  0  0  0  0  0  0  0  0  0  0  0
    0.2992   -7.5861    4.2851 C   0  0  0  0  0  0  0  0  0  0  0  0
    1.2163   -6.9721    5.3281 C   0  0  1  0  0  0  0  0  0  0  0  0
    0.4464   -6.0936    6.3224 C   0  0  0  0  0  0  0  0  0  0  0  0
    0.1216   -4.6800    5.7753 C   0  0  1  0  0  0  0  0  0  0  0  0
   -0.9687   -4.0841    6.7189 C   0  0  0  0  0  0  0  0  0  0  0  0
    2.2530   -7.9373    5.9472 C   0  0  2  0  0  0  0  0  0  0  0  0
    3.5972   -3.9774    4.1571 C   0  0  1  0  0  0  0  0  0  0  0  0
    4.3389   -3.5161    2.8324 C   0  0  0  0  0  0  0  0  0  0  0  0
    5.2498    2.5872    6.3364 H   0  0  0  0  0  0  0  0  0  0  0  0
    3.6779    3.4105    6.2014 H   0  0  0  0  0  0  0  0  0  0  0  0
    4.6176    3.1254    4.7366 H   0  0  0  0  0  0  0  0  0  0  0  0
    4.6993   -1.1916    3.9259 H   0  0  0  0  0  0  0  0  0  0  0  0
    1.8000   -0.5286    4.5377 H   0  0  0  0  0  0  0  0  0  0  0  0
    3.2272   -0.1875    1.8528 H   0  0  0  0  0  0  0  0  0  0  0  0
    2.7999    1.0928    2.9603 H   0  0  0  0  0  0  0  0  0  0  0  0
    1.5397    0.1662    2.2189 H   0  0  0  0  0  0  0  0  0  0  0  0
    0.7775   -2.0613    3.3281 H   0  0  0  0  0  0  0  0  0  0  0  0
    2.0283   -2.3774    2.2594 H   0  0  0  0  0  0  0  0  0  0  0  0
    1.9348   -4.5021    2.3131 H   0  0  0  0  0  0  0  0  0  0  0  0
    1.5246   -1.8391    5.5433 H   0  0  0  0  0  0  0  0  0  0  0  0
    2.5233   -3.5332    7.3453 H   0  0  0  0  0  0  0  0  0  0  0  0
    2.7618   -4.9587    6.4547 H   0  0  0  0  0  0  0  0  0  0  0  0
    5.8466   -3.1873    4.8115 H   0  0  0  0  0  0  0  0  0  0  0  0
    2.5694   -0.7010    6.4748 H   0  0  0  0  0  0  0  0  0  0  0  0
    7.3473   -5.1310    4.7952 H   0  0  0  0  0  0  0  0  0  0  0  0
    6.9101   -6.5293    5.7650 H   0  0  0  0  0  0  0  0  0  0  0  0
    7.4866   -5.0624    6.5463 H   0  0  0  0  0  0  0  0  0  0  0  0
    5.0726   -6.2713    7.2091 H   0  0  0  0  0  0  0  0  0  0  0  0
    5.2178   -5.3101    3.8762 H   0  0  0  0  0  0  0  0  0  0  0  0
    3.3003   -6.8237    3.4836 H   0  0  0  0  0  0  0  0  0  0  0  0
    4.9175   -7.2291    3.7759 H   0  0  0  0  0  0  0  0  0  0  0  0
    4.3049   -7.5150    6.2996 H   0  0  0  0  0  0  0  0  0  0  0  0
    3.9862   -9.4530    4.0670 H   0  0  0  0  0  0  0  0  0  0  0  0
    5.9431   -9.2742    6.4359 H   0  0  0  0  0  0  0  0  0  0  0  0
    6.3132   -8.8473    4.7692 H   0  0  0  0  0  0  0  0  0  0  0  0
    5.9539  -10.5151    5.1930 H   0  0  0  0  0  0  0  0  0  0  0  0
    3.2870  -11.1666    5.6358 H   0  0  0  0  0  0  0  0  0  0  0  0
    3.6190  -10.1325    7.0030 H   0  0  0  0  0  0  0  0  0  0  0  0
    1.1937  -10.7858    7.1525 H   0  0  0  0  0  0  0  0  0  0  0  0
   -0.1078   -9.8924    2.0820 H   0  0  0  0  0  0  0  0  0  0  0  0
   -1.2640   -8.6060    2.4180 H   0  0  0  0  0  0  0  0  0  0  0  0
   -1.3708  -10.1370    3.2793 H   0  0  0  0  0  0  0  0  0  0  0  0
   -0.3647   -6.8877    3.7851 H   0  0  0  0  0  0  0  0  0  0  0  0
    1.7705   -6.2569    4.7688 H   0  0  0  0  0  0  0  0  0  0  0  0
   -0.4771   -6.6125    6.5757 H   0  0  0  0  0  0  0  0  0  0  0  0
    0.9828   -5.9953    7.2659 H   0  0  0  0  0  0  0  0  0  0  0  0
   -0.3936   -4.8054    4.8259 H   0  0  0  0  0  0  0  0  0  0  0  0
   -0.5778   -3.8540    7.7109 H   0  0  0  0  0  0  0  0  0  0  0  0
   -1.8019   -4.7781    6.8411 H   0  0  0  0  0  0  0  0  0  0  0  0
   -1.4077   -3.1751    6.3074 H   0  0  0  0  0  0  0  0  0  0  0  0
    2.3111   -7.6917    7.0090 H   0  0  0  0  0  0  0  0  0  0  0  0
    5.4223   -3.4846    2.8871 H   0  0  0  0  0  0  0  0  0  0  0  0
    4.0924   -2.5486    2.4264 H   0  0  0  0  0  0  0  0  0  0  0  0
    4.1253   -4.2360    2.0471 H   0  0  0  0  0  0  0  0  0  0  0  0
  1  2  1  0
  1 42  1  0
  1 43  1  0
  1 44  1  0
  2  3  2  0
  2  4  1  0
  4  5  1  0
  5 17  1  0
  5  6  1  0
  5 45  1  6
  6  7  1  0
  6  8  1  0
  6 46  1  1
  7 47  1  0
  7 48  1  0
  7 49  1  0
  8  9  1  0
  8 50  1  0
  8 51  1  0
  9 40  1  0
  9 10  1  6
  9 11  1  0
 10 52  1  0
 11 37  1  0
 11 12  1  1
 11 13  1  0
 12 53  1  0
 14 13  1  1
 13 54  1  0
 13 55  1  0
 14 17  1  0
 14 40  1  0
 14 15  1  0
 15 16  1  0
 15 19  1  0
 15 56  1  6
 16 17  1  0
 17 18  1  1
 18 57  1  0
 19 20  1  0
 19 21  1  1
 19 22  1  0
 20 58  1  0
 20 59  1  0
 20 60  1  0
 21 61  1  0
 22 23  1  0
 22 40  1  0
 22 62  1  6
 23 24  1  0
 23 63  1  0
 23 64  1  0
 24 39  1  0
 24 25  1  0
 24 65  1  1
 25 26  1  0
 25 27  1  0
 25 66  1  6
 26 67  1  0
 26 68  1  0
 26 69  1  0
 27 28  1  0
 27 70  1  0
 27 71  1  0
 28 39  1  0
 28 29  1  1
 28 30  1  0
 29 72  1  0
 30 31  2  0
 30 32  1  0
 32 33  1  0
 32 34  2  0
 33 73  1  0
 33 74  1  0
 33 75  1  0
 34 35  1  0
 34 76  1  0
 35 36  1  0
 35 39  1  0
 35 77  1  6
 36 37  1  0
 36 78  1  0
 36 79  1  0
 37 38  1  0
 37 80  1  6
 38 81  1  0
 38 82  1  0
 38 83  1  0
 39 84  1  1
 40 41  1  6
 41 85  1  0
 41 86  1  0
 41 87  1  0
M  END
>  <i_m_ct_stereo_status>  (425) 
1

>  <s_m_source_file>  (425) 
/var/tmp/pbs.5076255.sched01/tmp0q3ly_rt/135fqi89qhj.sdf

>  <i_m_source_file_index>  (425) 
42

>  <i_lp_mmshare_version>  (425) 
48012

>  <i_f3d_flags>  (425) 
0

>  <s_epik_input>  (425) 
W0NAXTEyM1tDQEhdNE9bQ0BAXTIoW09IXSlbQ0BIXShPQyg9TylbQ0gzXSlbQ0BASF0oW0NIM10pW0NIMl1bQ0BdNShbT0hdKVtDQF0oW09IXSkoW0NIMl0xKVtDQEhdKFtDSDNdKVtDSDJdW0NASF02W0NAQEhdN1tDQEhdKFtDSDJdW0NASF0oW0NAXTQoW0NIM10pW09IXSlbQ0BdMzVbQ0gzXSlbQ0BASF0oW0NIM10pW0NIMl1bQ0BdNyhbT0hdKUMoPU8pQyhbQ0gzXSk9W0NIXTY=

>  <s_epik_cmdline>  (425) 
J2VwaWtfcHl0aG9uJywgJy1waHQnLCAnMi4wJywgJy1waCcsICc3LjAnLCAnLXRuJywgJzgnLCAnLW1hJywgJzIwMCcsICctaW1hZScsICc8aW5maWxlLm1hZT4nLCAnLW9tYWUnLCAnPG91dGZpbGUubWFlPic=

>  <r_lp_tautomer_probability>  (425) 
1

>  <r_epik_Ionization_Penalty>  (425) 
7.1006e-06

>  <r_epik_Ionization_Penalty_Charging>  (425) 
0

>  <r_epik_Ionization_Penalty_Neutral>  (425) 
7.1006e-06

>  <r_epik_State_Penalty>  (425) 
-0

>  <r_epik_Charging_Adjusted_Penalty>  (425) 
0

>  <i_epik_Tot_Q>  (425) 
0

>  <i_epik_Tot_abs_Q>  (425) 
0

>  <s_epik_Chemistry_Notes>  (425) 
This compound has an ester and may undergo hydrolysis at high or low pH.

>  <s_lp_Force_Field>  (425) 
OPLS3e

>  <r_lp_Energy>  (425) 
178.607

>  <b_lp_Chiralities_Consistent>  (425) 
1

>  <s_lp_Variant>  (425) 
120:0-1

>  <s_i_glide_gridfile>  (425) 
pfpi4k_grid

>  <i_i_glide_lignum>  (425) 
42

>  <i_i_glide_rotatable_bonds>  (425) 
7

>  <r_i_docking_score>  (425) 
-2.65639

>  <r_i_glide_ligand_efficiency>  (425) 
-0.06479

>  <r_i_glide_ligand_efficiency_sa>  (425) 
-0.22341

>  <r_i_glide_ligand_efficiency_ln>  (425) 
-0.563562

>  <r_i_glide_gscore>  (425) 
-2.65639

>  <r_i_glide_lipo>  (425) 
-0.0504013

>  <r_i_glide_hbond>  (425) 
0

>  <r_i_glide_metal>  (425) 
-0

>  <r_i_glide_rewards>  (425) 
-0.5

>  <r_i_glide_evdw>  (425) 
-26.1611

>  <r_i_glide_ecoul>  (425) 
-5.51732

>  <r_i_glide_erotb>  (425) 
0.0631846

>  <r_i_glide_esite>  (425) 
-0.0335192

>  <r_i_glide_emodel>  (425) 
-35.8259

>  <r_i_glide_energy>  (425) 
-31.6784

>  <r_i_glide_einternal>  (425) 
11.6985

>  <r_i_glide_intrahb_reward>  (425) 
-0.5

>  <i_i_glide_confnum>  (425) 
4

>  <i_i_glide_posenum>  (425) 
1

>  <r_i_glide_eff_state_penalty>  (425) 
0

>  <ligand_id>  (425) 
120

>  <original_smiles>  (425) 
CC(=O)OC1C(C)CC2(O)C3(O)CC45C(OC14O)C(C)(O)C(CC1C(C)CC4(O)C(=O)C(C)=CC(CC3C)C14)C25C

>  <smiles>  (425) 
[H]OC12OC3([H])C(O[H])(C([H])([H])[H])C4([H])C([H])([H])C5([H])C([H])(C([H])([H])[H])C([H])([H])C6(O[H])C(=O)C(C([H])([H])[H])=C([H])C([H])(C([H])([H])C([H])(C([H])([H])[H])C7(O[H])C([H])([H])C31C4(C([H])([H])[H])C7(O[H])C([H])([H])C([H])(C([H])([H])[H])C2([H])OC(=O)C([H])([H])[H])C65[H]

$$$$
120:0:1
     RDKit          3D

 87 93  0  0  1  0  0  0  0  0999 V2000
    4.6691    2.5843    6.1639 C   0  0  0  0  0  0  0  0  0  0  0  0
    3.8648    1.3347    5.8796 C   0  0  0  0  0  0  0  0  0  0  0  0
    2.6936    1.2427    6.2635 O   0  0  0  0  0  0  0  0  0  0  0  0
    4.5752    0.3899    5.2113 O   0  0  0  0  0  0  0  0  0  0  0  0
    4.0553   -0.8976    4.8415 C   0  0  2  0  0  0  0  0  0  0  0  0
    2.6203   -0.8508    4.1202 C   0  0  1  0  0  0  0  0  0  0  0  0
    2.6257    0.1972    2.9801 C   0  0  0  0  0  0  0  0  0  0  0  0
    1.8638   -2.1498    3.5718 C   0  0  0  0  0  0  0  0  0  0  0  0
    2.0162   -3.5974    4.2066 C   0  0  2  0  0  0  0  0  0  0  0  0
    1.3882   -4.4532    3.2724 O   0  0  0  0  0  0  0  0  0  0  0  0
    1.3712   -3.6662    5.6684 C   0  0  2  0  0  0  0  0  0  0  0  0
    0.9418   -2.3729    6.0676 O   0  0  0  0  0  0  0  0  0  0  0  0
    2.6411   -3.9320    6.4814 C   0  0  0  0  0  0  0  0  0  0  0  0
    3.8050   -3.3162    5.6226 C   0  0  2  0  0  0  0  0  0  0  0  0
    5.2664   -3.5709    5.7927 C   0  0  1  0  0  0  0  0  0  0  0  0
    5.4053   -2.4109    6.6259 O   0  0  0  0  0  0  0  0  0  0  0  0
    4.1513   -1.8927    6.0312 C   0  0  1  0  0  0  0  0  0  0  0  0
    3.3265   -1.3642    7.0495 O   0  0  0  0  0  0  0  0  0  0  0  0
    5.3769   -5.0763    5.8840 C   0  0  1  0  0  0  0  0  0  0  0  0
    6.8012   -5.6260    5.7013 C   0  0  0  0  0  0  0  0  0  0  0  0
    4.9550   -5.5106    7.1603 O   0  0  0  0  0  0  0  0  0  0  0  0
    4.3539   -5.3608    4.6728 C   0  0  1  0  0  0  0  0  0  0  0  0
    3.8971   -6.8055    4.2737 C   0  0  0  0  0  0  0  0  0  0  0  0
    3.5547   -7.8434    5.3933 C   0  0  2  0  0  0  0  0  0  0  0  0
    3.9584   -9.2827    5.0055 C   0  0  1  0  0  0  0  0  0  0  0  0
    5.4475   -9.5977    5.2362 C   0  0  0  0  0  0  0  0  0  0  0  0
    3.0322  -10.1705    5.8393 C   0  0  0  0  0  0  0  0  0  0  0  0
    1.6720   -9.4412    5.8219 C   0  0  2  0  0  0  0  0  0  0  0  0
    0.9246   -9.8363    6.9610 O   0  0  0  0  0  0  0  0  0  0  0  0
    0.8679   -9.7690    4.5446 C   0  0  0  0  0  0  0  0  0  0  0  0
    0.9315  -10.9055    4.0726 O   0  0  0  0  0  0  0  0  0  0  0  0
    0.0096   -8.7161    3.9462 C   0  0  0  0  0  0  0  0  0  0  0  0
   -0.9667   -9.1509    2.8732 C   0  0  0  0  0  0  0  0  0  0  0  0
    0.1221   -7.4423    4.3417 C   0  0  0  0  0  0  0  0  0  0  0  0
    1.0847   -6.9036    5.3780 C   0  0  1  0  0  0  0  0  0  0  0  0
    0.3744   -6.0413    6.4302 C   0  0  0  0  0  0  0  0  0  0  0  0
    0.0970   -4.5870    5.9505 C   0  0  1  0  0  0  0  0  0  0  0  0
   -0.9559   -4.0005    6.9330 C   0  0  0  0  0  0  0  0  0  0  0  0
    2.0920   -7.9450    5.9346 C   0  0  2  0  0  0  0  0  0  0  0  0
    3.5586   -3.9704    4.2787 C   0  0  1  0  0  0  0  0  0  0  0  0
    4.2900   -3.4796    2.9580 C   0  0  0  0  0  0  0  0  0  0  0  0
    5.5339    2.3452    6.7848 H   0  0  0  0  0  0  0  0  0  0  0  0
    4.0388    3.2907    6.6972 H   0  0  0  0  0  0  0  0  0  0  0  0
    5.0018    3.0562    5.2403 H   0  0  0  0  0  0  0  0  0  0  0  0
    4.7783   -1.2276    4.1068 H   0  0  0  0  0  0  0  0  0  0  0  0
    1.9310   -0.4590    4.8621 H   0  0  0  0  0  0  0  0  0  0  0  0
    3.2846   -0.0713    2.1539 H   0  0  0  0  0  0  0  0  0  0  0  0
    2.9402    1.1794    3.3241 H   0  0  0  0  0  0  0  0  0  0  0  0
    1.6244    0.3355    2.5753 H   0  0  0  0  0  0  0  0  0  0  0  0
    0.8005   -1.9076    3.5997 H   0  0  0  0  0  0  0  0  0  0  0  0
    2.0136   -2.2295    2.4910 H   0  0  0  0  0  0  0  0  0  0  0  0
    1.5425   -5.3433    3.5378 H   0  0  0  0  0  0  0  0  0  0  0  0
    1.7050   -1.8144    6.1081 H   0  0  0  0  0  0  0  0  0  0  0  0
    2.5857   -3.5867    7.5142 H   0  0  0  0  0  0  0  0  0  0  0  0
    2.7283   -5.0042    6.5676 H   0  0  0  0  0  0  0  0  0  0  0  0
    5.8623   -3.2947    4.9215 H   0  0  0  0  0  0  0  0  0  0  0  0
    3.7582   -0.5898    7.3721 H   0  0  0  0  0  0  0  0  0  0  0  0
    7.2665   -5.2944    4.7767 H   0  0  0  0  0  0  0  0  0  0  0  0
    6.7982   -6.7144    5.6940 H   0  0  0  0  0  0  0  0  0  0  0  0
    7.4525   -5.3105    6.5198 H   0  0  0  0  0  0  0  0  0  0  0  0
    5.0046   -6.4510    7.1935 H   0  0  0  0  0  0  0  0  0  0  0  0
    5.1201   -5.3525    3.9043 H   0  0  0  0  0  0  0  0  0  0  0  0
    3.1313   -6.7735    3.4924 H   0  0  0  0  0  0  0  0  0  0  0  0
    4.7374   -7.2519    3.7305 H   0  0  0  0  0  0  0  0  0  0  0  0
    4.1731   -7.6196    6.2537 H   0  0  0  0  0  0  0  0  0  0  0  0
    3.7255   -9.4491    3.9517 H   0  0  0  0  0  0  0  0  0  0  0  0
    5.7363   -9.4496    6.2777 H   0  0  0  0  0  0  0  0  0  0  0  0
    6.0870   -8.9637    4.6217 H   0  0  0  0  0  0  0  0  0  0  0  0
    5.6706  -10.6341    4.9774 H   0  0  0  0  0  0  0  0  0  0  0  0
    2.9877  -11.1939    5.4609 H   0  0  0  0  0  0  0  0  0  0  0  0
    3.3950  -10.2389    6.8670 H   0  0  0  0  0  0  0  0  0  0  0  0
    1.0159  -10.7887    7.0911 H   0  0  0  0  0  0  0  0  0  0  0  0
   -0.4374   -9.6439    2.0588 H   0  0  0  0  0  0  0  0  0  0  0  0
   -1.5232   -8.3126    2.4588 H   0  0  0  0  0  0  0  0  0  0  0  0
   -1.6937   -9.8474    3.2796 H   0  0  0  0  0  0  0  0  0  0  0  0
   -0.5325   -6.7081    3.8890 H   0  0  0  0  0  0  0  0  0  0  0  0
    1.6625   -6.1872    4.8483 H   0  0  0  0  0  0  0  0  0  0  0  0
   -0.5619   -6.5359    6.6871 H   0  0  0  0  0  0  0  0  0  0  0  0
    0.9377   -6.0072    7.3615 H   0  0  0  0  0  0  0  0  0  0  0  0
   -0.4457   -4.6537    5.0097 H   0  0  0  0  0  0  0  0  0  0  0  0
   -0.5359   -3.8334    7.9258 H   0  0  0  0  0  0  0  0  0  0  0  0
   -1.8100   -4.6714    7.0438 H   0  0  0  0  0  0  0  0  0  0  0  0
   -1.3680   -3.0595    6.5729 H   0  0  0  0  0  0  0  0  0  0  0  0
    2.1908   -7.7453    6.9985 H   0  0  0  0  0  0  0  0  0  0  0  0
    5.3776   -3.4934    2.9869 H   0  0  0  0  0  0  0  0  0  0  0  0
    4.0707   -2.4833    2.5948 H   0  0  0  0  0  0  0  0  0  0  0  0
    4.0205   -4.1567    2.1479 H   0  0  0  0  0  0  0  0  0  0  0  0
  1  2  1  0
  1 42  1  0
  1 43  1  0
  1 44  1  0
  2  3  2  0
  2  4  1  0
  4  5  1  0
  5 17  1  0
  5  6  1  0
  5 45  1  6
  6  7  1  0
  6  8  1  0
  6 46  1  1
  7 47  1  0
  7 48  1  0
  7 49  1  0
  8  9  1  0
  8 50  1  0
  8 51  1  0
  9 40  1  0
  9 10  1  6
  9 11  1  0
 10 52  1  0
 11 37  1  0
 11 12  1  1
 11 13  1  0
 12 53  1  0
 14 13  1  1
 13 54  1  0
 13 55  1  0
 14 17  1  0
 14 40  1  0
 14 15  1  0
 15 16  1  0
 15 19  1  0
 15 56  1  6
 16 17  1  0
 17 18  1  1
 18 57  1  0
 19 20  1  0
 19 21  1  1
 19 22  1  0
 20 58  1  0
 20 59  1  0
 20 60  1  0
 21 61  1  0
 22 23  1  0
 22 40  1  0
 22 62  1  6
 23 24  1  0
 23 63  1  0
 23 64  1  0
 24 39  1  0
 24 25  1  0
 24 65  1  1
 25 26  1  0
 25 27  1  0
 25 66  1  6
 26 67  1  0
 26 68  1  0
 26 69  1  0
 27 28  1  0
 27 70  1  0
 27 71  1  0
 28 39  1  0
 28 29  1  1
 28 30  1  0
 29 72  1  0
 30 31  2  0
 30 32  1  0
 32 33  1  0
 32 34  2  0
 33 73  1  0
 33 74  1  0
 33 75  1  0
 34 35  1  0
 34 76  1  0
 35 36  1  0
 35 39  1  0
 35 77  1  6
 36 37  1  0
 36 78  1  0
 36 79  1  0
 37 38  1  0
 37 80  1  6
 38 81  1  0
 38 82  1  0
 38 83  1  0
 39 84  1  1
 40 41  1  6
 41 85  1  0
 41 86  1  0
 41 87  1  0
M  END
>  <i_m_ct_stereo_status>  (426) 
1

>  <s_m_source_file>  (426) 
/var/tmp/pbs.5076255.sched01/tmp0q3ly_rt/135fqi89qhj.sdf

>  <i_m_source_file_index>  (426) 
42

>  <i_lp_mmshare_version>  (426) 
48012

>  <i_f3d_flags>  (426) 
0

>  <s_epik_input>  (426) 
W0NAXTEyM1tDQEhdNE9bQ0BAXTIoW09IXSlbQ0BIXShPQyg9TylbQ0gzXSlbQ0BASF0oW0NIM10pW0NIMl1bQ0BdNShbT0hdKVtDQF0oW09IXSkoW0NIMl0xKVtDQEhdKFtDSDNdKVtDSDJdW0NASF02W0NAQEhdN1tDQEhdKFtDSDJdW0NASF0oW0NAXTQoW0NIM10pW09IXSlbQ0BdMzVbQ0gzXSlbQ0BASF0oW0NIM10pW0NIMl1bQ0BdNyhbT0hdKUMoPU8pQyhbQ0gzXSk9W0NIXTY=

>  <s_epik_cmdline>  (426) 
J2VwaWtfcHl0aG9uJywgJy1waHQnLCAnMi4wJywgJy1waCcsICc3LjAnLCAnLXRuJywgJzgnLCAnLW1hJywgJzIwMCcsICctaW1hZScsICc8aW5maWxlLm1hZT4nLCAnLW9tYWUnLCAnPG91dGZpbGUubWFlPic=

>  <r_lp_tautomer_probability>  (426) 
1

>  <r_epik_Ionization_Penalty>  (426) 
7.1006e-06

>  <r_epik_Ionization_Penalty_Charging>  (426) 
0

>  <r_epik_Ionization_Penalty_Neutral>  (426) 
7.1006e-06

>  <r_epik_State_Penalty>  (426) 
-0

>  <r_epik_Charging_Adjusted_Penalty>  (426) 
0

>  <i_epik_Tot_Q>  (426) 
0

>  <i_epik_Tot_abs_Q>  (426) 
0

>  <s_epik_Chemistry_Notes>  (426) 
This compound has an ester and may undergo hydrolysis at high or low pH.

>  <s_lp_Force_Field>  (426) 
OPLS3e

>  <r_lp_Energy>  (426) 
178.607

>  <b_lp_Chiralities_Consistent>  (426) 
1

>  <s_lp_Variant>  (426) 
120:0-1

>  <s_i_glide_gridfile>  (426) 
pfpi4k_grid

>  <i_i_glide_lignum>  (426) 
42

>  <i_i_glide_rotatable_bonds>  (426) 
7

>  <r_i_docking_score>  (426) 
-2.48831

>  <r_i_glide_ligand_efficiency>  (426) 
-0.0606905

>  <r_i_glide_ligand_efficiency_sa>  (426) 
-0.209274

>  <r_i_glide_ligand_efficiency_ln>  (426) 
-0.527903

>  <r_i_glide_gscore>  (426) 
-2.48831

>  <r_i_glide_lipo>  (426) 
-0.043571

>  <r_i_glide_hbond>  (426) 
0

>  <r_i_glide_metal>  (426) 
-0

>  <r_i_glide_rewards>  (426) 
-0.500553

>  <r_i_glide_evdw>  (426) 
-27.2911

>  <r_i_glide_ecoul>  (426) 
-4.00107

>  <r_i_glide_erotb>  (426) 
0.0631846

>  <r_i_glide_esite>  (426) 
-0.0426554

>  <r_i_glide_emodel>  (426) 
-35.4526

>  <r_i_glide_energy>  (426) 
-31.2922

>  <r_i_glide_einternal>  (426) 
11.4837

>  <r_i_glide_intrahb_reward>  (426) 
-0.5

>  <i_i_glide_confnum>  (426) 
2

>  <i_i_glide_posenum>  (426) 
8

>  <r_i_glide_eff_state_penalty>  (426) 
0

>  <ligand_id>  (426) 
120

>  <original_smiles>  (426) 
CC(=O)OC1C(C)CC2(O)C3(O)CC45C(OC14O)C(C)(O)C(CC1C(C)CC4(O)C(=O)C(C)=CC(CC3C)C14)C25C

>  <smiles>  (426) 
[H]OC12OC3([H])C(O[H])(C([H])([H])[H])C4([H])C([H])([H])C5([H])C([H])(C([H])([H])[H])C([H])([H])C6(O[H])C(=O)C(C([H])([H])[H])=C([H])C([H])(C([H])([H])C([H])(C([H])([H])[H])C7(O[H])C([H])([H])C31C4(C([H])([H])[H])C7(O[H])C([H])([H])C([H])(C([H])([H])[H])C2([H])OC(=O)C([H])([H])[H])C65[H]

$$$$
120:0:2
     RDKit          3D

 87 93  0  0  1  0  0  0  0  0999 V2000
    5.2354    2.1595    6.5414 C   0  0  0  0  0  0  0  0  0  0  0  0
    4.3032    1.0530    6.0703 C   0  0  0  0  0  0  0  0  0  0  0  0
    3.1125    1.0747    6.3694 O   0  0  0  0  0  0  0  0  0  0  0  0
    4.9510    0.1039    5.3395 O   0  0  0  0  0  0  0  0  0  0  0  0
    4.3403   -1.1175    4.8918 C   0  0  2  0  0  0  0  0  0  0  0  0
    2.9108   -0.9489    4.1867 C   0  0  1  0  0  0  0  0  0  0  0  0
    2.9619    0.1598    3.1084 C   0  0  0  0  0  0  0  0  0  0  0  0
    2.0754   -2.1714    3.5784 C   0  0  0  0  0  0  0  0  0  0  0  0
    2.1518   -3.6589    4.1284 C   0  0  2  0  0  0  0  0  0  0  0  0
    1.4593   -4.4261    3.1617 O   0  0  0  0  0  0  0  0  0  0  0  0
    1.5217   -3.7761    5.5936 C   0  0  2  0  0  0  0  0  0  0  0  0
    1.1655   -2.4872    6.0654 O   0  0  0  0  0  0  0  0  0  0  0  0
    2.7800   -4.1627    6.3687 C   0  0  0  0  0  0  0  0  0  0  0  0
    3.9611   -3.5590    5.5354 C   0  0  2  0  0  0  0  0  0  0  0  0
    5.4126   -3.8923    5.6750 C   0  0  1  0  0  0  0  0  0  0  0  0
    5.6000   -2.7923    6.5831 O   0  0  0  0  0  0  0  0  0  0  0  0
    4.3750   -2.1803    6.0218 C   0  0  1  0  0  0  0  0  0  0  0  0
    3.5889   -1.6702    7.0812 O   0  0  0  0  0  0  0  0  0  0  0  0
    5.4452   -5.4055    5.6746 C   0  0  1  0  0  0  0  0  0  0  0  0
    6.8358   -6.0241    5.4339 C   0  0  0  0  0  0  0  0  0  0  0  0
    5.0150   -5.8910    6.9294 O   0  0  0  0  0  0  0  0  0  0  0  0
    4.3934   -5.5685    4.4642 C   0  0  1  0  0  0  0  0  0  0  0  0
    3.8535   -6.9619    3.9916 C   0  0  0  0  0  0  0  0  0  0  0  0
    3.4698   -8.0399    5.0557 C   0  0  2  0  0  0  0  0  0  0  0  0
    3.7824   -9.4772    4.5824 C   0  0  1  0  0  0  0  0  0  0  0  0
    5.2530   -9.8876    4.7713 C   0  0  0  0  0  0  0  0  0  0  0  0
    2.8177  -10.3541    5.3818 C   0  0  0  0  0  0  0  0  0  0  0  0
    1.5113   -9.5340    5.4208 C   0  0  2  0  0  0  0  0  0  0  0  0
    0.7725   -9.8623    6.5775 O   0  0  0  0  0  0  0  0  0  0  0  0
    0.6599   -9.7614    4.1477 C   0  0  0  0  0  0  0  0  0  0  0  0
    0.6541  -10.8749    3.6145 O   0  0  0  0  0  0  0  0  0  0  0  0
   -0.1488   -8.6407    3.6174 C   0  0  0  0  0  0  0  0  0  0  0  0
   -1.1686   -8.9642    2.5422 C   0  0  0  0  0  0  0  0  0  0  0  0
    0.0424   -7.3930    4.0825 C   0  0  0  0  0  0  0  0  0  0  0  0
    1.0523   -6.9672    5.1279 C   0  0  1  0  0  0  0  0  0  0  0  0
    0.4072   -6.1288    6.2405 C   0  0  0  0  0  0  0  0  0  0  0  0
    0.2057   -4.6368    5.8480 C   0  0  1  0  0  0  0  0  0  0  0  0
   -0.7970   -4.0461    6.8811 C   0  0  0  0  0  0  0  0  0  0  0  0
    2.0134   -8.0828    5.6074 C   0  0  2  0  0  0  0  0  0  0  0  0
    3.6707   -4.1206    4.1576 C   0  0  1  0  0  0  0  0  0  0  0  0
    4.4143   -3.5971    2.8594 C   0  0  0  0  0  0  0  0  0  0  0  0
    6.0268    1.7456    7.1672 H   0  0  0  0  0  0  0  0  0  0  0  0
    4.6552    2.8705    7.1252 H   0  0  0  0  0  0  0  0  0  0  0  0
    5.6821    2.6971    5.7058 H   0  0  0  0  0  0  0  0  0  0  0  0
    5.0440   -1.4357    4.1317 H   0  0  0  0  0  0  0  0  0  0  0  0
    2.2505   -0.5644    4.9586 H   0  0  0  0  0  0  0  0  0  0  0  0
    3.5951   -0.0957    2.2574 H   0  0  0  0  0  0  0  0  0  0  0  0
    3.3378    1.0996    3.5063 H   0  0  0  0  0  0  0  0  0  0  0  0
    1.9644    0.3779    2.7289 H   0  0  0  0  0  0  0  0  0  0  0  0
    1.0281   -1.8731    3.6386 H   0  0  0  0  0  0  0  0  0  0  0  0
    2.2048   -2.2017    2.4923 H   0  0  0  0  0  0  0  0  0  0  0  0
    1.5688   -5.3346    3.3795 H   0  0  0  0  0  0  0  0  0  0  0  0
    1.9554   -1.9707    6.1345 H   0  0  0  0  0  0  0  0  0  0  0  0
    2.7587   -3.8856    7.4224 H   0  0  0  0  0  0  0  0  0  0  0  0
    2.8147   -5.2405    6.3896 H   0  0  0  0  0  0  0  0  0  0  0  0
    6.0197   -3.5956    4.8174 H   0  0  0  0  0  0  0  0  0  0  0  0
    3.8290   -2.1678    7.8405 H   0  0  0  0  0  0  0  0  0  0  0  0
    7.3088   -5.6656    4.5218 H   0  0  0  0  0  0  0  0  0  0  0  0
    6.7724   -7.1091    5.3641 H   0  0  0  0  0  0  0  0  0  0  0  0
    7.5154   -5.7965    6.2580 H   0  0  0  0  0  0  0  0  0  0  0  0
    5.0331   -6.8322    6.9139 H   0  0  0  0  0  0  0  0  0  0  0  0
    5.1486   -5.5617    3.6847 H   0  0  0  0  0  0  0  0  0  0  0  0
    3.0795   -6.8441    3.2269 H   0  0  0  0  0  0  0  0  0  0  0  0
    4.6607   -7.4230    3.4118 H   0  0  0  0  0  0  0  0  0  0  0  0
    4.1082   -7.9022    5.9190 H   0  0  0  0  0  0  0  0  0  0  0  0
    3.5264   -9.5694    3.5247 H   0  0  0  0  0  0  0  0  0  0  0  0
    5.5625   -9.8156    5.8155 H   0  0  0  0  0  0  0  0  0  0  0  0
    5.9201   -9.2563    4.1831 H   0  0  0  0  0  0  0  0  0  0  0  0
    5.4125  -10.9188    4.4513 H   0  0  0  0  0  0  0  0  0  0  0  0
    2.7100  -11.3506    4.9474 H   0  0  0  0  0  0  0  0  0  0  0  0
    3.1891  -10.5026    6.3974 H   0  0  0  0  0  0  0  0  0  0  0  0
    0.9558  -10.7802    6.7901 H   0  0  0  0  0  0  0  0  0  0  0  0
   -0.6825   -9.4124    1.6770 H   0  0  0  0  0  0  0  0  0  0  0  0
   -1.6921   -8.0736    2.2006 H   0  0  0  0  0  0  0  0  0  0  0  0
   -1.9109   -9.6699    2.9130 H   0  0  0  0  0  0  0  0  0  0  0  0
   -0.5762   -6.5983    3.6905 H   0  0  0  0  0  0  0  0  0  0  0  0
    1.6618   -6.2538    4.6334 H   0  0  0  0  0  0  0  0  0  0  0  0
   -0.5540   -6.5832    6.4830 H   0  0  0  0  0  0  0  0  0  0  0  0
    0.9786   -6.1806    7.1666 H   0  0  0  0  0  0  0  0  0  0  0  0
   -0.3527   -4.6175    4.9143 H   0  0  0  0  0  0  0  0  0  0  0  0
   -0.3546   -3.9576    7.8746 H   0  0  0  0  0  0  0  0  0  0  0  0
   -1.6866   -4.6725    6.9694 H   0  0  0  0  0  0  0  0  0  0  0  0
   -1.1596   -3.0641    6.5812 H   0  0  0  0  0  0  0  0  0  0  0  0
    2.1362   -7.9505    6.6805 H   0  0  0  0  0  0  0  0  0  0  0  0
    5.4999   -3.6735    2.8717 H   0  0  0  0  0  0  0  0  0  0  0  0
    4.2488   -2.5703    2.5570 H   0  0  0  0  0  0  0  0  0  0  0  0
    4.0959   -4.2105    2.0155 H   0  0  0  0  0  0  0  0  0  0  0  0
  1  2  1  0
  1 42  1  0
  1 43  1  0
  1 44  1  0
  2  3  2  0
  2  4  1  0
  4  5  1  0
  5 17  1  0
  5  6  1  0
  5 45  1  6
  6  7  1  0
  6  8  1  0
  6 46  1  1
  7 47  1  0
  7 48  1  0
  7 49  1  0
  8  9  1  0
  8 50  1  0
  8 51  1  0
  9 40  1  0
  9 10  1  6
  9 11  1  0
 10 52  1  0
 11 37  1  0
 11 12  1  1
 11 13  1  0
 12 53  1  0
 14 13  1  1
 13 54  1  0
 13 55  1  0
 14 17  1  0
 14 40  1  0
 14 15  1  0
 15 16  1  0
 15 19  1  0
 15 56  1  6
 16 17  1  0
 17 18  1  1
 18 57  1  0
 19 20  1  0
 19 21  1  1
 19 22  1  0
 20 58  1  0
 20 59  1  0
 20 60  1  0
 21 61  1  0
 22 23  1  0
 22 40  1  0
 22 62  1  6
 23 24  1  0
 23 63  1  0
 23 64  1  0
 24 39  1  0
 24 25  1  0
 24 65  1  1
 25 26  1  0
 25 27  1  0
 25 66  1  6
 26 67  1  0
 26 68  1  0
 26 69  1  0
 27 28  1  0
 27 70  1  0
 27 71  1  0
 28 39  1  0
 28 29  1  1
 28 30  1  0
 29 72  1  0
 30 31  2  0
 30 32  1  0
 32 33  1  0
 32 34  2  0
 33 73  1  0
 33 74  1  0
 33 75  1  0
 34 35  1  0
 34 76  1  0
 35 36  1  0
 35 39  1  0
 35 77  1  6
 36 37  1  0
 36 78  1  0
 36 79  1  0
 37 38  1  0
 37 80  1  6
 38 81  1  0
 38 82  1  0
 38 83  1  0
 39 84  1  1
 40 41  1  6
 41 85  1  0
 41 86  1  0
 41 87  1  0
M  END
>  <i_m_ct_stereo_status>  (427) 
1

>  <s_m_source_file>  (427) 
/var/tmp/pbs.5076255.sched01/tmp0q3ly_rt/135fqi89qhj.sdf

>  <i_m_source_file_index>  (427) 
42

>  <i_lp_mmshare_version>  (427) 
48012

>  <i_f3d_flags>  (427) 
0

>  <s_epik_input>  (427) 
W0NAXTEyM1tDQEhdNE9bQ0BAXTIoW09IXSlbQ0BIXShPQyg9TylbQ0gzXSlbQ0BASF0oW0NIM10pW0NIMl1bQ0BdNShbT0hdKVtDQF0oW09IXSkoW0NIMl0xKVtDQEhdKFtDSDNdKVtDSDJdW0NASF02W0NAQEhdN1tDQEhdKFtDSDJdW0NASF0oW0NAXTQoW0NIM10pW09IXSlbQ0BdMzVbQ0gzXSlbQ0BASF0oW0NIM10pW0NIMl1bQ0BdNyhbT0hdKUMoPU8pQyhbQ0gzXSk9W0NIXTY=

>  <s_epik_cmdline>  (427) 
J2VwaWtfcHl0aG9uJywgJy1waHQnLCAnMi4wJywgJy1waCcsICc3LjAnLCAnLXRuJywgJzgnLCAnLW1hJywgJzIwMCcsICctaW1hZScsICc8aW5maWxlLm1hZT4nLCAnLW9tYWUnLCAnPG91dGZpbGUubWFlPic=

>  <r_lp_tautomer_probability>  (427) 
1

>  <r_epik_Ionization_Penalty>  (427) 
7.1006e-06

>  <r_epik_Ionization_Penalty_Charging>  (427) 
0

>  <r_epik_Ionization_Penalty_Neutral>  (427) 
7.1006e-06

>  <r_epik_State_Penalty>  (427) 
-0

>  <r_epik_Charging_Adjusted_Penalty>  (427) 
0

>  <i_epik_Tot_Q>  (427) 
0

>  <i_epik_Tot_abs_Q>  (427) 
0

>  <s_epik_Chemistry_Notes>  (427) 
This compound has an ester and may undergo hydrolysis at high or low pH.

>  <s_lp_Force_Field>  (427) 
OPLS3e

>  <r_lp_Energy>  (427) 
178.607

>  <b_lp_Chiralities_Consistent>  (427) 
1

>  <s_lp_Variant>  (427) 
120:0-1

>  <s_i_glide_gridfile>  (427) 
pfpi4k_grid

>  <i_i_glide_lignum>  (427) 
42

>  <i_i_glide_rotatable_bonds>  (427) 
7

>  <r_i_docking_score>  (427) 
-2.44844

>  <r_i_glide_ligand_efficiency>  (427) 
-0.0597181

>  <r_i_glide_ligand_efficiency_sa>  (427) 
-0.205921

>  <r_i_glide_ligand_efficiency_ln>  (427) 
-0.519445

>  <r_i_glide_gscore>  (427) 
-2.44844

>  <r_i_glide_lipo>  (427) 
-0.139273

>  <r_i_glide_hbond>  (427) 
0

>  <r_i_glide_metal>  (427) 
-0

>  <r_i_glide_rewards>  (427) 
-0.506812

>  <r_i_glide_evdw>  (427) 
-28.9309

>  <r_i_glide_ecoul>  (427) 
-2.52055

>  <r_i_glide_erotb>  (427) 
0.0631846

>  <r_i_glide_esite>  (427) 
-0.0409155

>  <r_i_glide_emodel>  (427) 
-35.5292

>  <r_i_glide_energy>  (427) 
-31.4514

>  <r_i_glide_einternal>  (427) 
11.6016

>  <r_i_glide_intrahb_reward>  (427) 
-0.5

>  <i_i_glide_confnum>  (427) 
2

>  <i_i_glide_posenum>  (427) 
39

>  <r_i_glide_eff_state_penalty>  (427) 
0

>  <ligand_id>  (427) 
120

>  <original_smiles>  (427) 
CC(=O)OC1C(C)CC2(O)C3(O)CC45C(OC14O)C(C)(O)C(CC1C(C)CC4(O)C(=O)C(C)=CC(CC3C)C14)C25C

>  <smiles>  (427) 
[H]OC12OC3([H])C(O[H])(C([H])([H])[H])C4([H])C([H])([H])C5([H])C([H])(C([H])([H])[H])C([H])([H])C6(O[H])C(=O)C(C([H])([H])[H])=C([H])C([H])(C([H])([H])C([H])(C([H])([H])[H])C7(O[H])C([H])([H])C31C4(C([H])([H])[H])C7(O[H])C([H])([H])C([H])(C([H])([H])[H])C2([H])OC(=O)C([H])([H])[H])C65[H]

$$$$
