0:0:0
     RDKit          3D

 82 86  0  0  1  0  0  0  0  0999 V2000
   -0.1561   -6.8814    4.0762 C   0  0  0  0  0  0  0  0  0  0  0  0
    0.0374   -8.4086    4.1775 C   0  0  2  0  0  0  0  0  0  0  0  0
    0.2591   -8.8770    5.6158 C   0  0  0  0  0  0  0  0  0  0  0  0
    1.5949   -8.3517    6.1450 C   0  0  0  0  0  0  0  0  0  0  0  0
    2.8238   -8.7423    5.2803 C   0  0  2  0  0  0  0  0  0  0  0  0
    3.2070  -10.2090    5.5943 C   0  0  0  0  0  0  0  0  0  0  0  0
    3.9639   -7.8108    5.7220 C   0  0  0  0  0  0  0  0  0  0  0  0
    5.2275   -7.9808    4.8843 C   0  0  0  0  0  0  0  0  0  0  0  0
    5.0402   -7.8047    3.3392 C   0  0  1  0  0  0  0  0  0  0  0  0
    6.0041   -8.8556    2.7010 C   0  0  0  0  0  0  0  0  0  0  0  0
    3.5961   -8.1774    2.9174 C   0  0  0  0  0  0  0  0  0  0  0  0
    2.5951   -8.5725    3.7634 C   0  0  0  0  0  0  0  0  0  0  0  0
    1.1718   -8.9033    3.2561 C   0  0  1  0  0  0  0  0  0  0  0  0
    1.0315  -10.3873    2.8881 C   0  0  0  0  0  0  0  0  0  0  0  0
    3.4387   -8.0659    1.4127 C   0  0  0  0  0  0  0  0  0  0  0  0
    3.6470   -6.6199    0.9919 C   0  0  0  0  0  0  0  0  0  0  0  0
    5.0758   -6.0657    1.3006 C   0  0  1  0  0  0  0  0  0  0  0  0
    5.2438   -4.5739    0.7366 C   0  0  2  0  0  0  0  0  0  0  0  0
    4.7305   -4.6234   -0.7277 C   0  0  0  0  0  0  0  0  0  0  0  0
    6.7277   -4.0687    0.6618 C   0  0  0  0  0  0  0  0  0  0  0  0
    6.9588   -2.5739    0.3171 C   0  0  1  0  0  0  0  0  0  0  0  0
    6.9477   -2.3125   -1.0771 O   0  0  0  0  0  0  0  0  0  0  0  0
    6.0317   -1.6346    1.1234 C   0  0  1  0  0  0  0  0  0  0  0  0
    6.1825   -0.3054    0.6649 O   0  0  0  0  0  0  0  0  0  0  0  0
    4.5315   -2.0483    1.2029 C   0  0  0  0  0  0  0  0  0  0  0  0
    3.8265   -1.1516    2.2567 C   0  0  0  0  0  0  0  0  0  0  0  0
    3.7918   -1.7470   -0.1285 C   0  0  0  0  0  0  0  0  0  0  0  0
    4.4217   -3.5720    1.6259 C   0  0  2  0  0  0  0  0  0  0  0  0
    4.7812   -3.8027    3.1217 C   0  0  0  0  0  0  0  0  0  0  0  0
    4.6258   -5.2502    3.6233 C   0  0  0  0  0  0  0  0  0  0  0  0
    5.4219   -6.3244    2.8310 C   0  0  1  0  0  0  0  0  0  0  0  0
    6.9497   -6.1397    3.0794 C   0  0  0  0  0  0  0  0  0  0  0  0
    0.7648   -6.3376    4.2959 H   0  0  0  0  0  0  0  0  0  0  0  0
   -0.9244   -6.5338    4.7709 H   0  0  0  0  0  0  0  0  0  0  0  0
   -0.4651   -6.5985    3.0704 H   0  0  0  0  0  0  0  0  0  0  0  0
   -0.8987   -8.8570    3.8347 H   0  0  0  0  0  0  0  0  0  0  0  0
   -0.5611   -8.5380    6.2477 H   0  0  0  0  0  0  0  0  0  0  0  0
    0.2315   -9.9661    5.6598 H   0  0  0  0  0  0  0  0  0  0  0  0
    1.5262   -7.2685    6.2338 H   0  0  0  0  0  0  0  0  0  0  0  0
    1.7372   -8.7144    7.1624 H   0  0  0  0  0  0  0  0  0  0  0  0
    3.6118  -10.3071    6.6027 H   0  0  0  0  0  0  0  0  0  0  0  0
    3.9565  -10.5886    4.8992 H   0  0  0  0  0  0  0  0  0  0  0  0
    2.3525  -10.8806    5.5442 H   0  0  0  0  0  0  0  0  0  0  0  0
    3.6293   -6.7773    5.6648 H   0  0  0  0  0  0  0  0  0  0  0  0
    4.2004   -7.9850    6.7705 H   0  0  0  0  0  0  0  0  0  0  0  0
    5.9795   -7.3066    5.2890 H   0  0  0  0  0  0  0  0  0  0  0  0
    5.6202   -8.9754    5.0987 H   0  0  0  0  0  0  0  0  0  0  0  0
    6.9885   -8.8638    3.1722 H   0  0  0  0  0  0  0  0  0  0  0  0
    6.1821   -8.6965    1.6388 H   0  0  0  0  0  0  0  0  0  0  0  0
    5.6066   -9.8658    2.8170 H   0  0  0  0  0  0  0  0  0  0  0  0
    0.9811   -8.3586    2.3387 H   0  0  0  0  0  0  0  0  0  0  0  0
    1.8077  -10.6610    2.1743 H   0  0  0  0  0  0  0  0  0  0  0  0
    0.0674  -10.5946    2.4197 H   0  0  0  0  0  0  0  0  0  0  0  0
    1.1221  -11.0521    3.7449 H   0  0  0  0  0  0  0  0  0  0  0  0
    4.1581   -8.7078    0.9057 H   0  0  0  0  0  0  0  0  0  0  0  0
    2.4909   -8.4292    1.0342 H   0  0  0  0  0  0  0  0  0  0  0  0
    3.4237   -6.6081   -0.0682 H   0  0  0  0  0  0  0  0  0  0  0  0
    2.8777   -6.0109    1.4672 H   0  0  0  0  0  0  0  0  0  0  0  0
    5.7569   -6.6809    0.7131 H   0  0  0  0  0  0  0  0  0  0  0  0
    5.1259   -3.8615   -1.3849 H   0  0  0  0  0  0  0  0  0  0  0  0
    3.6447   -4.5500   -0.7823 H   0  0  0  0  0  0  0  0  0  0  0  0
    5.0158   -5.5583   -1.2112 H   0  0  0  0  0  0  0  0  0  0  0  0
    7.1834   -4.1428    1.6371 H   0  0  0  0  0  0  0  0  0  0  0  0
    7.3277   -4.7086    0.0153 H   0  0  0  0  0  0  0  0  0  0  0  0
    7.9819   -2.3293    0.6085 H   0  0  0  0  0  0  0  0  0  0  0  0
    6.1293   -2.6324   -1.4233 H   0  0  0  0  0  0  0  0  0  0  0  0
    6.4102   -1.6387    2.1451 H   0  0  0  0  0  0  0  0  0  0  0  0
    6.9357    0.0835    1.0973 H   0  0  0  0  0  0  0  0  0  0  0  0
    2.8220   -1.5180    2.4812 H   0  0  0  0  0  0  0  0  0  0  0  0
    3.7225   -0.1203    1.9139 H   0  0  0  0  0  0  0  0  0  0  0  0
    4.3846   -1.0966    3.1914 H   0  0  0  0  0  0  0  0  0  0  0  0
    2.8654   -2.3155   -0.2145 H   0  0  0  0  0  0  0  0  0  0  0  0
    4.3900   -1.9376   -1.0125 H   0  0  0  0  0  0  0  0  0  0  0  0
    3.5143   -0.6947   -0.2125 H   0  0  0  0  0  0  0  0  0  0  0  0
    3.3662   -3.8287    1.5358 H   0  0  0  0  0  0  0  0  0  0  0  0
    5.7895   -3.4548    3.3281 H   0  0  0  0  0  0  0  0  0  0  0  0
    4.1369   -3.2071    3.7640 H   0  0  0  0  0  0  0  0  0  0  0  0
    4.9275   -5.2631    4.6691 H   0  0  0  0  0  0  0  0  0  0  0  0
    3.5647   -5.4987    3.6146 H   0  0  0  0  0  0  0  0  0  0  0  0
    7.1756   -5.1525    3.4640 H   0  0  0  0  0  0  0  0  0  0  0  0
    7.5353   -6.3118    2.1746 H   0  0  0  0  0  0  0  0  0  0  0  0
    7.3781   -6.8062    3.8230 H   0  0  0  0  0  0  0  0  0  0  0  0
  1  2  1  0
  1 33  1  0
  1 34  1  0
  1 35  1  0
  2 13  1  0
  2  3  1  0
  2 36  1  6
  3  4  1  0
  3 37  1  0
  3 38  1  0
  4  5  1  0
  4 39  1  0
  4 40  1  0
  5 12  1  0
  5  6  1  6
  5  7  1  0
  6 41  1  0
  6 42  1  0
  6 43  1  0
  7  8  1  0
  7 44  1  0
  7 45  1  0
  8  9  1  0
  8 46  1  0
  8 47  1  0
  9 31  1  0
  9 10  1  6
  9 11  1  0
 10 48  1  0
 10 49  1  0
 10 50  1  0
 11 12  2  0
 11 15  1  0
 12 13  1  0
 13 14  1  0
 13 51  1  6
 14 52  1  0
 14 53  1  0
 14 54  1  0
 15 16  1  0
 15 55  1  0
 15 56  1  0
 16 17  1  0
 16 57  1  0
 16 58  1  0
 17 31  1  0
 17 18  1  0
 17 59  1  6
 18 28  1  0
 18 19  1  6
 18 20  1  0
 19 60  1  0
 19 61  1  0
 19 62  1  0
 20 21  1  0
 20 63  1  0
 20 64  1  0
 21 22  1  0
 21 23  1  0
 21 65  1  1
 22 66  1  0
 23 24  1  0
 23 25  1  0
 23 67  1  1
 24 68  1  0
 25 26  1  0
 25 27  1  0
 25 28  1  0
 26 69  1  0
 26 70  1  0
 26 71  1  0
 27 72  1  0
 27 73  1  0
 27 74  1  0
 28 29  1  0
 28 75  1  1
 29 30  1  0
 29 76  1  0
 29 77  1  0
 30 31  1  0
 30 78  1  0
 30 79  1  0
 31 32  1  6
 32 80  1  0
 32 81  1  0
 32 82  1  0
M  END
>  <i_m_ct_stereo_status>  (1) 
1

>  <s_m_source_file>  (1) 
/var/tmp/pbs.5076255.sched01/tmpmjg_sug8/0d5zvyqle.sdf

>  <i_m_source_file_index>  (1) 
1

>  <i_lp_mmshare_version>  (1) 
48012

>  <i_f3d_flags>  (1) 
0

>  <s_epik_input>  (1) 
W0NIMl0xW0NIMl1bQ0BASF0oW0NIM10pW0NASF0oW0NIM10pQyhbQ0BdMTJbQ0gzXSk9QzNbQ0BdKFtDSDNdKShbQ0gyXVtDSDJdMilbQ0BAXTQoW0NIM10pW0NAQEhdKFtDSDJdW0NIMl0zKVtDQEBdNShbQ0gzXSlbQ0BASF0oW0NIMl1bQ0gyXTQpQyhbQ0gzXSkoW0NIM10pW0NASF0oW09IXSlbQ0BASF0oW0NIMl01KVtPSF0=

>  <s_epik_cmdline>  (1) 
J2VwaWtfcHl0aG9uJywgJy1waHQnLCAnMi4wJywgJy1waCcsICc3LjAnLCAnLXRuJywgJzgnLCAnLW1hJywgJzIwMCcsICctaW1hZScsICc8aW5maWxlLm1hZT4nLCAnLW9tYWUnLCAnPG91dGZpbGUubWFlPic=

>  <r_lp_tautomer_probability>  (1) 
1

>  <r_epik_Ionization_Penalty>  (1) 
1.48476e-06

>  <r_epik_Ionization_Penalty_Charging>  (1) 
0

>  <r_epik_Ionization_Penalty_Neutral>  (1) 
1.48476e-06

>  <r_epik_State_Penalty>  (1) 
-0

>  <r_epik_Charging_Adjusted_Penalty>  (1) 
0

>  <i_epik_Tot_Q>  (1) 
0

>  <i_epik_Tot_abs_Q>  (1) 
0

>  <s_lp_Force_Field>  (1) 
OPLS3e

>  <r_lp_Energy>  (1) 
97.0771

>  <b_lp_Chiralities_Consistent>  (1) 
1

>  <s_lp_Variant>  (1) 
0:0-1

>  <s_i_glide_gridfile>  (1) 
pfpi4k_grid

>  <i_i_glide_lignum>  (1) 
1

>  <i_i_glide_rotatable_bonds>  (1) 
2

>  <r_i_docking_score>  (1) 
-3.52107

>  <r_i_glide_ligand_efficiency>  (1) 
-0.110033

>  <r_i_glide_ligand_efficiency_sa>  (1) 
-0.349334

>  <r_i_glide_ligand_efficiency_ln>  (1) 
-0.788463

>  <r_i_glide_gscore>  (1) 
-3.52107

>  <r_i_glide_lipo>  (1) 
-0.813668

>  <r_i_glide_hbond>  (1) 
0

>  <r_i_glide_metal>  (1) 
-0

>  <r_i_glide_rewards>  (1) 
-0.390567

>  <r_i_glide_evdw>  (1) 
-29.3612

>  <r_i_glide_ecoul>  (1) 
-5.65847

>  <r_i_glide_erotb>  (1) 
0

>  <r_i_glide_esite>  (1) 
0

>  <r_i_glide_emodel>  (1) 
-42.3568

>  <r_i_glide_energy>  (1) 
-35.0196

>  <r_i_glide_einternal>  (1) 
0.842026

>  <r_i_glide_intrahb_reward>  (1) 
-0

>  <i_i_glide_confnum>  (1) 
2

>  <i_i_glide_posenum>  (1) 
9

>  <r_i_glide_eff_state_penalty>  (1) 
0

>  <ligand_id>  (1) 
0

>  <original_smiles>  (1) 
CC1CCC2(C)CCC3(C)C(=C2C1C)CCC1C2(C)CC(O)C(O)C(C)(C)C2CCC13C

>  <smiles>  (1) 
[H]OC1([H])C([H])([H])C2(C([H])([H])[H])C([H])(C([H])([H])C([H])([H])C3(C([H])([H])[H])C2([H])C([H])([H])C([H])([H])C2=C4C([H])(C([H])([H])[H])C([H])(C([H])([H])[H])C([H])([H])C([H])([H])C4(C([H])([H])[H])C([H])([H])C([H])([H])C23C([H])([H])[H])C(C([H])([H])[H])(C([H])([H])[H])C1([H])O[H]

$$$$
0:0:1
     RDKit          3D

 82 86  0  0  1  0  0  0  0  0999 V2000
   -0.1580   -6.7878    3.9757 C   0  0  0  0  0  0  0  0  0  0  0  0
    0.0310   -8.3131    4.1117 C   0  0  2  0  0  0  0  0  0  0  0  0
    0.2437   -8.7451    5.5627 C   0  0  0  0  0  0  0  0  0  0  0  0
    1.5777   -8.2117    6.0869 C   0  0  0  0  0  0  0  0  0  0  0  0
    2.8097   -8.6251    5.2372 C   0  0  2  0  0  0  0  0  0  0  0  0
    3.1871  -10.0837    5.5899 C   0  0  0  0  0  0  0  0  0  0  0  0
    3.9493   -7.6864    5.6628 C   0  0  0  0  0  0  0  0  0  0  0  0
    5.2163   -7.8789    4.8353 C   0  0  0  0  0  0  0  0  0  0  0  0
    5.0347   -7.7377    3.2851 C   0  0  1  0  0  0  0  0  0  0  0  0
    6.0000   -8.8066    2.6791 C   0  0  0  0  0  0  0  0  0  0  0  0
    3.5945   -8.1183    2.8666 C   0  0  0  0  0  0  0  0  0  0  0  0
    2.5899   -8.4957    3.7123 C   0  0  0  0  0  0  0  0  0  0  0  0
    1.1689   -8.8355    3.2109 C   0  0  1  0  0  0  0  0  0  0  0  0
    1.0215  -10.3309    2.8829 C   0  0  0  0  0  0  0  0  0  0  0  0
    3.4442   -8.0411    1.3588 C   0  0  0  0  0  0  0  0  0  0  0  0
    3.6582   -6.6072    0.9050 C   0  0  0  0  0  0  0  0  0  0  0  0
    5.0869   -6.0491    1.2082 C   0  0  1  0  0  0  0  0  0  0  0  0
    5.2601   -4.5691    0.6113 C   0  0  2  0  0  0  0  0  0  0  0  0
    4.7521   -4.6463   -0.8544 C   0  0  0  0  0  0  0  0  0  0  0  0
    6.7450   -4.0721    0.5295 C   0  0  0  0  0  0  0  0  0  0  0  0
    6.9854   -2.5866    0.1517 C   0  0  1  0  0  0  0  0  0  0  0  0
    7.0003   -2.3604   -1.2498 O   0  0  0  0  0  0  0  0  0  0  0  0
    6.0560   -1.6239    0.9340 C   0  0  1  0  0  0  0  0  0  0  0  0
    6.2092   -0.2887    0.4835 O   0  0  0  0  0  0  0  0  0  0  0  0
    4.5554   -2.0351    1.0099 C   0  0  0  0  0  0  0  0  0  0  0  0
    3.8412   -1.1123    2.0377 C   0  0  0  0  0  0  0  0  0  0  0  0
    3.8183   -1.7637   -0.3302 C   0  0  0  0  0  0  0  0  0  0  0  0
    4.4357   -3.5457    1.4704 C   0  0  2  0  0  0  0  0  0  0  0  0
    4.7879   -3.7417    2.9724 C   0  0  0  0  0  0  0  0  0  0  0  0
    4.6287   -5.1773    3.5068 C   0  0  0  0  0  0  0  0  0  0  0  0
    5.4237   -6.2724    2.7442 C   0  0  1  0  0  0  0  0  0  0  0  0
    6.9499   -6.0857    2.9947 C   0  0  0  0  0  0  0  0  0  0  0  0
    0.7616   -6.2416    4.1881 H   0  0  0  0  0  0  0  0  0  0  0  0
   -0.9283   -6.4223    4.6559 H   0  0  0  0  0  0  0  0  0  0  0  0
   -0.4591   -6.5300    2.9615 H   0  0  0  0  0  0  0  0  0  0  0  0
   -0.9051   -8.7670    3.7777 H   0  0  0  0  0  0  0  0  0  0  0  0
   -0.5795   -8.3872    6.1796 H   0  0  0  0  0  0  0  0  0  0  0  0
    0.2125   -9.8329    5.6346 H   0  0  0  0  0  0  0  0  0  0  0  0
    1.5108   -7.1253    6.1489 H   0  0  0  0  0  0  0  0  0  0  0  0
    1.7145   -8.5469    7.1144 H   0  0  0  0  0  0  0  0  0  0  0  0
    3.5903  -10.1576    6.6001 H   0  0  0  0  0  0  0  0  0  0  0  0
    3.9363  -10.4830    4.9049 H   0  0  0  0  0  0  0  0  0  0  0  0
    2.3312  -10.7557    5.5544 H   0  0  0  0  0  0  0  0  0  0  0  0
    3.6183   -6.6537    5.5807 H   0  0  0  0  0  0  0  0  0  0  0  0
    4.1804   -7.8356    6.7168 H   0  0  0  0  0  0  0  0  0  0  0  0
    5.9667   -7.1974    5.2285 H   0  0  0  0  0  0  0  0  0  0  0  0
    5.6052   -8.8692    5.0737 H   0  0  0  0  0  0  0  0  0  0  0  0
    6.9813   -8.8064    3.1537 H   0  0  0  0  0  0  0  0  0  0  0  0
    6.1818   -8.6747    1.6135 H   0  0  0  0  0  0  0  0  0  0  0  0
    5.5992   -9.8123    2.8168 H   0  0  0  0  0  0  0  0  0  0  0  0
    0.9829   -8.3145    2.2789 H   0  0  0  0  0  0  0  0  0  0  0  0
    1.7976  -10.6426    2.1832 H   0  0  0  0  0  0  0  0  0  0  0  0
    0.0571  -10.5435    2.4177 H   0  0  0  0  0  0  0  0  0  0  0  0
    1.1007  -10.9689    3.7620 H   0  0  0  0  0  0  0  0  0  0  0  0
    4.1623   -8.6964    0.8718 H   0  0  0  0  0  0  0  0  0  0  0  0
    2.4981   -8.4129    0.9851 H   0  0  0  0  0  0  0  0  0  0  0  0
    3.4385   -6.6158   -0.1571 H   0  0  0  0  0  0  0  0  0  0  0  0
    2.8883   -5.9839    1.3634 H   0  0  0  0  0  0  0  0  0  0  0  0
    5.7678   -6.6775    0.6356 H   0  0  0  0  0  0  0  0  0  0  0  0
    5.1663   -3.9058   -1.5258 H   0  0  0  0  0  0  0  0  0  0  0  0
    3.6667   -4.5529   -0.9147 H   0  0  0  0  0  0  0  0  0  0  0  0
    5.0179   -5.5987   -1.3171 H   0  0  0  0  0  0  0  0  0  0  0  0
    7.1938   -4.1227    1.5074 H   0  0  0  0  0  0  0  0  0  0  0  0
    7.3451   -4.7278   -0.0988 H   0  0  0  0  0  0  0  0  0  0  0  0
    8.0046   -2.3436    0.4483 H   0  0  0  0  0  0  0  0  0  0  0  0
    7.5151   -3.0394   -1.6632 H   0  0  0  0  0  0  0  0  0  0  0  0
    6.4262   -1.6148    1.9583 H   0  0  0  0  0  0  0  0  0  0  0  0
    6.9384    0.1093    0.9467 H   0  0  0  0  0  0  0  0  0  0  0  0
    2.8341   -1.4699    2.2638 H   0  0  0  0  0  0  0  0  0  0  0  0
    3.7439   -0.0881    1.6700 H   0  0  0  0  0  0  0  0  0  0  0  0
    4.3943   -1.0367    2.9752 H   0  0  0  0  0  0  0  0  0  0  0  0
    2.8888   -2.3360   -0.4086 H   0  0  0  0  0  0  0  0  0  0  0  0
    4.4253   -1.9791   -1.2014 H   0  0  0  0  0  0  0  0  0  0  0  0
    3.5431   -0.7135   -0.4415 H   0  0  0  0  0  0  0  0  0  0  0  0
    3.3791   -3.8018    1.3808 H   0  0  0  0  0  0  0  0  0  0  0  0
    5.7967   -3.3922    3.1747 H   0  0  0  0  0  0  0  0  0  0  0  0
    4.1408   -3.1325    3.5969 H   0  0  0  0  0  0  0  0  0  0  0  0
    4.9275   -5.1664    4.5548 H   0  0  0  0  0  0  0  0  0  0  0  0
    3.5666   -5.4236    3.5001 H   0  0  0  0  0  0  0  0  0  0  0  0
    7.1769   -5.0878    3.3500 H   0  0  0  0  0  0  0  0  0  0  0  0
    7.5385   -6.2843    2.0977 H   0  0  0  0  0  0  0  0  0  0  0  0
    7.3747   -6.7313    3.7596 H   0  0  0  0  0  0  0  0  0  0  0  0
  1  2  1  0
  1 33  1  0
  1 34  1  0
  1 35  1  0
  2 13  1  0
  2  3  1  0
  2 36  1  6
  3  4  1  0
  3 37  1  0
  3 38  1  0
  4  5  1  0
  4 39  1  0
  4 40  1  0
  5 12  1  0
  5  6  1  6
  5  7  1  0
  6 41  1  0
  6 42  1  0
  6 43  1  0
  7  8  1  0
  7 44  1  0
  7 45  1  0
  8  9  1  0
  8 46  1  0
  8 47  1  0
  9 31  1  0
  9 10  1  6
  9 11  1  0
 10 48  1  0
 10 49  1  0
 10 50  1  0
 11 12  2  0
 11 15  1  0
 12 13  1  0
 13 14  1  0
 13 51  1  6
 14 52  1  0
 14 53  1  0
 14 54  1  0
 15 16  1  0
 15 55  1  0
 15 56  1  0
 16 17  1  0
 16 57  1  0
 16 58  1  0
 17 31  1  0
 17 18  1  0
 17 59  1  6
 18 28  1  0
 18 19  1  6
 18 20  1  0
 19 60  1  0
 19 61  1  0
 19 62  1  0
 20 21  1  0
 20 63  1  0
 20 64  1  0
 21 22  1  0
 21 23  1  0
 21 65  1  1
 22 66  1  0
 23 24  1  0
 23 25  1  0
 23 67  1  1
 24 68  1  0
 25 26  1  0
 25 27  1  0
 25 28  1  0
 26 69  1  0
 26 70  1  0
 26 71  1  0
 27 72  1  0
 27 73  1  0
 27 74  1  0
 28 29  1  0
 28 75  1  1
 29 30  1  0
 29 76  1  0
 29 77  1  0
 30 31  1  0
 30 78  1  0
 30 79  1  0
 31 32  1  6
 32 80  1  0
 32 81  1  0
 32 82  1  0
M  END
>  <i_m_ct_stereo_status>  (2) 
1

>  <s_m_source_file>  (2) 
/var/tmp/pbs.5076255.sched01/tmpmjg_sug8/0d5zvyqle.sdf

>  <i_m_source_file_index>  (2) 
1

>  <i_lp_mmshare_version>  (2) 
48012

>  <i_f3d_flags>  (2) 
0

>  <s_epik_input>  (2) 
W0NIMl0xW0NIMl1bQ0BASF0oW0NIM10pW0NASF0oW0NIM10pQyhbQ0BdMTJbQ0gzXSk9QzNbQ0BdKFtDSDNdKShbQ0gyXVtDSDJdMilbQ0BAXTQoW0NIM10pW0NAQEhdKFtDSDJdW0NIMl0zKVtDQEBdNShbQ0gzXSlbQ0BASF0oW0NIMl1bQ0gyXTQpQyhbQ0gzXSkoW0NIM10pW0NASF0oW09IXSlbQ0BASF0oW0NIMl01KVtPSF0=

>  <s_epik_cmdline>  (2) 
J2VwaWtfcHl0aG9uJywgJy1waHQnLCAnMi4wJywgJy1waCcsICc3LjAnLCAnLXRuJywgJzgnLCAnLW1hJywgJzIwMCcsICctaW1hZScsICc8aW5maWxlLm1hZT4nLCAnLW9tYWUnLCAnPG91dGZpbGUubWFlPic=

>  <r_lp_tautomer_probability>  (2) 
1

>  <r_epik_Ionization_Penalty>  (2) 
1.48476e-06

>  <r_epik_Ionization_Penalty_Charging>  (2) 
0

>  <r_epik_Ionization_Penalty_Neutral>  (2) 
1.48476e-06

>  <r_epik_State_Penalty>  (2) 
-0

>  <r_epik_Charging_Adjusted_Penalty>  (2) 
0

>  <i_epik_Tot_Q>  (2) 
0

>  <i_epik_Tot_abs_Q>  (2) 
0

>  <s_lp_Force_Field>  (2) 
OPLS3e

>  <r_lp_Energy>  (2) 
97.0771

>  <b_lp_Chiralities_Consistent>  (2) 
1

>  <s_lp_Variant>  (2) 
0:0-1

>  <s_i_glide_gridfile>  (2) 
pfpi4k_grid

>  <i_i_glide_lignum>  (2) 
1

>  <i_i_glide_rotatable_bonds>  (2) 
2

>  <r_i_docking_score>  (2) 
-3.4779

>  <r_i_glide_ligand_efficiency>  (2) 
-0.108684

>  <r_i_glide_ligand_efficiency_sa>  (2) 
-0.345051

>  <r_i_glide_ligand_efficiency_ln>  (2) 
-0.778796

>  <r_i_glide_gscore>  (2) 
-3.4779

>  <r_i_glide_lipo>  (2) 
-0.781842

>  <r_i_glide_hbond>  (2) 
0

>  <r_i_glide_metal>  (2) 
-0

>  <r_i_glide_rewards>  (2) 
-0.390567

>  <r_i_glide_evdw>  (2) 
-29.4755

>  <r_i_glide_ecoul>  (2) 
-5.54478

>  <r_i_glide_erotb>  (2) 
0

>  <r_i_glide_esite>  (2) 
0

>  <r_i_glide_emodel>  (2) 
-42.018

>  <r_i_glide_energy>  (2) 
-35.0202

>  <r_i_glide_einternal>  (2) 
1.32983

>  <r_i_glide_intrahb_reward>  (2) 
-0

>  <i_i_glide_confnum>  (2) 
1

>  <i_i_glide_posenum>  (2) 
1

>  <r_i_glide_eff_state_penalty>  (2) 
0

>  <ligand_id>  (2) 
0

>  <original_smiles>  (2) 
CC1CCC2(C)CCC3(C)C(=C2C1C)CCC1C2(C)CC(O)C(O)C(C)(C)C2CCC13C

>  <smiles>  (2) 
[H]OC1([H])C([H])([H])C2(C([H])([H])[H])C([H])(C([H])([H])C([H])([H])C3(C([H])([H])[H])C2([H])C([H])([H])C([H])([H])C2=C4C([H])(C([H])([H])[H])C([H])(C([H])([H])[H])C([H])([H])C([H])([H])C4(C([H])([H])[H])C([H])([H])C([H])([H])C23C([H])([H])[H])C(C([H])([H])[H])(C([H])([H])[H])C1([H])O[H]

$$$$
0:0:2
     RDKit          3D

 82 86  0  0  1  0  0  0  0  0999 V2000
    1.3042   -2.1469    3.2617 C   0  0  0  0  0  0  0  0  0  0  0  0
    2.5657   -1.2695    3.1344 C   0  0  2  0  0  0  0  0  0  0  0  0
    2.7393   -0.6921    1.7281 C   0  0  0  0  0  0  0  0  0  0  0  0
    3.0383   -1.8128    0.7322 C   0  0  0  0  0  0  0  0  0  0  0  0
    4.2719   -2.6846    1.0847 C   0  0  2  0  0  0  0  0  0  0  0  0
    5.5548   -1.9151    0.6914 C   0  0  0  0  0  0  0  0  0  0  0  0
    4.1463   -3.9508    0.2211 C   0  0  0  0  0  0  0  0  0  0  0  0
    5.2187   -4.9880    0.5341 C   0  0  0  0  0  0  0  0  0  0  0  0
    5.3019   -5.4374    2.0325 C   0  0  1  0  0  0  0  0  0  0  0  0
    6.8280   -5.6358    2.2893 C   0  0  0  0  0  0  0  0  0  0  0  0
    4.8100   -4.3059    2.9729 C   0  0  0  0  0  0  0  0  0  0  0  0
    4.3331   -3.0887    2.5717 C   0  0  0  0  0  0  0  0  0  0  0  0
    3.8366   -2.0244    3.5790 C   0  0  1  0  0  0  0  0  0  0  0  0
    4.9636   -1.0729    4.0153 C   0  0  0  0  0  0  0  0  0  0  0  0
    4.9564   -4.7151    4.4269 C   0  0  0  0  0  0  0  0  0  0  0  0
    4.0657   -5.9126    4.7025 C   0  0  0  0  0  0  0  0  0  0  0  0
    4.4402   -7.1844    3.8671 C   0  0  1  0  0  0  0  0  0  0  0  0
    3.5268   -8.4337    4.2865 C   0  0  2  0  0  0  0  0  0  0  0  0
    3.5836   -8.4798    5.8440 C   0  0  0  0  0  0  0  0  0  0  0  0
    4.0565   -9.8246    3.7846 C   0  0  0  0  0  0  0  0  0  0  0  0
    3.1267  -11.0481    3.9725 C   0  0  1  0  0  0  0  0  0  0  0  0
    3.2439  -11.5963    5.2705 O   0  0  0  0  0  0  0  0  0  0  0  0
    1.6734  -10.7582    3.5451 C   0  0  1  0  0  0  0  0  0  0  0  0
    0.8555  -11.8585    3.8989 O   0  0  0  0  0  0  0  0  0  0  0  0
    1.0672   -9.4096    4.0363 C   0  0  0  0  0  0  0  0  0  0  0  0
   -0.2703   -9.1646    3.2870 C   0  0  0  0  0  0  0  0  0  0  0  0
    0.6843   -9.4694    5.5406 C   0  0  0  0  0  0  0  0  0  0  0  0
    2.0688   -8.2285    3.7306 C   0  0  2  0  0  0  0  0  0  0  0  0
    2.1360   -7.8859    2.2120 C   0  0  0  0  0  0  0  0  0  0  0  0
    3.0380   -6.6943    1.8469 C   0  0  0  0  0  0  0  0  0  0  0  0
    4.5091   -6.8085    2.3227 C   0  0  1  0  0  0  0  0  0  0  0  0
    5.2282   -7.9342    1.5189 C   0  0  0  0  0  0  0  0  0  0  0  0
    1.3991   -3.0758    2.6968 H   0  0  0  0  0  0  0  0  0  0  0  0
    0.4269   -1.6173    2.8880 H   0  0  0  0  0  0  0  0  0  0  0  0
    1.1082   -2.4175    4.2998 H   0  0  0  0  0  0  0  0  0  0  0  0
    2.4112   -0.4269    3.8114 H   0  0  0  0  0  0  0  0  0  0  0  0
    1.8349   -0.1604    1.4213 H   0  0  0  0  0  0  0  0  0  0  0  0
    3.5385    0.0495    1.7241 H   0  0  0  0  0  0  0  0  0  0  0  0
    2.1527   -2.4382    0.6474 H   0  0  0  0  0  0  0  0  0  0  0  0
    3.1722   -1.3747   -0.2582 H   0  0  0  0  0  0  0  0  0  0  0  0
    5.6498   -1.8397   -0.3925 H   0  0  0  0  0  0  0  0  0  0  0  0
    6.4513   -2.4074    1.0718 H   0  0  0  0  0  0  0  0  0  0  0  0
    5.5581   -0.8966    1.0744 H   0  0  0  0  0  0  0  0  0  0  0  0
    3.1642   -4.3955    0.3672 H   0  0  0  0  0  0  0  0  0  0  0  0
    4.1908   -3.6899   -0.8360 H   0  0  0  0  0  0  0  0  0  0  0  0
    5.0672   -5.8234   -0.1456 H   0  0  0  0  0  0  0  0  0  0  0  0
    6.1719   -4.5613    0.2208 H   0  0  0  0  0  0  0  0  0  0  0  0
    7.3258   -6.1885    1.4916 H   0  0  0  0  0  0  0  0  0  0  0  0
    7.0495   -6.1731    3.2098 H   0  0  0  0  0  0  0  0  0  0  0  0
    7.3326   -4.6693    2.3393 H   0  0  0  0  0  0  0  0  0  0  0  0
    3.4992   -2.5200    4.4812 H   0  0  0  0  0  0  0  0  0  0  0  0
    5.8125   -1.6382    4.4093 H   0  0  0  0  0  0  0  0  0  0  0  0
    4.6214   -0.3978    4.8006 H   0  0  0  0  0  0  0  0  0  0  0  0
    5.3322   -0.4541    3.2007 H   0  0  0  0  0  0  0  0  0  0  0  0
    5.9918   -4.9662    4.6480 H   0  0  0  0  0  0  0  0  0  0  0  0
    4.7404   -3.9320    5.1446 H   0  0  0  0  0  0  0  0  0  0  0  0
    4.1482   -6.0757    5.7735 H   0  0  0  0  0  0  0  0  0  0  0  0
    3.0293   -5.6228    4.5233 H   0  0  0  0  0  0  0  0  0  0  0  0
    5.4531   -7.4478    4.1758 H   0  0  0  0  0  0  0  0  0  0  0  0
    3.3754   -9.4484    6.2779 H   0  0  0  0  0  0  0  0  0  0  0  0
    2.8811   -7.7825    6.3029 H   0  0  0  0  0  0  0  0  0  0  0  0
    4.5867   -8.2448    6.2062 H   0  0  0  0  0  0  0  0  0  0  0  0
    4.1803   -9.8070    2.7142 H   0  0  0  0  0  0  0  0  0  0  0  0
    5.0440  -10.0366    4.1967 H   0  0  0  0  0  0  0  0  0  0  0  0
    3.4913  -11.8425    3.3218 H   0  0  0  0  0  0  0  0  0  0  0  0
    2.5386  -12.2169    5.4308 H   0  0  0  0  0  0  0  0  0  0  0  0
    1.6808  -10.7265    2.4583 H   0  0  0  0  0  0  0  0  0  0  0  0
    1.2496  -12.6575    3.5783 H   0  0  0  0  0  0  0  0  0  0  0  0
   -0.6550   -8.1594    3.4659 H   0  0  0  0  0  0  0  0  0  0  0  0
   -1.0406   -9.8585    3.6177 H   0  0  0  0  0  0  0  0  0  0  0  0
   -0.1837   -9.3182    2.2105 H   0  0  0  0  0  0  0  0  0  0  0  0
    0.5755   -8.4773    5.9815 H   0  0  0  0  0  0  0  0  0  0  0  0
    1.3880  -10.0412    6.1383 H   0  0  0  0  0  0  0  0  0  0  0  0
   -0.2583   -9.9861    5.6961 H   0  0  0  0  0  0  0  0  0  0  0  0
    1.6449   -7.3458    4.2128 H   0  0  0  0  0  0  0  0  0  0  0  0
    2.4360   -8.7598    1.6372 H   0  0  0  0  0  0  0  0  0  0  0  0
    1.1503   -7.6224    1.8361 H   0  0  0  0  0  0  0  0  0  0  0  0
    3.0073   -6.5869    0.7633 H   0  0  0  0  0  0  0  0  0  0  0  0
    2.5874   -5.7897    2.2553 H   0  0  0  0  0  0  0  0  0  0  0  0
    4.5410   -8.6283    1.0392 H   0  0  0  0  0  0  0  0  0  0  0  0
    5.9212   -8.4973    2.1456 H   0  0  0  0  0  0  0  0  0  0  0  0
    5.8286   -7.5674    0.6970 H   0  0  0  0  0  0  0  0  0  0  0  0
  1  2  1  0
  1 33  1  0
  1 34  1  0
  1 35  1  0
  2 13  1  0
  2  3  1  0
  2 36  1  1
  3  4  1  0
  3 37  1  0
  3 38  1  0
  4  5  1  0
  4 39  1  0
  4 40  1  0
  5 12  1  0
  5  6  1  6
  5  7  1  0
  6 41  1  0
  6 42  1  0
  6 43  1  0
  7  8  1  0
  7 44  1  0
  7 45  1  0
  8  9  1  0
  8 46  1  0
  8 47  1  0
  9 31  1  0
  9 10  1  1
  9 11  1  0
 10 48  1  0
 10 49  1  0
 10 50  1  0
 11 12  2  0
 11 15  1  0
 12 13  1  0
 13 14  1  0
 13 51  1  1
 14 52  1  0
 14 53  1  0
 14 54  1  0
 15 16  1  0
 15 55  1  0
 15 56  1  0
 16 17  1  0
 16 57  1  0
 16 58  1  0
 17 31  1  0
 17 18  1  0
 17 59  1  1
 18 28  1  0
 18 19  1  1
 18 20  1  0
 19 60  1  0
 19 61  1  0
 19 62  1  0
 20 21  1  0
 20 63  1  0
 20 64  1  0
 21 22  1  0
 21 23  1  0
 21 65  1  6
 22 66  1  0
 23 24  1  0
 23 25  1  0
 23 67  1  6
 24 68  1  0
 25 26  1  0
 25 27  1  0
 25 28  1  0
 26 69  1  0
 26 70  1  0
 26 71  1  0
 27 72  1  0
 27 73  1  0
 27 74  1  0
 28 29  1  0
 28 75  1  1
 29 30  1  0
 29 76  1  0
 29 77  1  0
 30 31  1  0
 30 78  1  0
 30 79  1  0
 31 32  1  6
 32 80  1  0
 32 81  1  0
 32 82  1  0
M  END
>  <i_m_ct_stereo_status>  (3) 
1

>  <s_m_source_file>  (3) 
/var/tmp/pbs.5076255.sched01/tmpmjg_sug8/0d5zvyqle.sdf

>  <i_m_source_file_index>  (3) 
1

>  <i_lp_mmshare_version>  (3) 
48012

>  <i_f3d_flags>  (3) 
0

>  <s_epik_input>  (3) 
W0NIMl0xW0NIMl1bQ0BASF0oW0NIM10pW0NASF0oW0NIM10pQyhbQ0BdMTJbQ0gzXSk9QzNbQ0BdKFtDSDNdKShbQ0gyXVtDSDJdMilbQ0BAXTQoW0NIM10pW0NAQEhdKFtDSDJdW0NIMl0zKVtDQEBdNShbQ0gzXSlbQ0BASF0oW0NIMl1bQ0gyXTQpQyhbQ0gzXSkoW0NIM10pW0NASF0oW09IXSlbQ0BASF0oW0NIMl01KVtPSF0=

>  <s_epik_cmdline>  (3) 
J2VwaWtfcHl0aG9uJywgJy1waHQnLCAnMi4wJywgJy1waCcsICc3LjAnLCAnLXRuJywgJzgnLCAnLW1hJywgJzIwMCcsICctaW1hZScsICc8aW5maWxlLm1hZT4nLCAnLW9tYWUnLCAnPG91dGZpbGUubWFlPic=

>  <r_lp_tautomer_probability>  (3) 
1

>  <r_epik_Ionization_Penalty>  (3) 
1.48476e-06

>  <r_epik_Ionization_Penalty_Charging>  (3) 
0

>  <r_epik_Ionization_Penalty_Neutral>  (3) 
1.48476e-06

>  <r_epik_State_Penalty>  (3) 
-0

>  <r_epik_Charging_Adjusted_Penalty>  (3) 
0

>  <i_epik_Tot_Q>  (3) 
0

>  <i_epik_Tot_abs_Q>  (3) 
0

>  <s_lp_Force_Field>  (3) 
OPLS3e

>  <r_lp_Energy>  (3) 
97.0771

>  <b_lp_Chiralities_Consistent>  (3) 
1

>  <s_lp_Variant>  (3) 
0:0-1

>  <s_i_glide_gridfile>  (3) 
pfpi4k_grid

>  <i_i_glide_lignum>  (3) 
1

>  <i_i_glide_rotatable_bonds>  (3) 
2

>  <r_i_docking_score>  (3) 
-3.00926

>  <r_i_glide_ligand_efficiency>  (3) 
-0.0940395

>  <r_i_glide_ligand_efficiency_sa>  (3) 
-0.298557

>  <r_i_glide_ligand_efficiency_ln>  (3) 
-0.673856

>  <r_i_glide_gscore>  (3) 
-3.00926

>  <r_i_glide_lipo>  (3) 
-0.563707

>  <r_i_glide_hbond>  (3) 
0

>  <r_i_glide_metal>  (3) 
-0

>  <r_i_glide_rewards>  (3) 
-0.390567

>  <r_i_glide_evdw>  (3) 
-30.1376

>  <r_i_glide_ecoul>  (3) 
-3.65407

>  <r_i_glide_erotb>  (3) 
0

>  <r_i_glide_esite>  (3) 
0

>  <r_i_glide_emodel>  (3) 
-39.9012

>  <r_i_glide_energy>  (3) 
-33.7916

>  <r_i_glide_einternal>  (3) 
0.987219

>  <r_i_glide_intrahb_reward>  (3) 
-0

>  <i_i_glide_confnum>  (3) 
1

>  <i_i_glide_posenum>  (3) 
26

>  <r_i_glide_eff_state_penalty>  (3) 
0

>  <ligand_id>  (3) 
0

>  <original_smiles>  (3) 
CC1CCC2(C)CCC3(C)C(=C2C1C)CCC1C2(C)CC(O)C(O)C(C)(C)C2CCC13C

>  <smiles>  (3) 
[H]OC1([H])C([H])([H])C2(C([H])([H])[H])C([H])(C([H])([H])C([H])([H])C3(C([H])([H])[H])C2([H])C([H])([H])C([H])([H])C2=C4C([H])(C([H])([H])[H])C([H])(C([H])([H])[H])C([H])([H])C([H])([H])C4(C([H])([H])[H])C([H])([H])C([H])([H])C23C([H])([H])[H])C(C([H])([H])[H])(C([H])([H])[H])C1([H])O[H]

$$$$
1:0:0
     RDKit          3D

 47 51  0  0  1  0  0  0  0  0999 V2000
    6.5487   -2.2303    0.6335 C   0  0  0  0  0  0  0  0  0  0  0  0
    5.3461   -3.1070    0.2266 C   0  0  2  0  0  0  0  0  0  0  0  0
    4.0217   -2.4980    0.7250 C   0  0  0  0  0  0  0  0  0  0  0  0
    2.8139   -3.4010    0.4019 C   0  0  0  0  0  0  0  0  0  0  0  0
    2.9757   -4.8297    0.9717 C   0  0  0  0  0  0  0  0  0  0  0  0
    4.2901   -5.4312    0.4200 C   0  0  0  0  0  0  0  0  0  0  0  0
    5.5052   -4.5461    0.7506 C   0  0  0  0  0  0  0  0  0  0  0  0
    1.8458   -5.6015    0.5738 O   0  0  0  0  0  0  0  0  0  0  0  0
    1.9723   -6.9903    1.1684 O   0  0  0  0  0  0  0  0  0  0  0  0
    2.0302   -6.9032    2.5921 C   0  0  0  0  0  0  0  0  0  0  0  0
    3.1498   -6.1066    2.9756 O   0  0  0  0  0  0  0  0  0  0  0  0
    2.9955   -4.7257    2.3890 O   0  0  0  0  0  0  0  0  0  0  0  0
    0.6932   -6.3656    3.1805 C   0  0  2  0  0  0  0  0  0  0  0  0
    0.7661   -6.3147    4.7243 C   0  0  0  0  0  0  0  0  0  0  0  0
    0.9959   -7.7319    5.2807 C   0  0  1  0  0  0  0  0  0  0  0  0
   -0.1769   -8.6474    4.8709 C   0  0  0  0  0  0  0  0  0  0  0  0
   -0.2467   -8.7069    3.3336 C   0  0  1  0  0  0  0  0  0  0  0  0
   -0.4797   -7.2904    2.7700 C   0  0  0  0  0  0  0  0  0  0  0  0
    1.0788   -9.2712    2.7782 C   0  0  0  0  0  0  0  0  0  0  0  0
    2.2516   -8.3374    3.1671 C   0  0  2  0  0  0  0  0  0  0  0  0
    2.3223   -8.2857    4.7158 C   0  0  0  0  0  0  0  0  0  0  0  0
    6.6208   -2.1551    1.7204 H   0  0  0  0  0  0  0  0  0  0  0  0
    6.4662   -1.2140    0.2459 H   0  0  0  0  0  0  0  0  0  0  0  0
    7.4921   -2.6467    0.2708 H   0  0  0  0  0  0  0  0  0  0  0  0
    5.3151   -3.1391   -0.8668 H   0  0  0  0  0  0  0  0  0  0  0  0
    4.0772   -2.3399    1.8029 H   0  0  0  0  0  0  0  0  0  0  0  0
    3.8740   -1.5140    0.2770 H   0  0  0  0  0  0  0  0  0  0  0  0
    1.9118   -2.9278    0.7947 H   0  0  0  0  0  0  0  0  0  0  0  0
    2.6864   -3.4468   -0.6833 H   0  0  0  0  0  0  0  0  0  0  0  0
    4.4671   -6.4382    0.7943 H   0  0  0  0  0  0  0  0  0  0  0  0
    4.2096   -5.5310   -0.6625 H   0  0  0  0  0  0  0  0  0  0  0  0
    6.4080   -4.9931    0.3295 H   0  0  0  0  0  0  0  0  0  0  0  0
    5.6458   -4.5234    1.8323 H   0  0  0  0  0  0  0  0  0  0  0  0
    0.5051   -5.3592    2.8134 H   0  0  0  0  0  0  0  0  0  0  0  0
    1.5710   -5.6593    5.0502 H   0  0  0  0  0  0  0  0  0  0  0  0
   -0.1516   -5.8998    5.1399 H   0  0  0  0  0  0  0  0  0  0  0  0
    1.0521   -7.7001    6.3678 H   0  0  0  0  0  0  0  0  0  0  0  0
   -0.0559   -9.6503    5.2897 H   0  0  0  0  0  0  0  0  0  0  0  0
   -1.1178   -8.2686    5.2729 H   0  0  0  0  0  0  0  0  0  0  0  0
   -1.0679   -9.3657    3.0510 H   0  0  0  0  0  0  0  0  0  0  0  0
   -1.4285   -6.9045    3.1425 H   0  0  0  0  0  0  0  0  0  0  0  0
   -0.5762   -7.3437    1.6865 H   0  0  0  0  0  0  0  0  0  0  0  0
    1.2436  -10.2787    3.1725 H   0  0  0  0  0  0  0  0  0  0  0  0
    1.0156   -9.3773    1.6935 H   0  0  0  0  0  0  0  0  0  0  0  0
    3.1802   -8.7590    2.7723 H   0  0  0  0  0  0  0  0  0  0  0  0
    3.1524   -7.6575    5.0452 H   0  0  0  0  0  0  0  0  0  0  0  0
    2.5103   -9.2815    5.1264 H   0  0  0  0  0  0  0  0  0  0  0  0
  1  2  1  0
  1 22  1  0
  1 23  1  0
  1 24  1  0
  2  7  1  0
  2  3  1  0
  2 25  1  6
  3  4  1  0
  3 26  1  0
  3 27  1  0
  4  5  1  0
  4 28  1  0
  4 29  1  0
  5 12  1  0
  5  6  1  0
  5  8  1  0
  6  7  1  0
  6 30  1  0
  6 31  1  0
  7 32  1  0
  7 33  1  0
  8  9  1  0
  9 10  1  0
 10 20  1  0
 10 11  1  0
 10 13  1  0
 11 12  1  0
 13 18  1  0
 13 14  1  0
 13 34  1  6
 14 15  1  0
 14 35  1  0
 14 36  1  0
 15 21  1  0
 15 16  1  0
 15 37  1  1
 16 17  1  0
 16 38  1  0
 16 39  1  0
 17 18  1  0
 17 19  1  0
 17 40  1  1
 18 41  1  0
 18 42  1  0
 19 20  1  0
 19 43  1  0
 19 44  1  0
 20 21  1  0
 20 45  1  6
 21 46  1  0
 21 47  1  0
M  END
>  <i_m_ct_stereo_status>  (4) 
1

>  <s_m_source_file>  (4) 
/var/tmp/pbs.5076255.sched01/tmpmjg_sug8/0d5zvyqle.sdf

>  <i_m_source_file_index>  (4) 
2

>  <i_lp_mmshare_version>  (4) 
48012

>  <i_f3d_flags>  (4) 
0

>  <s_epik_input>  (4) 
W0NIMl0xW0NIMl1bQ0hdKFtDSDNdKVtDSDJdW0NIMl1DMTJPT0MzKE9PMilbQ0BASF00W0NIMl1bQ0BIXTVbQ0gyXVtDQEBIXShbQ0gyXTQpW0NIMl1bQ0BASF0zW0NIMl01

>  <s_epik_cmdline>  (4) 
J2VwaWtfcHl0aG9uJywgJy1waHQnLCAnMi4wJywgJy1waCcsICc3LjAnLCAnLXRuJywgJzgnLCAnLW1hJywgJzIwMCcsICctaW1hZScsICc8aW5maWxlLm1hZT4nLCAnLW9tYWUnLCAnPG91dGZpbGUubWFlPic=

>  <r_lp_tautomer_probability>  (4) 
1

>  <r_epik_Ionization_Penalty>  (4) 
0

>  <r_epik_Ionization_Penalty_Charging>  (4) 
0

>  <r_epik_Ionization_Penalty_Neutral>  (4) 
0

>  <r_epik_State_Penalty>  (4) 
-0

>  <r_epik_Charging_Adjusted_Penalty>  (4) 
0

>  <i_epik_Tot_Q>  (4) 
0

>  <i_epik_Tot_abs_Q>  (4) 
0

>  <s_lp_Force_Field>  (4) 
OPLS3e

>  <r_lp_Energy>  (4) 
-0.543675

>  <b_lp_Chiralities_Consistent>  (4) 
1

>  <s_lp_Variant>  (4) 
1:0-1

>  <s_i_glide_gridfile>  (4) 
pfpi4k_grid

>  <i_i_glide_lignum>  (4) 
2

>  <i_i_glide_rotatable_bonds>  (4) 
0

>  <r_i_docking_score>  (4) 
-3.11425

>  <r_i_glide_ligand_efficiency>  (4) 
-0.148297

>  <r_i_glide_ligand_efficiency_sa>  (4) 
-0.409141

>  <r_i_glide_ligand_efficiency_ln>  (4) 
-0.769991

>  <r_i_glide_gscore>  (4) 
-3.11425

>  <r_i_glide_lipo>  (4) 
-0.268082

>  <r_i_glide_hbond>  (4) 
-0.0857238

>  <r_i_glide_metal>  (4) 
-0

>  <r_i_glide_rewards>  (4) 
-1.40191

>  <r_i_glide_evdw>  (4) 
-22.3001

>  <r_i_glide_ecoul>  (4) 
-1.45672

>  <r_i_glide_erotb>  (4) 
0

>  <r_i_glide_esite>  (4) 
-0.0250117

>  <r_i_glide_emodel>  (4) 
-28.4741

>  <r_i_glide_energy>  (4) 
-23.7569

>  <r_i_glide_einternal>  (4) 
0

>  <r_i_glide_intrahb_reward>  (4) 
-0

>  <i_i_glide_confnum>  (4) 
2

>  <i_i_glide_posenum>  (4) 
38

>  <r_i_glide_eff_state_penalty>  (4) 
0

>  <ligand_id>  (4) 
1

>  <original_smiles>  (4) 
CC1CCC2(CC1)OOC1(OO2)C2CC3CC(C2)CC1C3

>  <smiles>  (4) 
[H]C([H])([H])C1([H])C([H])([H])C([H])([H])C2(OOC3(OO2)C2([H])C([H])([H])C4([H])C([H])([H])C([H])(C2([H])[H])C([H])([H])C3([H])C4([H])[H])C([H])([H])C1([H])[H]

$$$$
1:0:1
     RDKit          3D

 47 51  0  0  1  0  0  0  0  0999 V2000
   -0.6726   -7.4828    4.1935 C   0  0  0  0  0  0  0  0  0  0  0  0
    0.8092   -7.3117    3.8146 C   0  0  2  0  0  0  0  0  0  0  0  0
    1.2995   -5.8727    4.0791 C   0  0  0  0  0  0  0  0  0  0  0  0
    2.7603   -5.6500    3.6480 C   0  0  0  0  0  0  0  0  0  0  0  0
    2.9745   -5.9964    2.1565 C   0  0  0  0  0  0  0  0  0  0  0  0
    2.5207   -7.4575    1.9198 C   0  0  0  0  0  0  0  0  0  0  0  0
    1.0540   -7.6926    2.3395 C   0  0  0  0  0  0  0  0  0  0  0  0
    4.3508   -5.9110    1.7910 O   0  0  0  0  0  0  0  0  0  0  0  0
    4.8128   -4.4750    1.9278 O   0  0  0  0  0  0  0  0  0  0  0  0
    4.0171   -3.6373    1.0773 C   0  0  0  0  0  0  0  0  0  0  0  0
    2.6483   -3.7224    1.4835 O   0  0  0  0  0  0  0  0  0  0  0  0
    2.1920   -5.1493    1.3175 O   0  0  0  0  0  0  0  0  0  0  0  0
    4.5040   -2.1616    1.2517 C   0  0  2  0  0  0  0  0  0  0  0  0
    3.6662   -1.1993    0.3720 C   0  0  0  0  0  0  0  0  0  0  0  0
    3.8143   -1.5970   -1.1092 C   0  0  1  0  0  0  0  0  0  0  0  0
    5.2898   -1.4615   -1.5291 C   0  0  0  0  0  0  0  0  0  0  0  0
    6.1404   -2.4096   -0.6555 C   0  0  1  0  0  0  0  0  0  0  0  0
    5.9880   -2.0155    0.8296 C   0  0  0  0  0  0  0  0  0  0  0  0
    5.6633   -3.8588   -0.8527 C   0  0  0  0  0  0  0  0  0  0  0  0
    4.1863   -4.0058   -0.4290 C   0  0  2  0  0  0  0  0  0  0  0  0
    3.3326   -3.0497   -1.2966 C   0  0  0  0  0  0  0  0  0  0  0  0
   -1.3144   -6.8291    3.6023 H   0  0  0  0  0  0  0  0  0  0  0  0
   -0.8434   -7.2444    5.2441 H   0  0  0  0  0  0  0  0  0  0  0  0
   -1.0161   -8.5065    4.0362 H   0  0  0  0  0  0  0  0  0  0  0  0
    1.3926   -7.9941    4.4373 H   0  0  0  0  0  0  0  0  0  0  0  0
    0.6561   -5.1701    3.5491 H   0  0  0  0  0  0  0  0  0  0  0  0
    1.1972   -5.6478    5.1439 H   0  0  0  0  0  0  0  0  0  0  0  0
    3.0514   -4.6224    3.8635 H   0  0  0  0  0  0  0  0  0  0  0  0
    3.4131   -6.2785    4.2498 H   0  0  0  0  0  0  0  0  0  0  0  0
    2.6488   -7.7287    0.8787 H   0  0  0  0  0  0  0  0  0  0  0  0
    3.1675   -8.1346    2.4881 H   0  0  0  0  0  0  0  0  0  0  0  0
    0.7973   -8.7430    2.1826 H   0  0  0  0  0  0  0  0  0  0  0  0
    0.3930   -7.1147    1.6943 H   0  0  0  0  0  0  0  0  0  0  0  0
    4.4013   -1.8634    2.2945 H   0  0  0  0  0  0  0  0  0  0  0  0
    2.6151   -1.2249    0.6548 H   0  0  0  0  0  0  0  0  0  0  0  0
    3.9898   -0.1657    0.5139 H   0  0  0  0  0  0  0  0  0  0  0  0
    3.2137   -0.9286   -1.7272 H   0  0  0  0  0  0  0  0  0  0  0  0
    5.4065   -1.7062   -2.5867 H   0  0  0  0  0  0  0  0  0  0  0  0
    5.6181   -0.4295   -1.4124 H   0  0  0  0  0  0  0  0  0  0  0  0
    7.1851   -2.3222   -0.9529 H   0  0  0  0  0  0  0  0  0  0  0  0
    6.3313   -0.9896    0.9851 H   0  0  0  0  0  0  0  0  0  0  0  0
    6.6309   -2.6406    1.4499 H   0  0  0  0  0  0  0  0  0  0  0  0
    5.7849   -4.1453   -1.9004 H   0  0  0  0  0  0  0  0  0  0  0  0
    6.2959   -4.5363   -0.2726 H   0  0  0  0  0  0  0  0  0  0  0  0
    3.8748   -5.0363   -0.6239 H   0  0  0  0  0  0  0  0  0  0  0  0
    2.2803   -3.1078   -1.0215 H   0  0  0  0  0  0  0  0  0  0  0  0
    3.3917   -3.3230   -2.3503 H   0  0  0  0  0  0  0  0  0  0  0  0
  1  2  1  0
  1 22  1  0
  1 23  1  0
  1 24  1  0
  2  7  1  0
  2  3  1  0
  2 25  1  1
  3  4  1  0
  3 26  1  0
  3 27  1  0
  4  5  1  0
  4 28  1  0
  4 29  1  0
  5 12  1  0
  5  6  1  0
  5  8  1  0
  6  7  1  0
  6 30  1  0
  6 31  1  0
  7 32  1  0
  7 33  1  0
  8  9  1  0
  9 10  1  0
 10 20  1  0
 10 11  1  0
 10 13  1  0
 11 12  1  0
 13 18  1  0
 13 14  1  0
 13 34  1  1
 14 15  1  0
 14 35  1  0
 14 36  1  0
 15 21  1  0
 15 16  1  0
 15 37  1  6
 16 17  1  0
 16 38  1  0
 16 39  1  0
 17 18  1  0
 17 19  1  0
 17 40  1  6
 18 41  1  0
 18 42  1  0
 19 20  1  0
 19 43  1  0
 19 44  1  0
 20 21  1  0
 20 45  1  1
 21 46  1  0
 21 47  1  0
M  END
>  <i_m_ct_stereo_status>  (5) 
1

>  <s_m_source_file>  (5) 
/var/tmp/pbs.5076255.sched01/tmpmjg_sug8/0d5zvyqle.sdf

>  <i_m_source_file_index>  (5) 
2

>  <i_lp_mmshare_version>  (5) 
48012

>  <i_f3d_flags>  (5) 
0

>  <s_epik_input>  (5) 
W0NIMl0xW0NIMl1bQ0hdKFtDSDNdKVtDSDJdW0NIMl1DMTJPT0MzKE9PMilbQ0BASF00W0NIMl1bQ0BIXTVbQ0gyXVtDQEBIXShbQ0gyXTQpW0NIMl1bQ0BASF0zW0NIMl01

>  <s_epik_cmdline>  (5) 
J2VwaWtfcHl0aG9uJywgJy1waHQnLCAnMi4wJywgJy1waCcsICc3LjAnLCAnLXRuJywgJzgnLCAnLW1hJywgJzIwMCcsICctaW1hZScsICc8aW5maWxlLm1hZT4nLCAnLW9tYWUnLCAnPG91dGZpbGUubWFlPic=

>  <r_lp_tautomer_probability>  (5) 
1

>  <r_epik_Ionization_Penalty>  (5) 
0

>  <r_epik_Ionization_Penalty_Charging>  (5) 
0

>  <r_epik_Ionization_Penalty_Neutral>  (5) 
0

>  <r_epik_State_Penalty>  (5) 
-0

>  <r_epik_Charging_Adjusted_Penalty>  (5) 
0

>  <i_epik_Tot_Q>  (5) 
0

>  <i_epik_Tot_abs_Q>  (5) 
0

>  <s_lp_Force_Field>  (5) 
OPLS3e

>  <r_lp_Energy>  (5) 
-0.543675

>  <b_lp_Chiralities_Consistent>  (5) 
1

>  <s_lp_Variant>  (5) 
1:0-1

>  <s_i_glide_gridfile>  (5) 
pfpi4k_grid

>  <i_i_glide_lignum>  (5) 
2

>  <i_i_glide_rotatable_bonds>  (5) 
0

>  <r_i_docking_score>  (5) 
-2.81557

>  <r_i_glide_ligand_efficiency>  (5) 
-0.134075

>  <r_i_glide_ligand_efficiency_sa>  (5) 
-0.369902

>  <r_i_glide_ligand_efficiency_ln>  (5) 
-0.696144

>  <r_i_glide_gscore>  (5) 
-2.81557

>  <r_i_glide_lipo>  (5) 
-0.166928

>  <r_i_glide_hbond>  (5) 
-0.00905247

>  <r_i_glide_metal>  (5) 
-0

>  <r_i_glide_rewards>  (5) 
-1.41845

>  <r_i_glide_evdw>  (5) 
-23.6849

>  <r_i_glide_ecoul>  (5) 
-0.243633

>  <r_i_glide_erotb>  (5) 
0

>  <r_i_glide_esite>  (5) 
-0.000351202

>  <r_i_glide_emodel>  (5) 
-28.1903

>  <r_i_glide_energy>  (5) 
-23.9285

>  <r_i_glide_einternal>  (5) 
0

>  <r_i_glide_intrahb_reward>  (5) 
-0

>  <i_i_glide_confnum>  (5) 
1

>  <i_i_glide_posenum>  (5) 
2

>  <r_i_glide_eff_state_penalty>  (5) 
0

>  <ligand_id>  (5) 
1

>  <original_smiles>  (5) 
CC1CCC2(CC1)OOC1(OO2)C2CC3CC(C2)CC1C3

>  <smiles>  (5) 
[H]C([H])([H])C1([H])C([H])([H])C([H])([H])C2(OOC3(OO2)C2([H])C([H])([H])C4([H])C([H])([H])C([H])(C2([H])[H])C([H])([H])C3([H])C4([H])[H])C([H])([H])C1([H])[H]

$$$$
1:0:2
     RDKit          3D

 47 51  0  0  1  0  0  0  0  0999 V2000
    4.5375   -1.3377   -1.0652 C   0  0  0  0  0  0  0  0  0  0  0  0
    4.8950   -2.6079   -0.2631 C   0  0  2  0  0  0  0  0  0  0  0  0
    4.0519   -3.8141   -0.7238 C   0  0  0  0  0  0  0  0  0  0  0  0
    4.3310   -5.0841    0.1028 C   0  0  0  0  0  0  0  0  0  0  0  0
    4.0955   -4.8436    1.6065 C   0  0  0  0  0  0  0  0  0  0  0  0
    4.9797   -3.6648    2.0655 C   0  0  0  0  0  0  0  0  0  0  0  0
    4.7153   -2.3781    1.2508 C   0  0  0  0  0  0  0  0  0  0  0  0
    4.4780   -5.9782    2.3721 O   0  0  0  0  0  0  0  0  0  0  0  0
    3.5773   -7.1402    2.0265 O   0  0  0  0  0  0  0  0  0  0  0  0
    2.2262   -6.7936    2.3150 C   0  0  0  0  0  0  0  0  0  0  0  0
    1.8616   -5.6828    1.5057 O   0  0  0  0  0  0  0  0  0  0  0  0
    2.7392   -4.5087    1.8667 O   0  0  0  0  0  0  0  0  0  0  0  0
    1.3158   -7.9952    1.9247 C   0  0  2  0  0  0  0  0  0  0  0  0
   -0.1801   -7.6673    2.1777 C   0  0  0  0  0  0  0  0  0  0  0  0
   -0.3927   -7.3576    3.6721 C   0  0  1  0  0  0  0  0  0  0  0  0
   -0.0234   -8.5988    4.5121 C   0  0  0  0  0  0  0  0  0  0  0  0
    1.4589   -8.9404    4.2630 C   0  0  1  0  0  0  0  0  0  0  0  0
    1.6718   -9.2491    2.7668 C   0  0  0  0  0  0  0  0  0  0  0  0
    2.3493   -7.7480    4.6737 C   0  0  0  0  0  0  0  0  0  0  0  0
    1.9914   -6.5027    3.8265 C   0  0  2  0  0  0  0  0  0  0  0  0
    0.4991   -6.1612    4.0700 C   0  0  0  0  0  0  0  0  0  0  0  0
    3.4903   -1.0616   -0.9189 H   0  0  0  0  0  0  0  0  0  0  0  0
    4.6867   -1.4820   -2.1372 H   0  0  0  0  0  0  0  0  0  0  0  0
    5.1415   -0.4814   -0.7616 H   0  0  0  0  0  0  0  0  0  0  0  0
    5.9489   -2.8339   -0.4524 H   0  0  0  0  0  0  0  0  0  0  0  0
    2.9937   -3.5608   -0.6472 H   0  0  0  0  0  0  0  0  0  0  0  0
    4.2452   -4.0155   -1.7793 H   0  0  0  0  0  0  0  0  0  0  0  0
    3.7188   -5.8966   -0.2760 H   0  0  0  0  0  0  0  0  0  0  0  0
    5.3646   -5.3938   -0.0588 H   0  0  0  0  0  0  0  0  0  0  0  0
    4.8328   -3.4532    3.1274 H   0  0  0  0  0  0  0  0  0  0  0  0
    6.0373   -3.9314    1.9561 H   0  0  0  0  0  0  0  0  0  0  0  0
    5.3848   -1.5823    1.5821 H   0  0  0  0  0  0  0  0  0  0  0  0
    3.7002   -2.0306    1.4445 H   0  0  0  0  0  0  0  0  0  0  0  0
    1.4426   -8.2382    0.8752 H   0  0  0  0  0  0  0  0  0  0  0  0
   -0.5016   -6.8266    1.5646 H   0  0  0  0  0  0  0  0  0  0  0  0
   -0.8089   -8.5110    1.8811 H   0  0  0  0  0  0  0  0  0  0  0  0
   -1.4413   -7.1197    3.8519 H   0  0  0  0  0  0  0  0  0  0  0  0
   -0.1998   -8.4177    5.5730 H   0  0  0  0  0  0  0  0  0  0  0  0
   -0.6562   -9.4484    4.2446 H   0  0  0  0  0  0  0  0  0  0  0  0
    1.7177   -9.8165    4.8596 H   0  0  0  0  0  0  0  0  0  0  0  0
    1.0531  -10.0997    2.4667 H   0  0  0  0  0  0  0  0  0  0  0  0
    2.7024   -9.5576    2.5896 H   0  0  0  0  0  0  0  0  0  0  0  0
    2.2148   -7.5375    5.7341 H   0  0  0  0  0  0  0  0  0  0  0  0
    3.3982   -8.0124    4.5390 H   0  0  0  0  0  0  0  0  0  0  0  0
    2.6097   -5.6715    4.1661 H   0  0  0  0  0  0  0  0  0  0  0  0
    0.2172   -5.2859    3.4858 H   0  0  0  0  0  0  0  0  0  0  0  0
    0.3259   -5.9059    5.1131 H   0  0  0  0  0  0  0  0  0  0  0  0
  1  2  1  0
  1 22  1  0
  1 23  1  0
  1 24  1  0
  2  7  1  0
  2  3  1  0
  2 25  1  1
  3  4  1  0
  3 26  1  0
  3 27  1  0
  4  5  1  0
  4 28  1  0
  4 29  1  0
  5 12  1  0
  5  6  1  0
  5  8  1  0
  6  7  1  0
  6 30  1  0
  6 31  1  0
  7 32  1  0
  7 33  1  0
  8  9  1  0
  9 10  1  0
 10 20  1  0
 10 11  1  0
 10 13  1  0
 11 12  1  0
 13 18  1  0
 13 14  1  0
 13 34  1  6
 14 15  1  0
 14 35  1  0
 14 36  1  0
 15 21  1  0
 15 16  1  0
 15 37  1  6
 16 17  1  0
 16 38  1  0
 16 39  1  0
 17 18  1  0
 17 19  1  0
 17 40  1  1
 18 41  1  0
 18 42  1  0
 19 20  1  0
 19 43  1  0
 19 44  1  0
 20 21  1  0
 20 45  1  1
 21 46  1  0
 21 47  1  0
M  END
>  <i_m_ct_stereo_status>  (6) 
1

>  <s_m_source_file>  (6) 
/var/tmp/pbs.5076255.sched01/tmpmjg_sug8/0d5zvyqle.sdf

>  <i_m_source_file_index>  (6) 
2

>  <i_lp_mmshare_version>  (6) 
48012

>  <i_f3d_flags>  (6) 
0

>  <s_epik_input>  (6) 
W0NIMl0xW0NIMl1bQ0hdKFtDSDNdKVtDSDJdW0NIMl1DMTJPT0MzKE9PMilbQ0BASF00W0NIMl1bQ0BIXTVbQ0gyXVtDQEBIXShbQ0gyXTQpW0NIMl1bQ0BASF0zW0NIMl01

>  <s_epik_cmdline>  (6) 
J2VwaWtfcHl0aG9uJywgJy1waHQnLCAnMi4wJywgJy1waCcsICc3LjAnLCAnLXRuJywgJzgnLCAnLW1hJywgJzIwMCcsICctaW1hZScsICc8aW5maWxlLm1hZT4nLCAnLW9tYWUnLCAnPG91dGZpbGUubWFlPic=

>  <r_lp_tautomer_probability>  (6) 
1

>  <r_epik_Ionization_Penalty>  (6) 
0

>  <r_epik_Ionization_Penalty_Charging>  (6) 
0

>  <r_epik_Ionization_Penalty_Neutral>  (6) 
0

>  <r_epik_State_Penalty>  (6) 
-0

>  <r_epik_Charging_Adjusted_Penalty>  (6) 
0

>  <i_epik_Tot_Q>  (6) 
0

>  <i_epik_Tot_abs_Q>  (6) 
0

>  <s_lp_Force_Field>  (6) 
OPLS3e

>  <r_lp_Energy>  (6) 
-0.543675

>  <b_lp_Chiralities_Consistent>  (6) 
1

>  <s_lp_Variant>  (6) 
1:0-1

>  <s_i_glide_gridfile>  (6) 
pfpi4k_grid

>  <i_i_glide_lignum>  (6) 
2

>  <i_i_glide_rotatable_bonds>  (6) 
0

>  <r_i_docking_score>  (6) 
-2.78921

>  <r_i_glide_ligand_efficiency>  (6) 
-0.13282

>  <r_i_glide_ligand_efficiency_sa>  (6) 
-0.36644

>  <r_i_glide_ligand_efficiency_ln>  (6) 
-0.689628

>  <r_i_glide_gscore>  (6) 
-2.78921

>  <r_i_glide_lipo>  (6) 
-0.0811817

>  <r_i_glide_hbond>  (6) 
-0.0297907

>  <r_i_glide_metal>  (6) 
-0

>  <r_i_glide_rewards>  (6) 
-1.42368

>  <r_i_glide_evdw>  (6) 
-22.9101

>  <r_i_glide_ecoul>  (6) 
-0.656575

>  <r_i_glide_erotb>  (6) 
0

>  <r_i_glide_esite>  (6) 
-0.0105769

>  <r_i_glide_emodel>  (6) 
-27.7913

>  <r_i_glide_energy>  (6) 
-23.5666

>  <r_i_glide_einternal>  (6) 
0

>  <r_i_glide_intrahb_reward>  (6) 
-0

>  <i_i_glide_confnum>  (6) 
1

>  <i_i_glide_posenum>  (6) 
1

>  <r_i_glide_eff_state_penalty>  (6) 
0

>  <ligand_id>  (6) 
1

>  <original_smiles>  (6) 
CC1CCC2(CC1)OOC1(OO2)C2CC3CC(C2)CC1C3

>  <smiles>  (6) 
[H]C([H])([H])C1([H])C([H])([H])C([H])([H])C2(OOC3(OO2)C2([H])C([H])([H])C4([H])C([H])([H])C([H])(C2([H])[H])C([H])([H])C3([H])C4([H])[H])C([H])([H])C1([H])[H]

$$$$
2:0:0
     RDKit          3D

 88 95  0  0  1  0  0  0  0  0999 V2000
    2.2006   -8.6791    1.6942 C   0  0  0  0  0  0  0  0  0  0  0  0
    2.6759   -8.2274    3.0852 C   0  0  0  0  0  0  0  0  0  0  0  0
    3.2597   -9.4444    3.8330 C   0  0  0  0  0  0  0  0  0  0  0  0
    3.7272   -7.1019    2.9732 C   0  0  0  0  0  0  0  0  0  0  0  0
    3.4827   -6.1875    4.1769 C   0  0  1  0  0  0  0  0  0  0  0  0
    4.1461   -4.8029    4.0286 C   0  0  0  0  0  0  0  0  0  0  0  0
    3.9368   -3.7561    5.1647 C   0  0  1  0  0  0  0  0  0  0  0  0
    4.6692   -2.6467    4.6854 O   0  0  0  0  0  0  0  0  0  0  0  0
    2.4328   -3.3941    5.5726 C   0  0  1  0  0  0  0  0  0  0  0  0
    1.8631   -3.3300    4.3049 O   0  0  0  0  0  0  0  0  0  0  0  0
    1.7053   -4.6214    6.2806 C   0  0  2  0  0  0  0  0  0  0  0  0
    2.6622   -5.4081    7.2189 C   0  0  0  0  0  0  0  0  0  0  0  0
    1.2610   -5.6764    5.3968 O   0  0  0  0  0  0  0  0  0  0  0  0
    1.9521   -6.1563    4.2271 C   0  0  2  0  0  0  0  0  0  0  0  0
    1.5241   -7.5935    3.9034 C   0  0  0  0  0  0  0  0  0  0  0  0
    0.3506   -4.2368    7.0403 C   0  0  2  0  0  0  0  0  0  0  0  0
   -0.3193   -2.8999    6.6772 C   0  0  2  0  0  0  0  0  0  0  0  0
   -0.6390   -1.7501    5.7092 C   0  0  2  0  0  0  0  0  0  0  0  0
   -0.1700   -1.4267    4.3118 C   0  0  0  0  0  0  0  0  0  0  0  0
    1.1321   -0.5931    4.1748 C   0  0  2  0  0  0  0  0  0  0  0  0
    2.2145   -0.7146    5.3246 C   0  0  1  0  0  0  0  0  0  0  0  0
    2.4255    0.6654    6.0185 C   0  0  0  0  0  0  0  0  0  0  0  0
    2.8265    1.7626    5.0115 C   0  0  2  0  0  0  0  0  0  0  0  0
    4.2311    1.7815    4.8737 O   0  0  0  0  0  0  0  0  0  0  0  0
    2.3630    2.9750    5.5055 O   0  0  0  0  0  0  0  0  0  0  0  0
    2.1320    3.9014    4.4510 C   0  0  0  0  0  0  0  0  0  0  0  0
    2.2087    3.0993    3.1505 C   0  0  0  0  0  0  0  0  0  0  0  0
    2.2190    1.6356    3.5996 C   0  0  2  0  0  0  0  0  0  0  0  0
    0.8676    0.8599    3.6049 C   0  0  0  0  0  0  0  0  0  0  0  0
    0.4304    0.7495    2.1200 C   0  0  0  0  0  0  0  0  0  0  0  0
   -0.2554    1.6281    4.3513 C   0  0  0  0  0  0  0  0  0  0  0  0
    2.1512   -1.9790    6.3257 C   0  0  2  0  0  0  0  0  0  0  0  0
    3.3155   -1.7934    7.3348 C   0  0  0  0  0  0  0  0  0  0  0  0
    0.7606   -1.9576    7.1434 C   0  0  1  0  0  0  0  0  0  0  0  0
   -0.0675   -0.8445    6.7028 O   0  0  0  0  0  0  0  0  0  0  0  0
    0.7866   -2.3471    8.6405 C   0  0  1  0  0  0  0  0  0  0  0  0
   -0.1826   -1.6141    9.3770 O   0  0  0  0  0  0  0  0  0  0  0  0
    0.4230   -3.8772    8.6059 C   0  0  0  0  0  0  0  0  0  0  0  0
   -0.8798   -4.0998    9.1383 O   0  0  0  0  0  0  0  0  0  0  0  0
    1.3365   -4.5583    9.4520 O   0  0  0  0  0  0  0  0  0  0  0  0
    3.0237   -9.0815    1.1014 H   0  0  0  0  0  0  0  0  0  0  0  0
    1.7580   -7.8519    1.1388 H   0  0  0  0  0  0  0  0  0  0  0  0
    1.4434   -9.4610    1.7703 H   0  0  0  0  0  0  0  0  0  0  0  0
    3.6223   -9.1741    4.8244 H   0  0  0  0  0  0  0  0  0  0  0  0
    4.0939   -9.8850    3.2861 H   0  0  0  0  0  0  0  0  0  0  0  0
    2.5097  -10.2259    3.9614 H   0  0  0  0  0  0  0  0  0  0  0  0
    4.7472   -7.4875    2.9425 H   0  0  0  0  0  0  0  0  0  0  0  0
    3.5701   -6.5452    2.0458 H   0  0  0  0  0  0  0  0  0  0  0  0
    3.9166   -6.7415    5.0043 H   0  0  0  0  0  0  0  0  0  0  0  0
    5.2182   -4.9712    3.9338 H   0  0  0  0  0  0  0  0  0  0  0  0
    3.8567   -4.3764    3.0646 H   0  0  0  0  0  0  0  0  0  0  0  0
    4.5025   -4.0611    6.0433 H   0  0  0  0  0  0  0  0  0  0  0  0
    4.2374   -2.3217    3.9150 H   0  0  0  0  0  0  0  0  0  0  0  0
    2.0429   -4.1392    3.8709 H   0  0  0  0  0  0  0  0  0  0  0  0
    3.1747   -4.7907    7.9519 H   0  0  0  0  0  0  0  0  0  0  0  0
    3.4872   -5.8940    6.7315 H   0  0  0  0  0  0  0  0  0  0  0  0
    2.1305   -6.2147    7.7270 H   0  0  0  0  0  0  0  0  0  0  0  0
    1.6190   -5.5638    3.3768 H   0  0  0  0  0  0  0  0  0  0  0  0
    0.5745   -7.5975    3.3674 H   0  0  0  0  0  0  0  0  0  0  0  0
    1.3572   -8.1584    4.8187 H   0  0  0  0  0  0  0  0  0  0  0  0
   -0.3633   -5.0679    6.9174 H   0  0  0  0  0  0  0  0  0  0  0  0
   -1.2448   -2.8123    7.2433 H   0  0  0  0  0  0  0  0  0  0  0  0
   -1.7180   -1.6405    5.7222 H   0  0  0  0  0  0  0  0  0  0  0  0
   -0.1556   -2.3336    3.7165 H   0  0  0  0  0  0  0  0  0  0  0  0
   -0.9845   -0.9018    3.8156 H   0  0  0  0  0  0  0  0  0  0  0  0
    1.6190   -1.0740    3.3264 H   0  0  0  0  0  0  0  0  0  0  0  0
    3.1445   -0.8195    4.7834 H   0  0  0  0  0  0  0  0  0  0  0  0
    1.5390    0.9690    6.5788 H   0  0  0  0  0  0  0  0  0  0  0  0
    3.2268    0.6544    6.7523 H   0  0  0  0  0  0  0  0  0  0  0  0
    4.4341    2.2473    4.0792 H   0  0  0  0  0  0  0  0  0  0  0  0
    1.1546    4.3625    4.5856 H   0  0  0  0  0  0  0  0  0  0  0  0
    2.8761    4.6946    4.4701 H   0  0  0  0  0  0  0  0  0  0  0  0
    1.4217    3.3685    2.4443 H   0  0  0  0  0  0  0  0  0  0  0  0
    3.1535    3.3309    2.6578 H   0  0  0  0  0  0  0  0  0  0  0  0
    2.9089    1.0714    2.9745 H   0  0  0  0  0  0  0  0  0  0  0  0
    0.2269    1.7233    1.6687 H   0  0  0  0  0  0  0  0  0  0  0  0
   -0.4836    0.1727    1.9930 H   0  0  0  0  0  0  0  0  0  0  0  0
    1.1916    0.2704    1.5032 H   0  0  0  0  0  0  0  0  0  0  0  0
   -0.3849    2.6354    3.9513 H   0  0  0  0  0  0  0  0  0  0  0  0
   -0.0674    1.7237    5.4142 H   0  0  0  0  0  0  0  0  0  0  0  0
   -1.2268    1.1493    4.2529 H   0  0  0  0  0  0  0  0  0  0  0  0
    3.1287   -1.0019    8.0657 H   0  0  0  0  0  0  0  0  0  0  0  0
    4.2523   -1.5275    6.8469 H   0  0  0  0  0  0  0  0  0  0  0  0
    3.5154   -2.6969    7.9054 H   0  0  0  0  0  0  0  0  0  0  0  0
    1.7324   -2.1706    9.1525 H   0  0  0  0  0  0  0  0  0  0  0  0
    0.0607   -1.6604   10.2829 H   0  0  0  0  0  0  0  0  0  0  0  0
   -0.8160   -4.0084   10.0802 H   0  0  0  0  0  0  0  0  0  0  0  0
    2.2046   -4.4262    9.1198 H   0  0  0  0  0  0  0  0  0  0  0  0
  1  2  1  0
  1 41  1  0
  1 42  1  0
  1 43  1  0
  2 15  1  0
  2  3  1  0
  2  4  1  0
  3 44  1  0
  3 45  1  0
  3 46  1  0
  4  5  1  0
  4 47  1  0
  4 48  1  0
  5 14  1  0
  5  6  1  0
  5 49  1  1
  6  7  1  0
  6 50  1  0
  6 51  1  0
  7  8  1  0
  7  9  1  0
  7 52  1  1
  8 53  1  0
  9 32  1  0
  9 10  1  6
  9 11  1  0
 10 54  1  0
 11 12  1  1
 11 13  1  0
 11 16  1  0
 12 55  1  0
 12 56  1  0
 12 57  1  0
 13 14  1  0
 14 15  1  0
 14 58  1  6
 15 59  1  0
 15 60  1  0
 16 38  1  0
 16 17  1  0
 16 61  1  1
 17 34  1  0
 17 18  1  0
 17 62  1  1
 18 35  1  0
 18 19  1  0
 18 63  1  6
 19 20  1  0
 19 64  1  0
 19 65  1  0
 20 29  1  0
 20 21  1  0
 20 66  1  6
 21 22  1  0
 21 32  1  0
 21 67  1  6
 22 23  1  0
 22 68  1  0
 22 69  1  0
 23 28  1  0
 23 24  1  6
 23 25  1  0
 24 70  1  0
 25 26  1  0
 26 27  1  0
 26 71  1  0
 26 72  1  0
 27 28  1  0
 27 73  1  0
 27 74  1  0
 28 29  1  0
 28 75  1  6
 29 30  1  0
 29 31  1  0
 30 76  1  0
 30 77  1  0
 30 78  1  0
 31 79  1  0
 31 80  1  0
 31 81  1  0
 32 33  1  1
 32 34  1  0
 33 82  1  0
 33 83  1  0
 33 84  1  0
 34 35  1  1
 34 36  1  0
 36 37  1  0
 36 38  1  0
 36 85  1  1
 37 86  1  0
 38 39  1  0
 38 40  1  0
 39 87  1  0
 40 88  1  0
M  END
>  <i_m_ct_stereo_status>  (7) 
1

>  <s_m_source_file>  (7) 
/var/tmp/pbs.5076255.sched01/tmpmjg_sug8/0d5zvyqle.sdf

>  <i_m_source_file_index>  (7) 
3

>  <i_lp_mmshare_version>  (7) 
48012

>  <i_f3d_flags>  (7) 
0

>  <s_epik_input>  (7) 
W0NIM11DKFtDSDNdKShbQ0gyXTEpW0NIMl1bQ0BASF0oTzIpW0NAQEhdMVtDSDJdW0NAQEhdKFtPSF0pW0NAQF0oW09IXSkoW0NAQF0yKFtDSDNdKVtDQEhdKFtDQEhdM1tDQEBdNDU2KUMoW09IXSkoW09IXSlbQ0BASF02W09IXSlbQ0BAXTQoW0NIM10pW0NASF03W0NAQEhdKFtDSDJdW0NAQEhdM081KUMoW0NIM10pKFtDSDNdKVtDQEBIXThbQ0BAXShbQ0gyXTcpKFtPSF0pT1tDSDJdW0NIMl04

>  <s_epik_cmdline>  (7) 
J2VwaWtfcHl0aG9uJywgJy1waHQnLCAnMi4wJywgJy1waCcsICc3LjAnLCAnLXRuJywgJzgnLCAnLW1hJywgJzIwMCcsICctaW1hZScsICc8aW5maWxlLm1hZT4nLCAnLW9tYWUnLCAnPG91dGZpbGUubWFlPic=

>  <r_lp_tautomer_probability>  (7) 
1

>  <r_epik_Ionization_Penalty>  (7) 
1.35495e-06

>  <r_epik_Ionization_Penalty_Charging>  (7) 
0

>  <r_epik_Ionization_Penalty_Neutral>  (7) 
1.35495e-06

>  <r_epik_State_Penalty>  (7) 
-0

>  <r_epik_Charging_Adjusted_Penalty>  (7) 
0

>  <i_epik_Tot_Q>  (7) 
0

>  <i_epik_Tot_abs_Q>  (7) 
0

>  <s_lp_Force_Field>  (7) 
OPLS3e

>  <r_lp_Energy>  (7) 
188.715

>  <b_lp_Chiralities_Consistent>  (7) 
1

>  <s_lp_Variant>  (7) 
2:0-1

>  <s_i_glide_gridfile>  (7) 
pfpi4k_grid

>  <i_i_glide_lignum>  (7) 
3

>  <i_i_glide_rotatable_bonds>  (7) 
6

>  <r_i_docking_score>  (7) 
-2.48702

>  <r_i_glide_ligand_efficiency>  (7) 
-0.0621754

>  <r_i_glide_ligand_efficiency_sa>  (7) 
-0.212637

>  <r_i_glide_ligand_efficiency_ln>  (7) 
-0.530408

>  <r_i_glide_gscore>  (7) 
-2.48702

>  <r_i_glide_lipo>  (7) 
-8.55743e-05

>  <r_i_glide_hbond>  (7) 
0

>  <r_i_glide_metal>  (7) 
-0

>  <r_i_glide_rewards>  (7) 
0

>  <r_i_glide_evdw>  (7) 
-25.9596

>  <r_i_glide_ecoul>  (7) 
-7.82765

>  <r_i_glide_erotb>  (7) 
0

>  <r_i_glide_esite>  (7) 
-0.0148069

>  <r_i_glide_emodel>  (7) 
-38.1298

>  <r_i_glide_energy>  (7) 
-33.7872

>  <r_i_glide_einternal>  (7) 
1.63451

>  <r_i_glide_intrahb_reward>  (7) 
-0

>  <i_i_glide_confnum>  (7) 
1

>  <i_i_glide_posenum>  (7) 
5

>  <r_i_glide_eff_state_penalty>  (7) 
0

>  <ligand_id>  (7) 
2

>  <original_smiles>  (7) 
CC1(C)CC2CC(O)C3(O)C(C)(OC2C1)C1C2C4CC5C(CC6(O)OCCC6C5(C)C)C3(C)C2(O4)C(O)C1(O)O

>  <smiles>  (7) 
[H]OC1([H])C(O[H])(O[H])C2([H])C3([H])C4([H])OC13C(C([H])([H])[H])(C1([H])C([H])([H])C3(O[H])OC([H])([H])C([H])([H])C3([H])C(C([H])([H])[H])(C([H])([H])[H])C1([H])C4([H])[H])C1(O[H])C([H])(O[H])C([H])([H])C3([H])C([H])([H])C(C([H])([H])[H])(C([H])([H])[H])C([H])([H])C3([H])OC21C([H])([H])[H]

$$$$
2:0:1
     RDKit          3D

 88 95  0  0  1  0  0  0  0  0999 V2000
   -1.7750   -9.0347    2.4829 C   0  0  0  0  0  0  0  0  0  0  0  0
   -0.3574   -8.8410    3.0453 C   0  0  0  0  0  0  0  0  0  0  0  0
    0.3487  -10.2105    3.1428 C   0  0  0  0  0  0  0  0  0  0  0  0
    0.4565   -7.8788    2.1549 C   0  0  0  0  0  0  0  0  0  0  0  0
    1.3534   -7.0979    3.1162 C   0  0  1  0  0  0  0  0  0  0  0  0
    1.9447   -5.8250    2.4870 C   0  0  0  0  0  0  0  0  0  0  0  0
    2.8262   -4.8968    3.3770 C   0  0  1  0  0  0  0  0  0  0  0  0
    3.1323   -3.8468    2.4839 O   0  0  0  0  0  0  0  0  0  0  0  0
    2.2107   -4.3765    4.7526 C   0  0  1  0  0  0  0  0  0  0  0  0
    0.9231   -4.0608    4.3332 O   0  0  0  0  0  0  0  0  0  0  0  0
    2.0278   -5.5554    5.8030 C   0  0  2  0  0  0  0  0  0  0  0  0
    3.1938   -6.5848    5.7328 C   0  0  0  0  0  0  0  0  0  0  0  0
    0.9055   -6.4444    5.5740 O   0  0  0  0  0  0  0  0  0  0  0  0
    0.3984   -6.8447    4.2906 C   0  0  2  0  0  0  0  0  0  0  0  0
   -0.3911   -8.1528    4.4298 C   0  0  0  0  0  0  0  0  0  0  0  0
    1.7666   -5.0591    7.3024 C   0  0  2  0  0  0  0  0  0  0  0  0
    1.3215   -3.5952    7.5259 C   0  0  2  0  0  0  0  0  0  0  0  0
    0.6150   -2.3011    7.0795 C   0  0  2  0  0  0  0  0  0  0  0  0
   -0.0585   -1.9071    5.7842 C   0  0  0  0  0  0  0  0  0  0  0  0
    0.8516   -1.2557    4.6987 C   0  0  2  0  0  0  0  0  0  0  0  0
    2.3876   -1.6761    4.6615 C   0  0  1  0  0  0  0  0  0  0  0  0
    3.2961   -0.4395    4.9311 C   0  0  0  0  0  0  0  0  0  0  0  0
    3.0219    0.7038    3.9279 C   0  0  2  0  0  0  0  0  0  0  0  0
    3.8413    0.5249    2.7934 O   0  0  0  0  0  0  0  0  0  0  0  0
    3.3191    1.9030    4.5677 O   0  0  0  0  0  0  0  0  0  0  0  0
    2.5718    2.9783    4.0064 C   0  0  0  0  0  0  0  0  0  0  0  0
    1.5197    2.3352    3.1016 C   0  0  0  0  0  0  0  0  0  0  0  0
    1.5705    0.8415    3.4438 C   0  0  2  0  0  0  0  0  0  0  0  0
    0.5443    0.2800    4.4767 C   0  0  0  0  0  0  0  0  0  0  0  0
   -0.8572    0.4179    3.8247 C   0  0  0  0  0  0  0  0  0  0  0  0
    0.5101    1.1063    5.7913 C   0  0  0  0  0  0  0  0  0  0  0  0
    2.8531   -3.0288    5.4216 C   0  0  2  0  0  0  0  0  0  0  0  0
    4.3919   -3.1427    5.2234 C   0  0  0  0  0  0  0  0  0  0  0  0
    2.5430   -2.8885    7.0012 C   0  0  1  0  0  0  0  0  0  0  0  0
    1.8875   -1.6199    7.2660 O   0  0  0  0  0  0  0  0  0  0  0  0
    3.5752   -3.4724    8.0040 C   0  0  1  0  0  0  0  0  0  0  0  0
    3.6055   -2.6846    9.1826 O   0  0  0  0  0  0  0  0  0  0  0  0
    3.0321   -4.9284    8.2908 C   0  0  0  0  0  0  0  0  0  0  0  0
    2.5328   -5.0609    9.6141 O   0  0  0  0  0  0  0  0  0  0  0  0
    4.1178   -5.8146    8.1861 O   0  0  0  0  0  0  0  0  0  0  0  0
   -1.7445   -9.4598    1.4823 H   0  0  0  0  0  0  0  0  0  0  0  0
   -2.3191   -8.0916    2.4240 H   0  0  0  0  0  0  0  0  0  0  0  0
   -2.3499   -9.7085    3.1183 H   0  0  0  0  0  0  0  0  0  0  0  0
    1.3669  -10.1209    3.5263 H   0  0  0  0  0  0  0  0  0  0  0  0
    0.4053  -10.6986    2.1674 H   0  0  0  0  0  0  0  0  0  0  0  0
   -0.1846  -10.8845    3.8127 H   0  0  0  0  0  0  0  0  0  0  0  0
    1.0304   -8.4025    1.3891 H   0  0  0  0  0  0  0  0  0  0  0  0
   -0.2166   -7.1982    1.6317 H   0  0  0  0  0  0  0  0  0  0  0  0
    2.1373   -7.8061    3.3643 H   0  0  0  0  0  0  0  0  0  0  0  0
    2.5346   -6.1327    1.6214 H   0  0  0  0  0  0  0  0  0  0  0  0
    1.1227   -5.2413    2.0740 H   0  0  0  0  0  0  0  0  0  0  0  0
    3.7876   -5.3771    3.5536 H   0  0  0  0  0  0  0  0  0  0  0  0
    3.6413   -4.2017    1.7696 H   0  0  0  0  0  0  0  0  0  0  0  0
    1.0120   -3.3856    3.6753 H   0  0  0  0  0  0  0  0  0  0  0  0
    4.1777   -6.1355    5.8371 H   0  0  0  0  0  0  0  0  0  0  0  0
    3.2906   -7.1172    4.8041 H   0  0  0  0  0  0  0  0  0  0  0  0
    3.0677   -7.3652    6.4838 H   0  0  0  0  0  0  0  0  0  0  0  0
   -0.3244   -6.0963    3.9696 H   0  0  0  0  0  0  0  0  0  0  0  0
   -1.4058   -7.9479    4.7733 H   0  0  0  0  0  0  0  0  0  0  0  0
    0.0680   -8.7931    5.1860 H   0  0  0  0  0  0  0  0  0  0  0  0
    1.0571   -5.7469    7.7681 H   0  0  0  0  0  0  0  0  0  0  0  0
    1.1609   -3.4544    8.5968 H   0  0  0  0  0  0  0  0  0  0  0  0
   -0.0531   -2.0207    7.8968 H   0  0  0  0  0  0  0  0  0  0  0  0
   -0.6549   -2.7342    5.4025 H   0  0  0  0  0  0  0  0  0  0  0  0
   -0.8575   -1.2183    6.0420 H   0  0  0  0  0  0  0  0  0  0  0  0
    0.4651   -1.6889    3.7755 H   0  0  0  0  0  0  0  0  0  0  0  0
    2.5811   -1.8491    3.6090 H   0  0  0  0  0  0  0  0  0  0  0  0
    3.1886   -0.0761    5.9497 H   0  0  0  0  0  0  0  0  0  0  0  0
    4.3558   -0.6576    4.8312 H   0  0  0  0  0  0  0  0  0  0  0  0
    3.7587    1.3025    2.2587 H   0  0  0  0  0  0  0  0  0  0  0  0
    2.1115    3.5483    4.8139 H   0  0  0  0  0  0  0  0  0  0  0  0
    3.2242    3.6473    3.4453 H   0  0  0  0  0  0  0  0  0  0  0  0
    0.5392    2.8023    3.1917 H   0  0  0  0  0  0  0  0  0  0  0  0
    1.8205    2.4736    2.0611 H   0  0  0  0  0  0  0  0  0  0  0  0
    1.4534    0.2608    2.5260 H   0  0  0  0  0  0  0  0  0  0  0  0
   -1.1343    1.4571    3.6470 H   0  0  0  0  0  0  0  0  0  0  0  0
   -1.6557   -0.0123    4.4291 H   0  0  0  0  0  0  0  0  0  0  0  0
   -0.8805   -0.0821    2.8588 H   0  0  0  0  0  0  0  0  0  0  0  0
    0.3244    2.1616    5.5940 H   0  0  0  0  0  0  0  0  0  0  0  0
    1.4346    1.0422    6.3580 H   0  0  0  0  0  0  0  0  0  0  0  0
   -0.2847    0.7892    6.4628 H   0  0  0  0  0  0  0  0  0  0  0  0
    4.9474   -2.4283    5.8308 H   0  0  0  0  0  0  0  0  0  0  0  0
    4.6950   -2.9571    4.1945 H   0  0  0  0  0  0  0  0  0  0  0  0
    4.7690   -4.1267    5.4895 H   0  0  0  0  0  0  0  0  0  0  0  0
    4.6039   -3.4923    7.6518 H   0  0  0  0  0  0  0  0  0  0  0  0
    4.2733   -3.0325    9.7521 H   0  0  0  0  0  0  0  0  0  0  0  0
    3.2349   -4.8366   10.2045 H   0  0  0  0  0  0  0  0  0  0  0  0
    3.7667   -6.6933    8.1923 H   0  0  0  0  0  0  0  0  0  0  0  0
  1  2  1  0
  1 41  1  0
  1 42  1  0
  1 43  1  0
  2 15  1  0
  2  3  1  0
  2  4  1  0
  3 44  1  0
  3 45  1  0
  3 46  1  0
  4  5  1  0
  4 47  1  0
  4 48  1  0
  5 14  1  0
  5  6  1  0
  5 49  1  1
  6  7  1  0
  6 50  1  0
  6 51  1  0
  7  8  1  0
  7  9  1  0
  7 52  1  1
  8 53  1  0
  9 32  1  0
  9 10  1  6
  9 11  1  0
 10 54  1  0
 11 12  1  1
 11 13  1  0
 11 16  1  0
 12 55  1  0
 12 56  1  0
 12 57  1  0
 13 14  1  0
 14 15  1  0
 14 58  1  6
 15 59  1  0
 15 60  1  0
 16 38  1  0
 16 17  1  0
 16 61  1  1
 17 34  1  0
 17 18  1  0
 17 62  1  1
 18 35  1  0
 18 19  1  0
 18 63  1  1
 19 20  1  0
 19 64  1  0
 19 65  1  0
 20 29  1  0
 20 21  1  0
 20 66  1  6
 21 22  1  0
 21 32  1  0
 21 67  1  6
 22 23  1  0
 22 68  1  0
 22 69  1  0
 23 28  1  0
 23 24  1  6
 23 25  1  0
 24 70  1  0
 25 26  1  0
 26 27  1  0
 26 71  1  0
 26 72  1  0
 27 28  1  0
 27 73  1  0
 27 74  1  0
 28 29  1  0
 28 75  1  6
 29 30  1  0
 29 31  1  0
 30 76  1  0
 30 77  1  0
 30 78  1  0
 31 79  1  0
 31 80  1  0
 31 81  1  0
 32 33  1  1
 32 34  1  0
 33 82  1  0
 33 83  1  0
 33 84  1  0
 34 35  1  1
 34 36  1  0
 36 37  1  0
 36 38  1  0
 36 85  1  6
 37 86  1  0
 38 39  1  0
 38 40  1  0
 39 87  1  0
 40 88  1  0
M  END
>  <i_m_ct_stereo_status>  (8) 
1

>  <s_m_source_file>  (8) 
/var/tmp/pbs.5076255.sched01/tmpmjg_sug8/0d5zvyqle.sdf

>  <i_m_source_file_index>  (8) 
3

>  <i_lp_mmshare_version>  (8) 
48012

>  <i_f3d_flags>  (8) 
0

>  <s_epik_input>  (8) 
W0NIM11DKFtDSDNdKShbQ0gyXTEpW0NIMl1bQ0BASF0oTzIpW0NAQEhdMVtDSDJdW0NAQEhdKFtPSF0pW0NAQF0oW09IXSkoW0NAQF0yKFtDSDNdKVtDQEhdKFtDQEhdM1tDQEBdNDU2KUMoW09IXSkoW09IXSlbQ0BASF02W09IXSlbQ0BAXTQoW0NIM10pW0NASF03W0NAQEhdKFtDSDJdW0NAQEhdM081KUMoW0NIM10pKFtDSDNdKVtDQEBIXThbQ0BAXShbQ0gyXTcpKFtPSF0pT1tDSDJdW0NIMl04

>  <s_epik_cmdline>  (8) 
J2VwaWtfcHl0aG9uJywgJy1waHQnLCAnMi4wJywgJy1waCcsICc3LjAnLCAnLXRuJywgJzgnLCAnLW1hJywgJzIwMCcsICctaW1hZScsICc8aW5maWxlLm1hZT4nLCAnLW9tYWUnLCAnPG91dGZpbGUubWFlPic=

>  <r_lp_tautomer_probability>  (8) 
1

>  <r_epik_Ionization_Penalty>  (8) 
1.35495e-06

>  <r_epik_Ionization_Penalty_Charging>  (8) 
0

>  <r_epik_Ionization_Penalty_Neutral>  (8) 
1.35495e-06

>  <r_epik_State_Penalty>  (8) 
-0

>  <r_epik_Charging_Adjusted_Penalty>  (8) 
0

>  <i_epik_Tot_Q>  (8) 
0

>  <i_epik_Tot_abs_Q>  (8) 
0

>  <s_lp_Force_Field>  (8) 
OPLS3e

>  <r_lp_Energy>  (8) 
188.715

>  <b_lp_Chiralities_Consistent>  (8) 
1

>  <s_lp_Variant>  (8) 
2:0-1

>  <s_i_glide_gridfile>  (8) 
pfpi4k_grid

>  <i_i_glide_lignum>  (8) 
3

>  <i_i_glide_rotatable_bonds>  (8) 
6

>  <r_i_docking_score>  (8) 
-2.05399

>  <r_i_glide_ligand_efficiency>  (8) 
-0.0513497

>  <r_i_glide_ligand_efficiency_sa>  (8) 
-0.175614

>  <r_i_glide_ligand_efficiency_ln>  (8) 
-0.438055

>  <r_i_glide_gscore>  (8) 
-2.05399

>  <r_i_glide_lipo>  (8) 
-0.23573

>  <r_i_glide_hbond>  (8) 
0

>  <r_i_glide_metal>  (8) 
-0

>  <r_i_glide_rewards>  (8) 
0

>  <r_i_glide_evdw>  (8) 
-30.6706

>  <r_i_glide_ecoul>  (8) 
-1.88722

>  <r_i_glide_erotb>  (8) 
0

>  <r_i_glide_esite>  (8) 
-0.00164566

>  <r_i_glide_emodel>  (8) 
-36.3975

>  <r_i_glide_energy>  (8) 
-32.5578

>  <r_i_glide_einternal>  (8) 
1.0034

>  <r_i_glide_intrahb_reward>  (8) 
-0

>  <i_i_glide_confnum>  (8) 
1

>  <i_i_glide_posenum>  (8) 
19

>  <r_i_glide_eff_state_penalty>  (8) 
0

>  <ligand_id>  (8) 
2

>  <original_smiles>  (8) 
CC1(C)CC2CC(O)C3(O)C(C)(OC2C1)C1C2C4CC5C(CC6(O)OCCC6C5(C)C)C3(C)C2(O4)C(O)C1(O)O

>  <smiles>  (8) 
[H]OC1([H])C(O[H])(O[H])C2([H])C3([H])C4([H])OC13C(C([H])([H])[H])(C1([H])C([H])([H])C3(O[H])OC([H])([H])C([H])([H])C3([H])C(C([H])([H])[H])(C([H])([H])[H])C1([H])C4([H])[H])C1(O[H])C([H])(O[H])C([H])([H])C3([H])C([H])([H])C(C([H])([H])[H])(C([H])([H])[H])C([H])([H])C3([H])OC21C([H])([H])[H]

$$$$
2:0:2
     RDKit          3D

 88 95  0  0  1  0  0  0  0  0999 V2000
   -1.5925   -8.9512    2.2797 C   0  0  0  0  0  0  0  0  0  0  0  0
   -0.2580   -8.7589    3.0165 C   0  0  0  0  0  0  0  0  0  0  0  0
    0.4128  -10.1317    3.2412 C   0  0  0  0  0  0  0  0  0  0  0  0
    0.6885   -7.8364    2.2181 C   0  0  0  0  0  0  0  0  0  0  0  0
    1.4613   -7.0403    3.2721 C   0  0  1  0  0  0  0  0  0  0  0  0
    2.1608   -5.7953    2.6982 C   0  0  0  0  0  0  0  0  0  0  0  0
    2.9313   -4.8603    3.6803 C   0  0  1  0  0  0  0  0  0  0  0  0
    3.3852   -3.8406    2.8163 O   0  0  0  0  0  0  0  0  0  0  0  0
    2.1434   -4.2906    4.9414 C   0  0  1  0  0  0  0  0  0  0  0  0
    0.9337   -3.9632    4.3425 O   0  0  0  0  0  0  0  0  0  0  0  0
    1.7883   -5.4356    5.9831 C   0  0  2  0  0  0  0  0  0  0  0  0
    2.9313   -6.4861    6.1095 C   0  0  0  0  0  0  0  0  0  0  0  0
    0.6908   -6.3110    5.6260 O   0  0  0  0  0  0  0  0  0  0  0  0
    0.3594   -6.7378    4.2956 C   0  0  2  0  0  0  0  0  0  0  0  0
   -0.4694   -8.0271    4.3613 C   0  0  0  0  0  0  0  0  0  0  0  0
    1.3265   -4.8949    7.4171 C   0  0  2  0  0  0  0  0  0  0  0  0
    0.8913   -3.4160    7.5392 C   0  0  2  0  0  0  0  0  0  0  0  0
    0.2855   -2.1209    6.9653 C   0  0  2  0  0  0  0  0  0  0  0  0
   -0.1947   -1.7513    5.5805 C   0  0  0  0  0  0  0  0  0  0  0  0
    0.8730   -1.1494    4.6177 C   0  0  2  0  0  0  0  0  0  0  0  0
    2.3894   -1.5966    4.8097 C   0  0  1  0  0  0  0  0  0  0  0  0
    3.2760   -0.3678    5.1767 C   0  0  0  0  0  0  0  0  0  0  0  0
    3.1759    0.7495    4.1155 C   0  0  2  0  0  0  0  0  0  0  0  0
    4.1522    0.5196    3.1211 O   0  0  0  0  0  0  0  0  0  0  0  0
    3.4021    1.9625    4.7601 O   0  0  0  0  0  0  0  0  0  0  0  0
    2.7594    3.0317    4.0719 C   0  0  0  0  0  0  0  0  0  0  0  0
    1.8330    2.3819    3.0439 C   0  0  0  0  0  0  0  0  0  0  0  0
    1.8094    0.8976    3.4253 C   0  0  2  0  0  0  0  0  0  0  0  0
    0.6352    0.3859    4.3156 C   0  0  0  0  0  0  0  0  0  0  0  0
   -0.6530    0.5367    3.4619 C   0  0  0  0  0  0  0  0  0  0  0  0
    0.4327    1.2504    5.5908 C   0  0  0  0  0  0  0  0  0  0  0  0
    2.7132   -2.9364    5.6593 C   0  0  2  0  0  0  0  0  0  0  0  0
    4.2619   -3.0814    5.6847 C   0  0  0  0  0  0  0  0  0  0  0  0
    2.1893   -2.7467    7.1745 C   0  0  1  0  0  0  0  0  0  0  0  0
    1.5326   -1.4592    7.3125 O   0  0  0  0  0  0  0  0  0  0  0  0
    3.0559   -3.3240    8.3224 C   0  0  1  0  0  0  0  0  0  0  0  0
    2.9537   -2.4931    9.4620 O   0  0  0  0  0  0  0  0  0  0  0  0
    2.4451   -4.7622    8.5718 C   0  0  0  0  0  0  0  0  0  0  0  0
    1.7766   -4.8221    9.8247 O   0  0  0  0  0  0  0  0  0  0  0  0
    3.5339   -5.6538    8.6427 O   0  0  0  0  0  0  0  0  0  0  0  0
   -1.4335   -9.4186    1.3084 H   0  0  0  0  0  0  0  0  0  0  0  0
   -2.1005   -8.0014    2.1077 H   0  0  0  0  0  0  0  0  0  0  0  0
   -2.2656   -9.5920    2.8488 H   0  0  0  0  0  0  0  0  0  0  0  0
    1.3709  -10.0403    3.7533 H   0  0  0  0  0  0  0  0  0  0  0  0
    0.5884  -10.6465    2.2954 H   0  0  0  0  0  0  0  0  0  0  0  0
   -0.2031  -10.7860    3.8540 H   0  0  0  0  0  0  0  0  0  0  0  0
    1.3503   -8.3935    1.5527 H   0  0  0  0  0  0  0  0  0  0  0  0
    0.1094   -7.1589    1.5893 H   0  0  0  0  0  0  0  0  0  0  0  0
    2.1891   -7.7526    3.6471 H   0  0  0  0  0  0  0  0  0  0  0  0
    2.8618   -6.1400    1.9360 H   0  0  0  0  0  0  0  0  0  0  0  0
    1.4225   -5.2080    2.1517 H   0  0  0  0  0  0  0  0  0  0  0  0
    3.8471   -5.3539    4.0022 H   0  0  0  0  0  0  0  0  0  0  0  0
    3.9759   -4.2256    2.1877 H   0  0  0  0  0  0  0  0  0  0  0  0
    1.1264   -3.3058    3.6905 H   0  0  0  0  0  0  0  0  0  0  0  0
    3.9005   -6.0506    6.3378 H   0  0  0  0  0  0  0  0  0  0  0  0
    3.1451   -7.0464    5.2173 H   0  0  0  0  0  0  0  0  0  0  0  0
    2.6848   -7.2420    6.8566 H   0  0  0  0  0  0  0  0  0  0  0  0
   -0.2928   -5.9850    3.8571 H   0  0  0  0  0  0  0  0  0  0  0  0
   -1.5175   -7.7911    4.5526 H   0  0  0  0  0  0  0  0  0  0  0  0
   -0.1344   -8.6534    5.1906 H   0  0  0  0  0  0  0  0  0  0  0  0
    0.5378   -5.5554    7.7913 H   0  0  0  0  0  0  0  0  0  0  0  0
    0.5924   -3.2391    8.5744 H   0  0  0  0  0  0  0  0  0  0  0  0
   -0.4838   -1.8063    7.6732 H   0  0  0  0  0  0  0  0  0  0  0  0
   -0.7512   -2.5774    5.1389 H   0  0  0  0  0  0  0  0  0  0  0  0
   -1.0058   -1.0401    5.7073 H   0  0  0  0  0  0  0  0  0  0  0  0
    0.6085   -1.5999    3.6608 H   0  0  0  0  0  0  0  0  0  0  0  0
    2.7247   -1.8021    3.8003 H   0  0  0  0  0  0  0  0  0  0  0  0
    3.0342    0.0259    6.1601 H   0  0  0  0  0  0  0  0  0  0  0  0
    4.3342   -0.6101    5.2350 H   0  0  0  0  0  0  0  0  0  0  0  0
    4.1185    1.2505    2.5197 H   0  0  0  0  0  0  0  0  0  0  0  0
    2.2036    3.6317    4.7930 H   0  0  0  0  0  0  0  0  0  0  0  0
    3.4933    3.6750    3.5867 H   0  0  0  0  0  0  0  0  0  0  0  0
    0.8592    2.8682    2.9807 H   0  0  0  0  0  0  0  0  0  0  0  0
    2.2802    2.4858    2.0543 H   0  0  0  0  0  0  0  0  0  0  0  0
    1.8089    0.2935    2.5151 H   0  0  0  0  0  0  0  0  0  0  0  0
   -0.8818    1.5772    3.2294 H   0  0  0  0  0  0  0  0  0  0  0  0
   -1.5368    0.1337    3.9572 H   0  0  0  0  0  0  0  0  0  0  0  0
   -0.5502    0.0189    2.5083 H   0  0  0  0  0  0  0  0  0  0  0  0
    0.2982    2.3030    5.3421 H   0  0  0  0  0  0  0  0  0  0  0  0
    1.2662    1.1879    6.2845 H   0  0  0  0  0  0  0  0  0  0  0  0
   -0.4556    0.9672    6.1509 H   0  0  0  0  0  0  0  0  0  0  0  0
    4.7408   -2.3588    6.3469 H   0  0  0  0  0  0  0  0  0  0  0  0
    4.7107   -2.9292    4.7038 H   0  0  0  0  0  0  0  0  0  0  0  0
    4.5780   -4.0637    6.0275 H   0  0  0  0  0  0  0  0  0  0  0  0
    4.1202   -3.3761    8.1220 H   0  0  0  0  0  0  0  0  0  0  0  0
    3.4292   -2.9099   10.1628 H   0  0  0  0  0  0  0  0  0  0  0  0
    1.3877   -5.6787    9.9144 H   0  0  0  0  0  0  0  0  0  0  0  0
    3.2006   -6.5386    8.6123 H   0  0  0  0  0  0  0  0  0  0  0  0
  1  2  1  0
  1 41  1  0
  1 42  1  0
  1 43  1  0
  2 15  1  0
  2  3  1  0
  2  4  1  0
  3 44  1  0
  3 45  1  0
  3 46  1  0
  4  5  1  0
  4 47  1  0
  4 48  1  0
  5 14  1  0
  5  6  1  0
  5 49  1  1
  6  7  1  0
  6 50  1  0
  6 51  1  0
  7  8  1  0
  7  9  1  0
  7 52  1  1
  8 53  1  0
  9 32  1  0
  9 10  1  6
  9 11  1  0
 10 54  1  0
 11 12  1  1
 11 13  1  0
 11 16  1  0
 12 55  1  0
 12 56  1  0
 12 57  1  0
 13 14  1  0
 14 15  1  0
 14 58  1  6
 15 59  1  0
 15 60  1  0
 16 38  1  0
 16 17  1  0
 16 61  1  1
 17 34  1  0
 17 18  1  0
 17 62  1  1
 18 35  1  0
 18 19  1  0
 18 63  1  1
 19 20  1  0
 19 64  1  0
 19 65  1  0
 20 29  1  0
 20 21  1  0
 20 66  1  6
 21 22  1  0
 21 32  1  0
 21 67  1  6
 22 23  1  0
 22 68  1  0
 22 69  1  0
 23 28  1  0
 23 24  1  6
 23 25  1  0
 24 70  1  0
 25 26  1  0
 26 27  1  0
 26 71  1  0
 26 72  1  0
 27 28  1  0
 27 73  1  0
 27 74  1  0
 28 29  1  0
 28 75  1  6
 29 30  1  0
 29 31  1  0
 30 76  1  0
 30 77  1  0
 30 78  1  0
 31 79  1  0
 31 80  1  0
 31 81  1  0
 32 33  1  1
 32 34  1  0
 33 82  1  0
 33 83  1  0
 33 84  1  0
 34 35  1  1
 34 36  1  0
 36 37  1  0
 36 38  1  0
 36 85  1  6
 37 86  1  0
 38 39  1  0
 38 40  1  0
 39 87  1  0
 40 88  1  0
M  END
>  <i_m_ct_stereo_status>  (9) 
1

>  <s_m_source_file>  (9) 
/var/tmp/pbs.5076255.sched01/tmpmjg_sug8/0d5zvyqle.sdf

>  <i_m_source_file_index>  (9) 
3

>  <i_lp_mmshare_version>  (9) 
48012

>  <i_f3d_flags>  (9) 
0

>  <s_epik_input>  (9) 
W0NIM11DKFtDSDNdKShbQ0gyXTEpW0NIMl1bQ0BASF0oTzIpW0NAQEhdMVtDSDJdW0NAQEhdKFtPSF0pW0NAQF0oW09IXSkoW0NAQF0yKFtDSDNdKVtDQEhdKFtDQEhdM1tDQEBdNDU2KUMoW09IXSkoW09IXSlbQ0BASF02W09IXSlbQ0BAXTQoW0NIM10pW0NASF03W0NAQEhdKFtDSDJdW0NAQEhdM081KUMoW0NIM10pKFtDSDNdKVtDQEBIXThbQ0BAXShbQ0gyXTcpKFtPSF0pT1tDSDJdW0NIMl04

>  <s_epik_cmdline>  (9) 
J2VwaWtfcHl0aG9uJywgJy1waHQnLCAnMi4wJywgJy1waCcsICc3LjAnLCAnLXRuJywgJzgnLCAnLW1hJywgJzIwMCcsICctaW1hZScsICc8aW5maWxlLm1hZT4nLCAnLW9tYWUnLCAnPG91dGZpbGUubWFlPic=

>  <r_lp_tautomer_probability>  (9) 
1

>  <r_epik_Ionization_Penalty>  (9) 
1.35495e-06

>  <r_epik_Ionization_Penalty_Charging>  (9) 
0

>  <r_epik_Ionization_Penalty_Neutral>  (9) 
1.35495e-06

>  <r_epik_State_Penalty>  (9) 
-0

>  <r_epik_Charging_Adjusted_Penalty>  (9) 
0

>  <i_epik_Tot_Q>  (9) 
0

>  <i_epik_Tot_abs_Q>  (9) 
0

>  <s_lp_Force_Field>  (9) 
OPLS3e

>  <r_lp_Energy>  (9) 
188.715

>  <b_lp_Chiralities_Consistent>  (9) 
1

>  <s_lp_Variant>  (9) 
2:0-1

>  <s_i_glide_gridfile>  (9) 
pfpi4k_grid

>  <i_i_glide_lignum>  (9) 
3

>  <i_i_glide_rotatable_bonds>  (9) 
6

>  <r_i_docking_score>  (9) 
-1.99554

>  <r_i_glide_ligand_efficiency>  (9) 
-0.0498885

>  <r_i_glide_ligand_efficiency_sa>  (9) 
-0.170616

>  <r_i_glide_ligand_efficiency_ln>  (9) 
-0.42559

>  <r_i_glide_gscore>  (9) 
-1.99554

>  <r_i_glide_lipo>  (9) 
-0.216086

>  <r_i_glide_hbond>  (9) 
0

>  <r_i_glide_metal>  (9) 
-0

>  <r_i_glide_rewards>  (9) 
0

>  <r_i_glide_evdw>  (9) 
-29.7449

>  <r_i_glide_ecoul>  (9) 
-1.93925

>  <r_i_glide_erotb>  (9) 
0

>  <r_i_glide_esite>  (9) 
-0.00132508

>  <r_i_glide_emodel>  (9) 
-35.4809

>  <r_i_glide_energy>  (9) 
-31.6841

>  <r_i_glide_einternal>  (9) 
0.815022

>  <r_i_glide_intrahb_reward>  (9) 
-0

>  <i_i_glide_confnum>  (9) 
1

>  <i_i_glide_posenum>  (9) 
1

>  <r_i_glide_eff_state_penalty>  (9) 
0

>  <ligand_id>  (9) 
2

>  <original_smiles>  (9) 
CC1(C)CC2CC(O)C3(O)C(C)(OC2C1)C1C2C4CC5C(CC6(O)OCCC6C5(C)C)C3(C)C2(O4)C(O)C1(O)O

>  <smiles>  (9) 
[H]OC1([H])C(O[H])(O[H])C2([H])C3([H])C4([H])OC13C(C([H])([H])[H])(C1([H])C([H])([H])C3(O[H])OC([H])([H])C([H])([H])C3([H])C(C([H])([H])[H])(C([H])([H])[H])C1([H])C4([H])[H])C1(O[H])C([H])(O[H])C([H])([H])C3([H])C([H])([H])C(C([H])([H])[H])(C([H])([H])[H])C([H])([H])C3([H])OC21C([H])([H])[H]

$$$$
3:0:0
     RDKit          3D

 48 54  0  0  1  0  0  0  0  0999 V2000
   -6.9760   -4.9173   -5.9045 C   0  0  0  0  0  0  0  0  0  0  0  0
   -6.3074   -5.8975   -5.1602 C   0  0  0  0  0  0  0  0  0  0  0  0
   -6.5498   -7.2549   -5.4235 C   0  0  0  0  0  0  0  0  0  0  0  0
   -7.4492   -7.6646   -6.4326 C   0  0  0  0  0  0  0  0  0  0  0  0
   -8.1347   -6.6533   -7.2100 C   0  0  0  0  0  0  0  0  0  0  0  0
   -7.8768   -5.2962   -6.9153 C   0  0  0  0  0  0  0  0  0  0  0  0
   -9.1272   -6.8961   -8.3924 C   0  0  0  0  0  0  0  0  0  0  0  0
   -8.8837   -8.1484   -9.3036 C   0  0  1  0  0  0  0  0  0  0  0  0
   -7.2720   -8.3523   -9.3287 C   0  0  0  0  0  0  0  0  0  0  0  0
   -6.6886   -9.7138   -8.7245 C   0  0  2  0  0  0  0  0  0  0  0  0
   -7.5236  -10.6337   -9.5169 C   0  0  0  0  0  0  0  0  0  0  0  0
   -8.8153  -10.4813   -8.8193 C   0  0  2  0  0  0  0  0  0  0  0  0
   -9.7668   -9.5303   -8.8838 C   0  0  1  0  0  0  0  0  0  0  0  0
   -9.8352  -10.4818   -7.3609 C   0  0  1  0  0  0  0  0  0  0  0  0
   -8.9110  -11.7114   -6.7359 C   0  0  0  0  0  0  0  0  0  0  0  0
   -7.3714  -11.4541   -6.7168 N   0  0  1  0  0  0  0  0  0  0  0  0
   -6.3649  -12.5110   -6.9215 C   0  0  0  0  0  0  0  0  0  0  0  0
   -5.0209  -11.7412   -6.8608 C   0  0  0  0  0  0  0  0  0  0  0  0
   -5.3726  -10.2704   -6.5286 C   0  0  0  0  0  0  0  0  0  0  0  0
   -6.7686  -10.1073   -7.1361 C   0  0  1  0  0  0  0  0  0  0  0  0
   -7.7367   -9.1864   -6.4908 C   0  0  2  0  0  0  0  0  0  0  0  0
   -8.9290   -9.5111   -7.3378 C   0  0  1  0  0  0  0  0  0  0  0  0
   -6.7803   -3.8717   -5.7159 H   0  0  0  0  0  0  0  0  0  0  0  0
   -5.6158   -5.6119   -4.3800 H   0  0  0  0  0  0  0  0  0  0  0  0
   -6.0598   -7.9892   -4.8027 H   0  0  0  0  0  0  0  0  0  0  0  0
   -8.3629   -4.5184   -7.4861 H   0  0  0  0  0  0  0  0  0  0  0  0
  -10.1591   -6.8536   -8.0425 H   0  0  0  0  0  0  0  0  0  0  0  0
   -9.0268   -6.0317   -9.0509 H   0  0  0  0  0  0  0  0  0  0  0  0
   -9.2033   -7.8641  -10.3127 H   0  0  0  0  0  0  0  0  0  0  0  0
   -7.0029   -8.3184  -10.3838 H   0  0  0  0  0  0  0  0  0  0  0  0
   -6.6966   -7.4961   -8.9778 H   0  0  0  0  0  0  0  0  0  0  0  0
   -5.6676   -9.8102   -9.0346 H   0  0  0  0  0  0  0  0  0  0  0  0
   -7.6306  -10.3938  -10.5757 H   0  0  0  0  0  0  0  0  0  0  0  0
   -7.1470  -11.6542   -9.4596 H   0  0  0  0  0  0  0  0  0  0  0  0
   -9.3614  -11.4051   -9.1531 H   0  0  0  0  0  0  0  0  0  0  0  0
  -10.5611   -9.7838   -9.5884 H   0  0  0  0  0  0  0  0  0  0  0  0
  -10.7632  -10.3071   -6.8122 H   0  0  0  0  0  0  0  0  0  0  0  0
   -9.2042  -11.8460   -5.6932 H   0  0  0  0  0  0  0  0  0  0  0  0
   -9.1408  -12.6656   -7.2142 H   0  0  0  0  0  0  0  0  0  0  0  0
   -6.4362  -13.2588   -6.1319 H   0  0  0  0  0  0  0  0  0  0  0  0
   -6.4889  -13.0155   -7.8789 H   0  0  0  0  0  0  0  0  0  0  0  0
   -4.3352  -12.1650   -6.1238 H   0  0  0  0  0  0  0  0  0  0  0  0
   -4.5228  -11.7872   -7.8313 H   0  0  0  0  0  0  0  0  0  0  0  0
   -5.4104  -10.1585   -5.4449 H   0  0  0  0  0  0  0  0  0  0  0  0
   -4.6408   -9.5530   -6.9044 H   0  0  0  0  0  0  0  0  0  0  0  0
   -7.8833   -9.5028   -5.4627 H   0  0  0  0  0  0  0  0  0  0  0  0
   -9.6577   -8.7457   -6.9854 H   0  0  0  0  0  0  0  0  0  0  0  0
   -7.2680  -11.3416   -5.7198 H   0  0  0  0  0  0  0  0  0  0  0  0
  1  6  1  0
  1  2  2  0
  1 23  1  0
  2  3  1  0
  2 24  1  0
  3  4  2  0
  3 25  1  0
  4 21  1  0
  4  5  1  0
  5  6  2  0
  5  7  1  0
  6 26  1  0
  7  8  1  0
  7 27  1  0
  7 28  1  0
  8 13  1  0
  8  9  1  0
  8 29  1  6
  9 10  1  0
  9 30  1  0
  9 31  1  0
 10 20  1  0
 10 11  1  0
 10 32  1  6
 11 12  1  0
 11 33  1  0
 11 34  1  0
 12 22  1  0
 12 13  1  0
 12 35  1  1
 13 14  1  0
 13 36  1  6
 14 22  1  0
 14 15  1  0
 14 37  1  1
 15 16  1  0
 15 38  1  0
 15 39  1  0
 16 20  1  0
 16 17  1  0
 16 48  1  1
 17 18  1  0
 17 40  1  0
 17 41  1  0
 18 19  1  0
 18 42  1  0
 18 43  1  0
 20 19  1  1
 19 44  1  0
 19 45  1  0
 20 21  1  0
 21 22  1  0
 21 46  1  1
 22 47  1  6
M  CHG  1  16   1
M  END
>  <i_m_ct_stereo_status>  (10) 
1

>  <s_m_source_file>  (10) 
/var/tmp/pbs.5076255.sched01/tmpmjg_sug8/0d5zvyqle.sdf

>  <i_m_source_file_index>  (10) 
4

>  <i_lp_mmshare_version>  (10) 
48012

>  <i_f3d_flags>  (10) 
0

>  <s_epik_input>  (10) 
W2NIXTFbY0hdW2NIXVtjSF1jKFtDSDJdMiljMVtDQEhdM1tDQEBIXShbQ0BIXShbQ0gyXTQpW0NAQEhdNVtDQEBIXTJbQ0gyXVtDQEhdNFtDQEBdMzY3KVtDQEBIXTVbQ0gyXU42W0NIMl1bQ0gyXVtDSDJdNw==

>  <s_epik_cmdline>  (10) 
J2VwaWtfcHl0aG9uJywgJy1waHQnLCAnMi4wJywgJy1waCcsICc3LjAnLCAnLXRuJywgJzgnLCAnLW1hJywgJzIwMCcsICctaW1hZScsICc8aW5maWxlLm1hZT4nLCAnLW9tYWUnLCAnPG91dGZpbGUubWFlPic=

>  <r_lp_tautomer_probability>  (10) 
1

>  <r_epik_Ionization_Penalty>  (10) 
0.000120347

>  <r_epik_Ionization_Penalty_Charging>  (10) 
0.000120347

>  <r_epik_Ionization_Penalty_Neutral>  (10) 
0

>  <r_epik_State_Penalty>  (10) 
-0

>  <r_epik_Charging_Adjusted_Penalty>  (10) 
0.000120347

>  <i_epik_Tot_Q>  (10) 
1

>  <i_epik_Tot_abs_Q>  (10) 
1

>  <s_lp_Force_Field>  (10) 
OPLS3e

>  <r_lp_Energy>  (10) 
372.846

>  <b_lp_Chiralities_Consistent>  (10) 
1

>  <s_lp_Variant>  (10) 
3:0-1

>  <s_i_glide_gridfile>  (10) 
pfpi4k_grid

>  <i_i_glide_lignum>  (10) 
4

>  <i_i_glide_rotatable_bonds>  (10) 
0

>  <r_i_docking_score>  (10) 
-5.64733

>  <r_i_glide_ligand_efficiency>  (10) 
-0.256697

>  <r_i_glide_ligand_efficiency_sa>  (10) 
-0.719275

>  <r_i_glide_ligand_efficiency_ln>  (10) 
-1.38041

>  <r_i_glide_gscore>  (10) 
-5.64733

>  <r_i_glide_lipo>  (10) 
-2.66668

>  <r_i_glide_hbond>  (10) 
0

>  <r_i_glide_metal>  (10) 
-0

>  <r_i_glide_rewards>  (10) 
-2.08627

>  <r_i_glide_evdw>  (10) 
-18.0206

>  <r_i_glide_ecoul>  (10) 
0.0442747

>  <r_i_glide_erotb>  (10) 
0

>  <r_i_glide_esite>  (10) 
0

>  <r_i_glide_emodel>  (10) 
-28.4297

>  <r_i_glide_energy>  (10) 
-17.9763

>  <r_i_glide_einternal>  (10) 
0

>  <r_i_glide_intrahb_reward>  (10) 
-0

>  <i_i_glide_confnum>  (10) 
1

>  <i_i_glide_posenum>  (10) 
3

>  <r_i_glide_eff_state_penalty>  (10) 
0

>  <ligand_id>  (10) 
3

>  <original_smiles>  (10) 
c1ccc2c(c1)CC1CC3CC4C1C1CN5CCCC35C2C41

>  <smiles>  (10) 
[H]c1c([H])c([H])c2c(c1[H])C([H])([H])C1([H])C([H])([H])C3([H])C([H])([H])C4([H])C5([H])C2([H])C32C([H])([H])C([H])([H])C([H])([H])[N+]2([H])C([H])([H])C5([H])C14[H]

$$$$
3:0:1
     RDKit          3D

 48 54  0  0  1  0  0  0  0  0999 V2000
   -2.5827    3.7280    7.8185 C   0  0  0  0  0  0  0  0  0  0  0  0
   -2.8573    3.2166    6.5417 C   0  0  0  0  0  0  0  0  0  0  0  0
   -1.8457    3.1581    5.5704 C   0  0  0  0  0  0  0  0  0  0  0  0
   -0.5306    3.5962    5.8562 C   0  0  0  0  0  0  0  0  0  0  0  0
   -0.2359    4.1073    7.1795 C   0  0  0  0  0  0  0  0  0  0  0  0
   -1.2806    4.1698    8.1281 C   0  0  0  0  0  0  0  0  0  0  0  0
    1.1518    4.5769    7.7078 C   0  0  0  0  0  0  0  0  0  0  0  0
    2.4128    3.8206    7.1744 C   0  0  1  0  0  0  0  0  0  0  0  0
    1.9580    2.2734    6.9380 C   0  0  0  0  0  0  0  0  0  0  0  0
    2.0138    1.7017    5.4402 C   0  0  2  0  0  0  0  0  0  0  0  0
    3.4190    2.0591    5.1935 C   0  0  0  0  0  0  0  0  0  0  0  0
    3.2776    3.5295    4.9965 C   0  0  2  0  0  0  0  0  0  0  0  0
    3.1683    4.5471    5.8601 C   0  0  1  0  0  0  0  0  0  0  0  0
    2.5632    4.9665    4.2133 C   0  0  1  0  0  0  0  0  0  0  0  0
    2.4511    4.1223    2.8034 C   0  0  0  0  0  0  0  0  0  0  0  0
    1.7028    2.7489    2.9177 N   0  0  1  0  0  0  0  0  0  0  0  0
    2.0724    1.5702    2.1282 C   0  0  0  0  0  0  0  0  0  0  0  0
    1.1021    0.4817    2.6321 C   0  0  0  0  0  0  0  0  0  0  0  0
    0.1776    1.1685    3.6673 C   0  0  0  0  0  0  0  0  0  0  0  0
    1.0630    2.2882    4.2229 C   0  0  1  0  0  0  0  0  0  0  0  0
    0.4333    3.5734    4.6585 C   0  0  2  0  0  0  0  0  0  0  0  0
    1.6848    4.3182    4.9563 C   0  0  1  0  0  0  0  0  0  0  0  0
   -3.3715    3.7983    8.5565 H   0  0  0  0  0  0  0  0  0  0  0  0
   -3.8663    2.9116    6.2903 H   0  0  0  0  0  0  0  0  0  0  0  0
   -2.0947    2.7948    4.5809 H   0  0  0  0  0  0  0  0  0  0  0  0
   -1.0998    4.5623    9.1186 H   0  0  0  0  0  0  0  0  0  0  0  0
    1.2606    5.6579    7.6061 H   0  0  0  0  0  0  0  0  0  0  0  0
    1.1381    4.4012    8.7810 H   0  0  0  0  0  0  0  0  0  0  0  0
    3.1372    3.8284    7.9912 H   0  0  0  0  0  0  0  0  0  0  0  0
    2.6417    1.6751    7.5500 H   0  0  0  0  0  0  0  0  0  0  0  0
    1.0128    2.0131    7.4040 H   0  0  0  0  0  0  0  0  0  0  0  0
    1.9269    0.6206    5.4908 H   0  0  0  0  0  0  0  0  0  0  0  0
    4.1241    1.8075    5.9897 H   0  0  0  0  0  0  0  0  0  0  0  0
    3.7928    1.5733    4.2982 H   0  0  0  0  0  0  0  0  0  0  0  0
    4.2226    3.7823    4.4630 H   0  0  0  0  0  0  0  0  0  0  0  0
    4.1274    4.9947    6.0779 H   0  0  0  0  0  0  0  0  0  0  0  0
    2.4293    6.0377    4.1048 H   0  0  0  0  0  0  0  0  0  0  0  0
    1.8622    4.7116    2.1154 H   0  0  0  0  0  0  0  0  0  0  0  0
    3.4088    4.0131    2.3137 H   0  0  0  0  0  0  0  0  0  0  0  0
    1.9105    1.7391    1.0816 H   0  0  0  0  0  0  0  0  0  0  0  0
    3.1044    1.2688    2.2502 H   0  0  0  0  0  0  0  0  0  0  0  0
    0.5269    0.0251    1.8166 H   0  0  0  0  0  0  0  0  0  0  0  0
    1.6625   -0.3274    3.1101 H   0  0  0  0  0  0  0  0  0  0  0  0
   -0.6794    1.5897    3.1395 H   0  0  0  0  0  0  0  0  0  0  0  0
   -0.2027    0.4832    4.4262 H   0  0  0  0  0  0  0  0  0  0  0  0
   -0.0994    4.0472    3.8285 H   0  0  0  0  0  0  0  0  0  0  0  0
    1.2894    5.2683    5.3861 H   0  0  0  0  0  0  0  0  0  0  0  0
    0.8797    3.0315    2.4014 H   0  0  0  0  0  0  0  0  0  0  0  0
  1  6  1  0
  1  2  2  0
  1 23  1  0
  2  3  1  0
  2 24  1  0
  3  4  2  0
  3 25  1  0
  4 21  1  0
  4  5  1  0
  5  6  2  0
  5  7  1  0
  6 26  1  0
  7  8  1  0
  7 27  1  0
  7 28  1  0
  8 13  1  0
  8  9  1  0
  8 29  1  1
  9 10  1  0
  9 30  1  0
  9 31  1  0
 10 20  1  0
 10 11  1  0
 10 32  1  1
 11 12  1  0
 11 33  1  0
 11 34  1  0
 12 22  1  0
 12 13  1  0
 12 35  1  6
 13 14  1  0
 13 36  1  1
 14 22  1  0
 14 15  1  0
 14 37  1  6
 15 16  1  0
 15 38  1  0
 15 39  1  0
 16 20  1  0
 16 17  1  0
 16 48  1  6
 17 18  1  0
 17 40  1  0
 17 41  1  0
 18 19  1  0
 18 42  1  0
 18 43  1  0
 20 19  1  6
 19 44  1  0
 19 45  1  0
 20 21  1  0
 21 22  1  0
 21 46  1  6
 22 47  1  1
M  CHG  1  16   1
M  END
>  <i_m_ct_stereo_status>  (11) 
1

>  <s_m_source_file>  (11) 
/var/tmp/pbs.5076255.sched01/tmpmjg_sug8/0d5zvyqle.sdf

>  <i_m_source_file_index>  (11) 
4

>  <i_lp_mmshare_version>  (11) 
48012

>  <i_f3d_flags>  (11) 
0

>  <s_epik_input>  (11) 
W2NIXTFbY0hdW2NIXVtjSF1jKFtDSDJdMiljMVtDQEhdM1tDQEBIXShbQ0BIXShbQ0gyXTQpW0NAQEhdNVtDQEBIXTJbQ0gyXVtDQEhdNFtDQEBdMzY3KVtDQEBIXTVbQ0gyXU42W0NIMl1bQ0gyXVtDSDJdNw==

>  <s_epik_cmdline>  (11) 
J2VwaWtfcHl0aG9uJywgJy1waHQnLCAnMi4wJywgJy1waCcsICc3LjAnLCAnLXRuJywgJzgnLCAnLW1hJywgJzIwMCcsICctaW1hZScsICc8aW5maWxlLm1hZT4nLCAnLW9tYWUnLCAnPG91dGZpbGUubWFlPic=

>  <r_lp_tautomer_probability>  (11) 
1

>  <r_epik_Ionization_Penalty>  (11) 
0.000120347

>  <r_epik_Ionization_Penalty_Charging>  (11) 
0.000120347

>  <r_epik_Ionization_Penalty_Neutral>  (11) 
0

>  <r_epik_State_Penalty>  (11) 
-0

>  <r_epik_Charging_Adjusted_Penalty>  (11) 
0.000120347

>  <i_epik_Tot_Q>  (11) 
1

>  <i_epik_Tot_abs_Q>  (11) 
1

>  <s_lp_Force_Field>  (11) 
OPLS3e

>  <r_lp_Energy>  (11) 
372.846

>  <b_lp_Chiralities_Consistent>  (11) 
1

>  <s_lp_Variant>  (11) 
3:0-1

>  <s_i_glide_gridfile>  (11) 
pfpi4k_grid

>  <i_i_glide_lignum>  (11) 
4

>  <i_i_glide_rotatable_bonds>  (11) 
0

>  <r_i_docking_score>  (11) 
-3.41568

>  <r_i_glide_ligand_efficiency>  (11) 
-0.155258

>  <r_i_glide_ligand_efficiency_sa>  (11) 
-0.435039

>  <r_i_glide_ligand_efficiency_ln>  (11) 
-0.834916

>  <r_i_glide_gscore>  (11) 
-3.41568

>  <r_i_glide_lipo>  (11) 
-0.293975

>  <r_i_glide_hbond>  (11) 
-0.0863096

>  <r_i_glide_metal>  (11) 
-0

>  <r_i_glide_rewards>  (11) 
-1.4152

>  <r_i_glide_evdw>  (11) 
-17.4394

>  <r_i_glide_ecoul>  (11) 
-4.5873

>  <r_i_glide_erotb>  (11) 
0

>  <r_i_glide_esite>  (11) 
-0.0601338

>  <r_i_glide_emodel>  (11) 
-28.2838

>  <r_i_glide_energy>  (11) 
-22.0267

>  <r_i_glide_einternal>  (11) 
0

>  <r_i_glide_intrahb_reward>  (11) 
-0

>  <i_i_glide_confnum>  (11) 
1

>  <i_i_glide_posenum>  (11) 
1

>  <r_i_glide_eff_state_penalty>  (11) 
0

>  <ligand_id>  (11) 
3

>  <original_smiles>  (11) 
c1ccc2c(c1)CC1CC3CC4C1C1CN5CCCC35C2C41

>  <smiles>  (11) 
[H]c1c([H])c([H])c2c(c1[H])C([H])([H])C1([H])C([H])([H])C3([H])C([H])([H])C4([H])C5([H])C2([H])C32C([H])([H])C([H])([H])C([H])([H])[N+]2([H])C([H])([H])C5([H])C14[H]

$$$$
3:0:2
     RDKit          3D

 48 54  0  0  1  0  0  0  0  0999 V2000
   -2.5914    2.9440    4.4961 C   0  0  0  0  0  0  0  0  0  0  0  0
   -1.8134    3.0941    3.3432 C   0  0  0  0  0  0  0  0  0  0  0  0
   -0.5081    2.5817    3.3219 C   0  0  0  0  0  0  0  0  0  0  0  0
    0.0366    1.9050    4.4339 C   0  0  0  0  0  0  0  0  0  0  0  0
   -0.7750    1.7294    5.6170 C   0  0  0  0  0  0  0  0  0  0  0  0
   -2.0768    2.2749    5.6173 C   0  0  0  0  0  0  0  0  0  0  0  0
   -0.3818    0.9584    6.9125 C   0  0  0  0  0  0  0  0  0  0  0  0
    0.5346   -0.2998    6.7543 C   0  0  1  0  0  0  0  0  0  0  0  0
    0.1341   -0.9810    5.3301 C   0  0  0  0  0  0  0  0  0  0  0  0
    1.2600   -1.0456    4.1928 C   0  0  2  0  0  0  0  0  0  0  0  0
    2.2853   -1.7066    5.0245 C   0  0  0  0  0  0  0  0  0  0  0  0
    2.7168   -0.5591    5.8733 C   0  0  2  0  0  0  0  0  0  0  0  0
    2.1820    0.0040    6.9713 C   0  0  1  0  0  0  0  0  0  0  0  0
    3.3203    1.1047    6.1225 C   0  0  1  0  0  0  0  0  0  0  0  0
    4.2183    0.9614    4.7308 C   0  0  0  0  0  0  0  0  0  0  0  0
    3.4250    0.4973    3.4671 N   0  0  1  0  0  0  0  0  0  0  0  0
    4.0077   -0.3552    2.4189 C   0  0  0  0  0  0  0  0  0  0  0  0
    2.8270   -0.5553    1.4390 C   0  0  0  0  0  0  0  0  0  0  0  0
    1.6529    0.2943    1.9844 C   0  0  0  0  0  0  0  0  0  0  0  0
    1.9050    0.3004    3.4933 C   0  0  1  0  0  0  0  0  0  0  0  0
    1.5207    1.5137    4.2915 C   0  0  2  0  0  0  0  0  0  0  0  0
    2.1013    1.0912    5.5953 C   0  0  1  0  0  0  0  0  0  0  0  0
   -3.5965    3.3357    4.5214 H   0  0  0  0  0  0  0  0  0  0  0  0
   -2.2023    3.6130    2.4782 H   0  0  0  0  0  0  0  0  0  0  0  0
    0.0923    2.7456    2.4404 H   0  0  0  0  0  0  0  0  0  0  0  0
   -2.7105    2.1681    6.4862 H   0  0  0  0  0  0  0  0  0  0  0  0
    0.0051    1.6459    7.6636 H   0  0  0  0  0  0  0  0  0  0  0  0
   -1.3161    0.5897    7.3355 H   0  0  0  0  0  0  0  0  0  0  0  0
    0.2441   -0.9940    7.5483 H   0  0  0  0  0  0  0  0  0  0  0  0
   -0.1484   -2.0090    5.5690 H   0  0  0  0  0  0  0  0  0  0  0  0
   -0.8036   -0.6184    4.9100 H   0  0  0  0  0  0  0  0  0  0  0  0
    0.9304   -1.7425    3.4212 H   0  0  0  0  0  0  0  0  0  0  0  0
    1.9428   -2.5630    5.6107 H   0  0  0  0  0  0  0  0  0  0  0  0
    3.1029   -2.0788    4.4107 H   0  0  0  0  0  0  0  0  0  0  0  0
    3.7123   -0.9249    6.2436 H   0  0  0  0  0  0  0  0  0  0  0  0
    2.5941   -0.4182    7.8910 H   0  0  0  0  0  0  0  0  0  0  0  0
    3.5907    1.9749    6.7322 H   0  0  0  0  0  0  0  0  0  0  0  0
    4.6112    1.9483    4.4841 H   0  0  0  0  0  0  0  0  0  0  0  0
    5.1035    0.3431    4.8880 H   0  0  0  0  0  0  0  0  0  0  0  0
    4.8442    0.1480    1.9370 H   0  0  0  0  0  0  0  0  0  0  0  0
    4.3670   -1.3081    2.8054 H   0  0  0  0  0  0  0  0  0  0  0  0
    3.0830   -0.2717    0.4171 H   0  0  0  0  0  0  0  0  0  0  0  0
    2.5379   -1.6085    1.4105 H   0  0  0  0  0  0  0  0  0  0  0  0
    1.7315    1.3032    1.5761 H   0  0  0  0  0  0  0  0  0  0  0  0
    0.6744   -0.0975    1.6997 H   0  0  0  0  0  0  0  0  0  0  0  0
    2.0259    2.4088    3.9207 H   0  0  0  0  0  0  0  0  0  0  0  0
    1.7456    1.9130    6.2679 H   0  0  0  0  0  0  0  0  0  0  0  0
    3.4519    1.3764    2.9715 H   0  0  0  0  0  0  0  0  0  0  0  0
  1  6  1  0
  1  2  2  0
  1 23  1  0
  2  3  1  0
  2 24  1  0
  3  4  2  0
  3 25  1  0
  4 21  1  0
  4  5  1  0
  5  6  2  0
  5  7  1  0
  6 26  1  0
  7  8  1  0
  7 27  1  0
  7 28  1  0
  8 13  1  0
  8  9  1  0
  8 29  1  1
  9 10  1  0
  9 30  1  0
  9 31  1  0
 10 20  1  0
 10 11  1  0
 10 32  1  6
 11 12  1  0
 11 33  1  0
 11 34  1  0
 12 22  1  0
 12 13  1  0
 12 35  1  1
 13 14  1  0
 13 36  1  1
 14 22  1  0
 14 15  1  0
 14 37  1  1
 15 16  1  0
 15 38  1  0
 15 39  1  0
 16 20  1  0
 16 17  1  0
 16 48  1  6
 17 18  1  0
 17 40  1  0
 17 41  1  0
 18 19  1  0
 18 42  1  0
 18 43  1  0
 20 19  1  6
 19 44  1  0
 19 45  1  0
 20 21  1  0
 21 22  1  0
 21 46  1  6
 22 47  1  1
M  CHG  1  16   1
M  END
>  <i_m_ct_stereo_status>  (12) 
1

>  <s_m_source_file>  (12) 
/var/tmp/pbs.5076255.sched01/tmpmjg_sug8/0d5zvyqle.sdf

>  <i_m_source_file_index>  (12) 
4

>  <i_lp_mmshare_version>  (12) 
48012

>  <i_f3d_flags>  (12) 
0

>  <s_epik_input>  (12) 
W2NIXTFbY0hdW2NIXVtjSF1jKFtDSDJdMiljMVtDQEhdM1tDQEBIXShbQ0BIXShbQ0gyXTQpW0NAQEhdNVtDQEBIXTJbQ0gyXVtDQEhdNFtDQEBdMzY3KVtDQEBIXTVbQ0gyXU42W0NIMl1bQ0gyXVtDSDJdNw==

>  <s_epik_cmdline>  (12) 
J2VwaWtfcHl0aG9uJywgJy1waHQnLCAnMi4wJywgJy1waCcsICc3LjAnLCAnLXRuJywgJzgnLCAnLW1hJywgJzIwMCcsICctaW1hZScsICc8aW5maWxlLm1hZT4nLCAnLW9tYWUnLCAnPG91dGZpbGUubWFlPic=

>  <r_lp_tautomer_probability>  (12) 
1

>  <r_epik_Ionization_Penalty>  (12) 
0.000120347

>  <r_epik_Ionization_Penalty_Charging>  (12) 
0.000120347

>  <r_epik_Ionization_Penalty_Neutral>  (12) 
0

>  <r_epik_State_Penalty>  (12) 
-0

>  <r_epik_Charging_Adjusted_Penalty>  (12) 
0.000120347

>  <i_epik_Tot_Q>  (12) 
1

>  <i_epik_Tot_abs_Q>  (12) 
1

>  <s_lp_Force_Field>  (12) 
OPLS3e

>  <r_lp_Energy>  (12) 
372.846

>  <b_lp_Chiralities_Consistent>  (12) 
1

>  <s_lp_Variant>  (12) 
3:0-1

>  <s_i_glide_gridfile>  (12) 
pfpi4k_grid

>  <i_i_glide_lignum>  (12) 
4

>  <i_i_glide_rotatable_bonds>  (12) 
0

>  <r_i_docking_score>  (12) 
-2.68416

>  <r_i_glide_ligand_efficiency>  (12) 
-0.122007

>  <r_i_glide_ligand_efficiency_sa>  (12) 
-0.341869

>  <r_i_glide_ligand_efficiency_ln>  (12) 
-0.656107

>  <r_i_glide_gscore>  (12) 
-2.68416

>  <r_i_glide_lipo>  (12) 
-0.0629271

>  <r_i_glide_hbond>  (12) 
0

>  <r_i_glide_metal>  (12) 
-0

>  <r_i_glide_rewards>  (12) 
-1.4152

>  <r_i_glide_evdw>  (12) 
-18.2915

>  <r_i_glide_ecoul>  (12) 
-1.91761

>  <r_i_glide_erotb>  (12) 
0

>  <r_i_glide_esite>  (12) 
-0.00382062

>  <r_i_glide_emodel>  (12) 
-25.1492

>  <r_i_glide_energy>  (12) 
-20.2091

>  <r_i_glide_einternal>  (12) 
0

>  <r_i_glide_intrahb_reward>  (12) 
-0

>  <i_i_glide_confnum>  (12) 
2

>  <i_i_glide_posenum>  (12) 
13

>  <r_i_glide_eff_state_penalty>  (12) 
0

>  <ligand_id>  (12) 
3

>  <original_smiles>  (12) 
c1ccc2c(c1)CC1CC3CC4C1C1CN5CCCC35C2C41

>  <smiles>  (12) 
[H]c1c([H])c([H])c2c(c1[H])C([H])([H])C1([H])C([H])([H])C3([H])C([H])([H])C4([H])C5([H])C2([H])C32C([H])([H])C([H])([H])C([H])([H])[N+]2([H])C([H])([H])C5([H])C14[H]

$$$$
4:0:0
     RDKit          3D

 27 28  0  0  1  0  0  0  0  0999 V2000
    0.6270  -10.9219    4.7694 C   0  0  0  0  0  0  0  0  0  0  0  0
    1.0017   -9.4462    4.9787 C   0  0  0  0  0  0  0  0  0  0  0  0
   -0.1101   -8.5853    5.0920 O   0  0  0  0  0  0  0  0  0  0  0  0
   -0.8298   -8.1489    4.0131 C   0  0  0  0  0  0  0  0  0  0  0  0
   -1.7718   -7.3674    4.1442 O   0  0  0  0  0  0  0  0  0  0  0  0
   -0.4985   -8.7006    2.5920 C   0  0  0  0  0  0  0  0  0  0  0  0
    0.8333   -8.3612    2.0671 N   0  0  0  0  0  0  0  0  0  0  0  0
    1.8544   -9.3787    2.0741 C   0  0  0  0  0  0  0  0  0  0  0  0
    3.1631   -9.1311    1.8478 C   0  0  0  0  0  0  0  0  0  0  0  0
    3.5291   -7.8663    1.4159 N   0  0  0  0  0  0  0  0  0  0  0  0
    4.7283   -7.4748    1.0084 N   0  0  0  0  0  0  0  0  0  0  0  0
    4.5028   -6.2239    0.5888 C   0  0  0  0  0  0  0  0  0  0  0  0
    3.1499   -5.8036    0.7434 C   0  0  0  0  0  0  0  0  0  0  0  0
    2.5461   -6.8741    1.2833 C   0  0  0  0  0  0  0  0  0  0  0  0
    1.1259   -7.1153    1.6380 C   0  0  0  0  0  0  0  0  0  0  0  0
    0.2745   -6.2454    1.5464 O   0  0  0  0  0  0  0  0  0  0  0  0
    1.4915  -11.5509    4.5284 H   0  0  0  0  0  0  0  0  0  0  0  0
   -0.1164  -11.0937    3.9819 H   0  0  0  0  0  0  0  0  0  0  0  0
    0.1949  -11.2648    5.7089 H   0  0  0  0  0  0  0  0  0  0  0  0
    1.8122   -9.3130    5.6796 H   0  0  0  0  0  0  0  0  0  0  0  0
    1.5717   -9.0219    4.1947 H   0  0  0  0  0  0  0  0  0  0  0  0
   -0.6774   -9.7722    2.5699 H   0  0  0  0  0  0  0  0  0  0  0  0
   -1.2314   -8.2797    1.9008 H   0  0  0  0  0  0  0  0  0  0  0  0
    1.5650  -10.3098    2.4896 H   0  0  0  0  0  0  0  0  0  0  0  0
    3.9720   -9.8276    2.0389 H   0  0  0  0  0  0  0  0  0  0  0  0
    5.3336   -5.6674    0.1882 H   0  0  0  0  0  0  0  0  0  0  0  0
    2.7188   -4.8328    0.4613 H   0  0  0  0  0  0  0  0  0  0  0  0
  1  2  1  0
  1 17  1  0
  1 18  1  0
  1 19  1  0
  2  3  1  0
  2 20  1  0
  2 21  1  0
  3  4  1  0
  4  5  2  0
  4  6  1  0
  6  7  1  0
  6 22  1  0
  6 23  1  0
  7 15  1  0
  7  8  1  0
  8  9  2  0
  8 24  1  0
  9 10  1  0
  9 25  1  0
 10 14  1  0
 10 11  1  0
 11 12  2  0
 12 13  1  0
 12 26  1  0
 13 14  2  0
 13 27  1  0
 14 15  1  0
 15 16  2  0
M  END
>  <i_m_ct_stereo_status>  (13) 
1

>  <s_m_source_file>  (13) 
/var/tmp/pbs.5076255.sched01/tmpmjg_sug8/0d5zvyqle.sdf

>  <i_m_source_file_index>  (13) 
5

>  <i_lp_mmshare_version>  (13) 
48012

>  <i_f3d_flags>  (13) 
0

>  <s_epik_input>  (13) 
W0NIM11bQ0gyXU9DKD1PKVtDSDJdbihbY0hdW2NIXTEpYyg9TyljKG4xMilbY0hdW2NIXW4y

>  <s_epik_cmdline>  (13) 
J2VwaWtfcHl0aG9uJywgJy1waHQnLCAnMi4wJywgJy1waCcsICc3LjAnLCAnLXRuJywgJzgnLCAnLW1hJywgJzIwMCcsICctaW1hZScsICc8aW5maWxlLm1hZT4nLCAnLW9tYWUnLCAnPG91dGZpbGUubWFlPic=

>  <r_lp_tautomer_probability>  (13) 
1

>  <r_epik_Ionization_Penalty>  (13) 
1.21969e-06

>  <r_epik_Ionization_Penalty_Charging>  (13) 
2.64316e-09

>  <r_epik_Ionization_Penalty_Neutral>  (13) 
1.21705e-06

>  <r_epik_State_Penalty>  (13) 
-0

>  <r_epik_Charging_Adjusted_Penalty>  (13) 
2.64316e-09

>  <i_epik_Tot_Q>  (13) 
0

>  <i_epik_Tot_abs_Q>  (13) 
0

>  <s_epik_Chemistry_Notes>  (13) 
This compound has an ester and may undergo hydrolysis at high or low pH.

>  <s_lp_Force_Field>  (13) 
OPLS3e

>  <r_lp_Energy>  (13) 
29.5932

>  <b_lp_Chiralities_Consistent>  (13) 
1

>  <s_lp_Variant>  (13) 
4:0-1

>  <s_i_glide_gridfile>  (13) 
pfpi4k_grid

>  <i_i_glide_lignum>  (13) 
5

>  <i_i_glide_rotatable_bonds>  (13) 
4

>  <r_i_docking_score>  (13) 
-3.81927

>  <r_i_glide_ligand_efficiency>  (13) 
-0.238704

>  <r_i_glide_ligand_efficiency_sa>  (13) 
-0.601497

>  <r_i_glide_ligand_efficiency_ln>  (13) 
-1.01237

>  <r_i_glide_gscore>  (13) 
-3.81927

>  <r_i_glide_lipo>  (13) 
-0.209255

>  <r_i_glide_hbond>  (13) 
-0.237177

>  <r_i_glide_metal>  (13) 
-0

>  <r_i_glide_rewards>  (13) 
-1.90904

>  <r_i_glide_evdw>  (13) 
-21.907

>  <r_i_glide_ecoul>  (13) 
-6.33901

>  <r_i_glide_erotb>  (13) 
0.689594

>  <r_i_glide_esite>  (13) 
-0.107667

>  <r_i_glide_emodel>  (13) 
-29.7426

>  <r_i_glide_energy>  (13) 
-28.246

>  <r_i_glide_einternal>  (13) 
4.97141

>  <r_i_glide_intrahb_reward>  (13) 
-0

>  <i_i_glide_confnum>  (13) 
2

>  <i_i_glide_posenum>  (13) 
25

>  <r_i_glide_eff_state_penalty>  (13) 
0

>  <ligand_id>  (13) 
4

>  <original_smiles>  (13) 
CCOC(=O)Cn1ccn2nccc2c1=O

>  <smiles>  (13) 
[H]c1nn2c([H])c([H])n(C([H])([H])C(=O)OC([H])([H])C([H])([H])[H])c(=O)c2c1[H]

$$$$
4:0:1
     RDKit          3D

 27 28  0  0  1  0  0  0  0  0999 V2000
    0.4846   -7.9877    6.6182 C   0  0  0  0  0  0  0  0  0  0  0  0
   -0.1812   -9.1953    5.9491 C   0  0  0  0  0  0  0  0  0  0  0  0
    0.1476   -9.2548    4.5673 O   0  0  0  0  0  0  0  0  0  0  0  0
   -0.5877   -8.5717    3.6673 C   0  0  0  0  0  0  0  0  0  0  0  0
   -1.5237   -7.8109    3.9248 O   0  0  0  0  0  0  0  0  0  0  0  0
   -0.1426   -8.8149    2.2253 C   0  0  0  0  0  0  0  0  0  0  0  0
    1.2147   -8.3110    1.9835 N   0  0  0  0  0  0  0  0  0  0  0  0
    2.2972   -9.2143    2.1194 C   0  0  0  0  0  0  0  0  0  0  0  0
    3.5828   -8.8737    1.8677 C   0  0  0  0  0  0  0  0  0  0  0  0
    3.8488   -7.5595    1.4470 N   0  0  0  0  0  0  0  0  0  0  0  0
    5.0476   -7.0405    1.1470 N   0  0  0  0  0  0  0  0  0  0  0  0
    4.7465   -5.7881    0.7928 C   0  0  0  0  0  0  0  0  0  0  0  0
    3.3417   -5.4912    0.8521 C   0  0  0  0  0  0  0  0  0  0  0  0
    2.8196   -6.6764    1.2922 C   0  0  0  0  0  0  0  0  0  0  0  0
    1.4151   -7.0444    1.5339 C   0  0  0  0  0  0  0  0  0  0  0  0
    0.5023   -6.2520    1.3023 O   0  0  0  0  0  0  0  0  0  0  0  0
    0.2308   -7.9378    7.6758 H   0  0  0  0  0  0  0  0  0  0  0  0
    0.1622   -7.0546    6.1554 H   0  0  0  0  0  0  0  0  0  0  0  0
    1.5696   -8.0497    6.5333 H   0  0  0  0  0  0  0  0  0  0  0  0
    0.1446  -10.1164    6.4329 H   0  0  0  0  0  0  0  0  0  0  0  0
   -1.2622   -9.1505    6.0764 H   0  0  0  0  0  0  0  0  0  0  0  0
   -0.2043   -9.8843    2.0139 H   0  0  0  0  0  0  0  0  0  0  0  0
   -0.8639   -8.3302    1.5633 H   0  0  0  0  0  0  0  0  0  0  0  0
    2.0054  -10.2100    2.4333 H   0  0  0  0  0  0  0  0  0  0  0  0
    4.4503   -9.5143    1.9504 H   0  0  0  0  0  0  0  0  0  0  0  0
    5.5649   -5.1418    0.4998 H   0  0  0  0  0  0  0  0  0  0  0  0
    2.8253   -4.5784    0.6052 H   0  0  0  0  0  0  0  0  0  0  0  0
  1  2  1  0
  1 17  1  0
  1 18  1  0
  1 19  1  0
  2  3  1  0
  2 20  1  0
  2 21  1  0
  3  4  1  0
  4  5  2  0
  4  6  1  0
  6  7  1  0
  6 22  1  0
  6 23  1  0
  7 15  1  0
  7  8  1  0
  8  9  2  0
  8 24  1  0
  9 10  1  0
  9 25  1  0
 10 14  1  0
 10 11  1  0
 11 12  2  0
 12 13  1  0
 12 26  1  0
 13 14  2  0
 13 27  1  0
 14 15  1  0
 15 16  2  0
M  END
>  <i_m_ct_stereo_status>  (14) 
1

>  <s_m_source_file>  (14) 
/var/tmp/pbs.5076255.sched01/tmpmjg_sug8/0d5zvyqle.sdf

>  <i_m_source_file_index>  (14) 
5

>  <i_lp_mmshare_version>  (14) 
48012

>  <i_f3d_flags>  (14) 
0

>  <s_epik_input>  (14) 
W0NIM11bQ0gyXU9DKD1PKVtDSDJdbihbY0hdW2NIXTEpYyg9TyljKG4xMilbY0hdW2NIXW4y

>  <s_epik_cmdline>  (14) 
J2VwaWtfcHl0aG9uJywgJy1waHQnLCAnMi4wJywgJy1waCcsICc3LjAnLCAnLXRuJywgJzgnLCAnLW1hJywgJzIwMCcsICctaW1hZScsICc8aW5maWxlLm1hZT4nLCAnLW9tYWUnLCAnPG91dGZpbGUubWFlPic=

>  <r_lp_tautomer_probability>  (14) 
1

>  <r_epik_Ionization_Penalty>  (14) 
1.21969e-06

>  <r_epik_Ionization_Penalty_Charging>  (14) 
2.64316e-09

>  <r_epik_Ionization_Penalty_Neutral>  (14) 
1.21705e-06

>  <r_epik_State_Penalty>  (14) 
-0

>  <r_epik_Charging_Adjusted_Penalty>  (14) 
2.64316e-09

>  <i_epik_Tot_Q>  (14) 
0

>  <i_epik_Tot_abs_Q>  (14) 
0

>  <s_epik_Chemistry_Notes>  (14) 
This compound has an ester and may undergo hydrolysis at high or low pH.

>  <s_lp_Force_Field>  (14) 
OPLS3e

>  <r_lp_Energy>  (14) 
29.5932

>  <b_lp_Chiralities_Consistent>  (14) 
1

>  <s_lp_Variant>  (14) 
4:0-1

>  <s_i_glide_gridfile>  (14) 
pfpi4k_grid

>  <i_i_glide_lignum>  (14) 
5

>  <i_i_glide_rotatable_bonds>  (14) 
4

>  <r_i_docking_score>  (14) 
-3.56737

>  <r_i_glide_ligand_efficiency>  (14) 
-0.222961

>  <r_i_glide_ligand_efficiency_sa>  (14) 
-0.561826

>  <r_i_glide_ligand_efficiency_ln>  (14) 
-0.945603

>  <r_i_glide_gscore>  (14) 
-3.56737

>  <r_i_glide_lipo>  (14) 
-0.140557

>  <r_i_glide_hbond>  (14) 
-0.16

>  <r_i_glide_metal>  (14) 
-0

>  <r_i_glide_rewards>  (14) 
-1.96877

>  <r_i_glide_evdw>  (14) 
-20.803

>  <r_i_glide_ecoul>  (14) 
-5.6666

>  <r_i_glide_erotb>  (14) 
0.689594

>  <r_i_glide_esite>  (14) 
-0.0974986

>  <r_i_glide_emodel>  (14) 
-33.7418

>  <r_i_glide_energy>  (14) 
-26.4696

>  <r_i_glide_einternal>  (14) 
0.26684

>  <r_i_glide_intrahb_reward>  (14) 
-0

>  <i_i_glide_confnum>  (14) 
2

>  <i_i_glide_posenum>  (14) 
1

>  <r_i_glide_eff_state_penalty>  (14) 
0

>  <ligand_id>  (14) 
4

>  <original_smiles>  (14) 
CCOC(=O)Cn1ccn2nccc2c1=O

>  <smiles>  (14) 
[H]c1nn2c([H])c([H])n(C([H])([H])C(=O)OC([H])([H])C([H])([H])[H])c(=O)c2c1[H]

$$$$
4:0:2
     RDKit          3D

 27 28  0  0  1  0  0  0  0  0999 V2000
   -1.2179   -9.5073    2.6023 C   0  0  0  0  0  0  0  0  0  0  0  0
   -0.8992   -8.1528    1.9673 C   0  0  0  0  0  0  0  0  0  0  0  0
    0.4098   -7.7335    2.3376 O   0  0  0  0  0  0  0  0  0  0  0  0
    1.0611   -6.8144    1.6012 C   0  0  0  0  0  0  0  0  0  0  0  0
    0.6031   -6.2582    0.6023 O   0  0  0  0  0  0  0  0  0  0  0  0
    2.4700   -6.5044    2.1401 C   0  0  0  0  0  0  0  0  0  0  0  0
    3.0960   -5.3562    1.4646 N   0  0  0  0  0  0  0  0  0  0  0  0
    3.9937   -5.6280    0.4106 C   0  0  0  0  0  0  0  0  0  0  0  0
    4.6307   -4.6628   -0.2993 C   0  0  0  0  0  0  0  0  0  0  0  0
    4.3901   -3.3238    0.0456 N   0  0  0  0  0  0  0  0  0  0  0  0
    4.9277   -2.2336   -0.5313 N   0  0  0  0  0  0  0  0  0  0  0  0
    4.3675   -1.2356    0.1590 C   0  0  0  0  0  0  0  0  0  0  0  0
    3.4778   -1.6754    1.1960 C   0  0  0  0  0  0  0  0  0  0  0  0
    3.5342   -3.0331    1.0681 C   0  0  0  0  0  0  0  0  0  0  0  0
    2.8348   -4.0753    1.8492 C   0  0  0  0  0  0  0  0  0  0  0  0
    2.0755   -3.7754    2.7656 O   0  0  0  0  0  0  0  0  0  0  0  0
   -2.2145   -9.8448    2.3231 H   0  0  0  0  0  0  0  0  0  0  0  0
   -1.1798   -9.4540    3.6891 H   0  0  0  0  0  0  0  0  0  0  0  0
   -0.5085  -10.2672    2.2769 H   0  0  0  0  0  0  0  0  0  0  0  0
   -0.9852   -8.2375    0.8834 H   0  0  0  0  0  0  0  0  0  0  0  0
   -1.6286   -7.4091    2.2897 H   0  0  0  0  0  0  0  0  0  0  0  0
    2.4052   -6.3163    3.2116 H   0  0  0  0  0  0  0  0  0  0  0  0
    3.0927   -7.3951    2.0311 H   0  0  0  0  0  0  0  0  0  0  0  0
    4.1306   -6.6806    0.1873 H   0  0  0  0  0  0  0  0  0  0  0  0
    5.3128   -4.8089   -1.1233 H   0  0  0  0  0  0  0  0  0  0  0  0
    4.6292   -0.2214   -0.1116 H   0  0  0  0  0  0  0  0  0  0  0  0
    2.9005   -1.0850    1.8945 H   0  0  0  0  0  0  0  0  0  0  0  0
  1  2  1  0
  1 17  1  0
  1 18  1  0
  1 19  1  0
  2  3  1  0
  2 20  1  0
  2 21  1  0
  3  4  1  0
  4  5  2  0
  4  6  1  0
  6  7  1  0
  6 22  1  0
  6 23  1  0
  7 15  1  0
  7  8  1  0
  8  9  2  0
  8 24  1  0
  9 10  1  0
  9 25  1  0
 10 14  1  0
 10 11  1  0
 11 12  2  0
 12 13  1  0
 12 26  1  0
 13 14  2  0
 13 27  1  0
 14 15  1  0
 15 16  2  0
M  END
>  <i_m_ct_stereo_status>  (15) 
1

>  <s_m_source_file>  (15) 
/var/tmp/pbs.5076255.sched01/tmpmjg_sug8/0d5zvyqle.sdf

>  <i_m_source_file_index>  (15) 
5

>  <i_lp_mmshare_version>  (15) 
48012

>  <i_f3d_flags>  (15) 
0

>  <s_epik_input>  (15) 
W0NIM11bQ0gyXU9DKD1PKVtDSDJdbihbY0hdW2NIXTEpYyg9TyljKG4xMilbY0hdW2NIXW4y

>  <s_epik_cmdline>  (15) 
J2VwaWtfcHl0aG9uJywgJy1waHQnLCAnMi4wJywgJy1waCcsICc3LjAnLCAnLXRuJywgJzgnLCAnLW1hJywgJzIwMCcsICctaW1hZScsICc8aW5maWxlLm1hZT4nLCAnLW9tYWUnLCAnPG91dGZpbGUubWFlPic=

>  <r_lp_tautomer_probability>  (15) 
1

>  <r_epik_Ionization_Penalty>  (15) 
1.21969e-06

>  <r_epik_Ionization_Penalty_Charging>  (15) 
2.64316e-09

>  <r_epik_Ionization_Penalty_Neutral>  (15) 
1.21705e-06

>  <r_epik_State_Penalty>  (15) 
-0

>  <r_epik_Charging_Adjusted_Penalty>  (15) 
2.64316e-09

>  <i_epik_Tot_Q>  (15) 
0

>  <i_epik_Tot_abs_Q>  (15) 
0

>  <s_epik_Chemistry_Notes>  (15) 
This compound has an ester and may undergo hydrolysis at high or low pH.

>  <s_lp_Force_Field>  (15) 
OPLS3e

>  <r_lp_Energy>  (15) 
29.5932

>  <b_lp_Chiralities_Consistent>  (15) 
1

>  <s_lp_Variant>  (15) 
4:0-1

>  <s_i_glide_gridfile>  (15) 
pfpi4k_grid

>  <i_i_glide_lignum>  (15) 
5

>  <i_i_glide_rotatable_bonds>  (15) 
4

>  <r_i_docking_score>  (15) 
-3.17595

>  <r_i_glide_ligand_efficiency>  (15) 
-0.198497

>  <r_i_glide_ligand_efficiency_sa>  (15) 
-0.500181

>  <r_i_glide_ligand_efficiency_ln>  (15) 
-0.84185

>  <r_i_glide_gscore>  (15) 
-3.17595

>  <r_i_glide_lipo>  (15) 
-0.180555

>  <r_i_glide_hbond>  (15) 
-0.176476

>  <r_i_glide_metal>  (15) 
-0

>  <r_i_glide_rewards>  (15) 
-1.94327

>  <r_i_glide_evdw>  (15) 
-20.5146

>  <r_i_glide_ecoul>  (15) 
-3.16485

>  <r_i_glide_erotb>  (15) 
0.689594

>  <r_i_glide_esite>  (15) 
-0.0647918

>  <r_i_glide_emodel>  (15) 
-29.8994

>  <r_i_glide_energy>  (15) 
-23.6794

>  <r_i_glide_einternal>  (15) 
0.749223

>  <r_i_glide_intrahb_reward>  (15) 
-0

>  <i_i_glide_confnum>  (15) 
3

>  <i_i_glide_posenum>  (15) 
13

>  <r_i_glide_eff_state_penalty>  (15) 
0

>  <ligand_id>  (15) 
4

>  <original_smiles>  (15) 
CCOC(=O)Cn1ccn2nccc2c1=O

>  <smiles>  (15) 
[H]c1nn2c([H])c([H])n(C([H])([H])C(=O)OC([H])([H])C([H])([H])[H])c(=O)c2c1[H]

$$$$
6:0:0
     RDKit          3D

 58 61  0  0  1  0  0  0  0  0999 V2000
    1.1375   -0.9303    3.9862 O   0  0  0  0  0  0  0  0  0  0  0  0
    1.2961   -1.9910    3.0721 C   0  0  2  0  0  0  0  0  0  0  0  0
    1.4828   -3.3019    3.8416 C   0  0  0  0  0  0  0  0  0  0  0  0
    1.6925   -4.4779    2.9858 N   0  0  0  0  0  0  0  0  0  0  0  0
    1.7846   -5.6808    3.8234 C   0  0  0  0  0  0  0  0  0  0  0  0
    0.6487   -6.6682    3.5902 C   0  0  0  0  0  0  0  0  0  0  0  0
    0.0103   -7.2755    4.6912 C   0  0  0  0  0  0  0  0  0  0  0  0
   -1.0073   -8.2274    4.4768 C   0  0  0  0  0  0  0  0  0  0  0  0
   -1.3959   -8.5839    3.1727 C   0  0  0  0  0  0  0  0  0  0  0  0
   -0.7599   -7.9782    2.0798 C   0  0  0  0  0  0  0  0  0  0  0  0
    0.2583   -7.0340    2.2829 C   0  0  0  0  0  0  0  0  0  0  0  0
    2.8465   -4.2841    2.0868 C   0  0  1  0  0  0  0  0  0  0  0  0
    3.0738   -5.4409    1.0807 C   0  0  0  0  0  0  0  0  0  0  0  0
    4.2731   -5.2069    0.1604 C   0  0  0  0  0  0  0  0  0  0  0  0
    4.1106   -3.9521   -0.6068 N   0  0  2  0  0  0  0  0  0  0  0  0
    5.2290   -3.7678   -1.5801 C   0  0  0  0  0  0  0  0  0  0  0  0
    4.9372   -2.7670   -2.7121 C   0  0  0  0  0  0  0  0  0  0  0  0
    4.9537   -1.2770   -2.2969 C   0  0  0  0  0  0  0  0  0  0  0  0
    3.6780   -0.6903   -2.9059 C   0  0  0  0  0  0  0  0  0  0  0  0
    3.2127   -1.6757   -3.9801 C   0  0  0  0  0  0  0  0  0  0  0  0
    3.6153   -3.0416   -3.4543 C   0  0  0  0  0  0  0  0  0  0  0  0
    3.8695   -2.7935    0.3028 C   0  0  0  0  0  0  0  0  0  0  0  0
    2.6950   -2.9838    1.2615 C   0  0  2  0  0  0  0  0  0  0  0  0
    2.5093   -1.7461    2.1729 C   0  0  1  0  0  0  0  0  0  0  0  0
    2.3054   -0.5553    1.4128 O   0  0  0  0  0  0  0  0  0  0  0  0
    1.0391   -0.1326    3.4844 H   0  0  0  0  0  0  0  0  0  0  0  0
    0.3925   -2.0546    2.4785 H   0  0  0  0  0  0  0  0  0  0  0  0
    2.3289   -3.1834    4.5189 H   0  0  0  0  0  0  0  0  0  0  0  0
    0.6047   -3.4599    4.4684 H   0  0  0  0  0  0  0  0  0  0  0  0
    2.7383   -6.1923    3.6817 H   0  0  0  0  0  0  0  0  0  0  0  0
    1.7784   -5.3999    4.8801 H   0  0  0  0  0  0  0  0  0  0  0  0
    0.3042   -7.0158    5.6991 H   0  0  0  0  0  0  0  0  0  0  0  0
   -1.4805   -8.7145    5.3097 H   0  0  0  0  0  0  0  0  0  0  0  0
   -2.1579   -9.3375    3.0175 H   0  0  0  0  0  0  0  0  0  0  0  0
   -1.0143   -8.2488    1.0651 H   0  0  0  0  0  0  0  0  0  0  0  0
    0.7266   -6.6108    1.4138 H   0  0  0  0  0  0  0  0  0  0  0  0
    3.7507   -4.1854    2.6924 H   0  0  0  0  0  0  0  0  0  0  0  0
    3.2415   -6.3854    1.5885 H   0  0  0  0  0  0  0  0  0  0  0  0
    2.2165   -5.5572    0.4212 H   0  0  0  0  0  0  0  0  0  0  0  0
    5.2051   -5.1620    0.7301 H   0  0  0  0  0  0  0  0  0  0  0  0
    4.3644   -6.0490   -0.5381 H   0  0  0  0  0  0  0  0  0  0  0  0
    6.1606   -3.5186   -1.0660 H   0  0  0  0  0  0  0  0  0  0  0  0
    5.4169   -4.7281   -2.0677 H   0  0  0  0  0  0  0  0  0  0  0  0
    5.7282   -2.8982   -3.4527 H   0  0  0  0  0  0  0  0  0  0  0  0
    5.0602   -1.0964   -1.2207 H   0  0  0  0  0  0  0  0  0  0  0  0
    5.7986   -0.7600   -2.7243 H   0  0  0  0  0  0  0  0  0  0  0  0
    2.8999   -0.6479   -2.1464 H   0  0  0  0  0  0  0  0  0  0  0  0
    3.8324    0.3141   -3.3108 H   0  0  0  0  0  0  0  0  0  0  0  0
    2.1402   -1.6268   -4.1687 H   0  0  0  0  0  0  0  0  0  0  0  0
    3.7173   -1.4555   -4.9200 H   0  0  0  0  0  0  0  0  0  0  0  0
    3.6945   -3.8017   -4.2378 H   0  0  0  0  0  0  0  0  0  0  0  0
    2.8311   -3.3753   -2.7740 H   0  0  0  0  0  0  0  0  0  0  0  0
    4.7887   -2.5449    0.8379 H   0  0  0  0  0  0  0  0  0  0  0  0
    3.5490   -1.9476   -0.2978 H   0  0  0  0  0  0  0  0  0  0  0  0
    1.8147   -3.0647    0.6266 H   0  0  0  0  0  0  0  0  0  0  0  0
    3.4018   -1.6109    2.7920 H   0  0  0  0  0  0  0  0  0  0  0  0
    1.6736   -0.6719    0.7006 H   0  0  0  0  0  0  0  0  0  0  0  0
    3.2825   -4.0717   -1.1805 H   0  0  0  0  0  0  0  0  0  0  0  0
  1  2  1  0
  1 26  1  0
  2 24  1  0
  2  3  1  0
  2 27  1  6
  3  4  1  0
  3 28  1  0
  3 29  1  0
  4  5  1  0
  4 12  1  0
  5  6  1  0
  5 30  1  0
  5 31  1  0
  6 11  1  0
  6  7  2  0
  7  8  1  0
  7 32  1  0
  8  9  2  0
  8 33  1  0
  9 10  1  0
  9 34  1  0
 10 11  2  0
 10 35  1  0
 11 36  1  0
 12 23  1  0
 12 13  1  0
 12 37  1  1
 13 14  1  0
 13 38  1  0
 13 39  1  0
 14 15  1  0
 14 40  1  0
 14 41  1  0
 15 16  1  0
 15 22  1  0
 15 58  1  6
 16 17  1  0
 16 42  1  0
 16 43  1  0
 17 21  1  0
 17 18  1  0
 17 44  1  0
 18 19  1  0
 18 45  1  0
 18 46  1  0
 19 20  1  0
 19 47  1  0
 19 48  1  0
 20 21  1  0
 20 49  1  0
 20 50  1  0
 21 51  1  0
 21 52  1  0
 22 23  1  0
 22 53  1  0
 22 54  1  0
 23 24  1  0
 23 55  1  6
 24 25  1  0
 24 56  1  1
 25 57  1  0
M  CHG  1  15   1
M  END
>  <i_m_ct_stereo_status>  (16) 
1

>  <s_m_source_file>  (16) 
/var/tmp/pbs.5076255.sched01/tmpmjg_sug8/0d5zvyqle.sdf

>  <i_m_source_file_index>  (16) 
7

>  <i_lp_mmshare_version>  (16) 
48012

>  <i_f3d_flags>  (16) 
0

>  <s_epik_input>  (16) 
W2NIXTFbY0hdW2NIXVtjSF1bY0hdYzFbQ0gyXU4yW0NIMl1bQ0BASF0oW09IXSlbQ0BIXShbT0hdKVtDQEhdKFtDQEBIXTIzKVtDSDJdTihbQ0gyXVtDSDJdMylbQ0gyXVtDSF00W0NIMl1bQ0gyXVtDSDJdW0NIMl00

>  <s_epik_cmdline>  (16) 
J2VwaWtfcHl0aG9uJywgJy1waHQnLCAnMi4wJywgJy1waCcsICc3LjAnLCAnLXRuJywgJzgnLCAnLW1hJywgJzIwMCcsICctaW1hZScsICc8aW5maWxlLm1hZT4nLCAnLW9tYWUnLCAnPG91dGZpbGUubWFlPic=

>  <r_epik_Ionization_Penalty>  (16) 
0.042491

>  <r_epik_Ionization_Penalty_Charging>  (16) 
0.000845072

>  <r_epik_Ionization_Penalty_Neutral>  (16) 
0.0416459

>  <r_epik_State_Penalty>  (16) 
0.0387598

>  <r_epik_Charging_Adjusted_Penalty>  (16) 
0.0396048

>  <i_epik_Tot_Q>  (16) 
1

>  <i_epik_Tot_abs_Q>  (16) 
1

>  <s_lp_Force_Field>  (16) 
OPLS3e

>  <r_lp_Energy>  (16) 
53.1469

>  <b_lp_Chiralities_Consistent>  (16) 
1

>  <s_lp_Variant>  (16) 
6:0-1

>  <s_i_glide_gridfile>  (16) 
pfpi4k_grid

>  <i_i_glide_lignum>  (16) 
7

>  <i_i_glide_rotatable_bonds>  (16) 
6

>  <r_i_docking_score>  (16) 
-3.57505

>  <r_i_glide_ligand_efficiency>  (16) 
-0.143002

>  <r_i_glide_ligand_efficiency_sa>  (16) 
-0.41814

>  <r_i_glide_ligand_efficiency_ln>  (16) 
-0.847393

>  <r_i_glide_gscore>  (16) 
-3.57505

>  <r_i_glide_lipo>  (16) 
-0.501329

>  <r_i_glide_hbond>  (16) 
0

>  <r_i_glide_metal>  (16) 
-0

>  <r_i_glide_rewards>  (16) 
-1.05342

>  <r_i_glide_evdw>  (16) 
-29.2026

>  <r_i_glide_ecoul>  (16) 
-7.89351

>  <r_i_glide_erotb>  (16) 
0.636697

>  <r_i_glide_esite>  (16) 
-0.0128381

>  <r_i_glide_emodel>  (16) 
-39.7914

>  <r_i_glide_energy>  (16) 
-37.0961

>  <r_i_glide_einternal>  (16) 
11.4957

>  <r_i_glide_intrahb_reward>  (16) 
-0

>  <i_i_glide_confnum>  (16) 
1

>  <i_i_glide_posenum>  (16) 
37

>  <r_i_glide_eff_state_penalty>  (16) 
0

>  <ligand_id>  (16) 
6

>  <original_smiles>  (16) 
OC1CN(Cc2ccccc2)C2CCN(CC3CCCC3)CC2C1O

>  <smiles>  (16) 
[H]OC1([H])C([H])([H])N(C([H])([H])c2c([H])c([H])c([H])c([H])c2[H])C2([H])C([H])([H])C([H])([H])[N+]([H])(C([H])([H])C3([H])C([H])([H])C([H])([H])C([H])([H])C3([H])[H])C([H])([H])C2([H])C1([H])O[H]

$$$$
6:0:1
     RDKit          3D

 58 61  0  0  1  0  0  0  0  0999 V2000
    2.9635   -1.1634    4.5080 O   0  0  0  0  0  0  0  0  0  0  0  0
    2.6279   -1.7874    3.2814 C   0  0  2  0  0  0  0  0  0  0  0  0
    2.8319   -3.3024    3.4158 C   0  0  0  0  0  0  0  0  0  0  0  0
    2.5219   -4.0459    2.1872 N   0  0  0  0  0  0  0  0  0  0  0  0
    2.6668   -5.4875    2.4581 C   0  0  0  0  0  0  0  0  0  0  0  0
    1.3768   -6.1817    2.8564 C   0  0  0  0  0  0  0  0  0  0  0  0
    0.8750   -6.0738    4.1732 C   0  0  0  0  0  0  0  0  0  0  0  0
   -0.2901   -6.7725    4.5485 C   0  0  0  0  0  0  0  0  0  0  0  0
   -0.9614   -7.5827    3.6101 C   0  0  0  0  0  0  0  0  0  0  0  0
   -0.4620   -7.6939    2.2958 C   0  0  0  0  0  0  0  0  0  0  0  0
    0.7013   -6.9921    1.9175 C   0  0  0  0  0  0  0  0  0  0  0  0
    3.3360   -3.5574    1.0454 C   0  0  1  0  0  0  0  0  0  0  0  0
    2.9980   -4.2486   -0.3008 C   0  0  0  0  0  0  0  0  0  0  0  0
    3.8503   -3.7146   -1.4497 C   0  0  0  0  0  0  0  0  0  0  0  0
    3.6911   -2.2638   -1.6265 N   0  0  2  0  0  0  0  0  0  0  0  0
    4.4591   -1.8204   -2.8269 C   0  0  0  0  0  0  0  0  0  0  0  0
    4.0540   -0.4760   -3.4051 C   0  0  0  0  0  0  0  0  0  0  0  0
    2.6171   -0.3588   -3.4244 C   0  0  0  0  0  0  0  0  0  0  0  0
    1.9941    0.1872   -4.7394 C   0  0  0  0  0  0  0  0  0  0  0  0
    3.1597    0.6290   -5.4938 C   0  0  0  0  0  0  0  0  0  0  0  0
    4.1411   -0.3383   -4.8989 C   0  0  0  0  0  0  0  0  0  0  0  0
    4.0006   -1.5201   -0.3835 C   0  0  0  0  0  0  0  0  0  0  0  0
    3.1808   -2.0257    0.8290 C   0  0  2  0  0  0  0  0  0  0  0  0
    3.5166   -1.2629    2.1345 C   0  0  1  0  0  0  0  0  0  0  0  0
    3.3304    0.1365    1.9830 O   0  0  0  0  0  0  0  0  0  0  0  0
    2.8883   -0.2262    4.3911 H   0  0  0  0  0  0  0  0  0  0  0  0
    1.5738   -1.5888    3.0795 H   0  0  0  0  0  0  0  0  0  0  0  0
    3.8563   -3.5217    3.7264 H   0  0  0  0  0  0  0  0  0  0  0  0
    2.2051   -3.6602    4.2285 H   0  0  0  0  0  0  0  0  0  0  0  0
    3.0992   -6.0281    1.6231 H   0  0  0  0  0  0  0  0  0  0  0  0
    3.3662   -5.6609    3.2746 H   0  0  0  0  0  0  0  0  0  0  0  0
    1.3922   -5.4863    4.9189 H   0  0  0  0  0  0  0  0  0  0  0  0
   -0.6595   -6.7038    5.5634 H   0  0  0  0  0  0  0  0  0  0  0  0
   -1.8489   -8.1321    3.9019 H   0  0  0  0  0  0  0  0  0  0  0  0
   -0.9594   -8.3377    1.5817 H   0  0  0  0  0  0  0  0  0  0  0  0
    1.0949   -7.1123    0.9164 H   0  0  0  0  0  0  0  0  0  0  0  0
    4.3874   -3.7483    1.2608 H   0  0  0  0  0  0  0  0  0  0  0  0
    3.1655   -5.3186   -0.2699 H   0  0  0  0  0  0  0  0  0  0  0  0
    1.9429   -4.1376   -0.5465 H   0  0  0  0  0  0  0  0  0  0  0  0
    4.8993   -3.9391   -1.3020 H   0  0  0  0  0  0  0  0  0  0  0  0
    3.5839   -4.2151   -2.3745 H   0  0  0  0  0  0  0  0  0  0  0  0
    5.4961   -1.7328   -2.5946 H   0  0  0  0  0  0  0  0  0  0  0  0
    4.3424   -2.5574   -3.6139 H   0  0  0  0  0  0  0  0  0  0  0  0
    4.4094    0.3991   -2.8781 H   0  0  0  0  0  0  0  0  0  0  0  0
    2.1841   -1.2910   -3.1472 H   0  0  0  0  0  0  0  0  0  0  0  0
    2.1617    0.1964   -2.6526 H   0  0  0  0  0  0  0  0  0  0  0  0
    1.4399   -0.6184   -5.1953 H   0  0  0  0  0  0  0  0  0  0  0  0
    1.2173    0.9494   -4.6073 H   0  0  0  0  0  0  0  0  0  0  0  0
    3.0285    0.5327   -6.5676 H   0  0  0  0  0  0  0  0  0  0  0  0
    3.3643    1.6686   -5.2339 H   0  0  0  0  0  0  0  0  0  0  0  0
    5.0364    0.1229   -5.1173 H   0  0  0  0  0  0  0  0  0  0  0  0
    4.1452   -1.2676   -5.4314 H   0  0  0  0  0  0  0  0  0  0  0  0
    5.0618   -1.6063   -0.1917 H   0  0  0  0  0  0  0  0  0  0  0  0
    3.8068   -0.4665   -0.5456 H   0  0  0  0  0  0  0  0  0  0  0  0
    2.1313   -1.8557    0.6087 H   0  0  0  0  0  0  0  0  0  0  0  0
    4.5654   -1.4253    2.3932 H   0  0  0  0  0  0  0  0  0  0  0  0
    2.4592    0.3249    1.6655 H   0  0  0  0  0  0  0  0  0  0  0  0
    2.7063   -2.1036   -1.8230 H   0  0  0  0  0  0  0  0  0  0  0  0
  1  2  1  0
  1 26  1  0
  2 24  1  0
  2  3  1  0
  2 27  1  6
  3  4  1  0
  3 28  1  0
  3 29  1  0
  4  5  1  0
  4 12  1  0
  5  6  1  0
  5 30  1  0
  5 31  1  0
  6 11  1  0
  6  7  2  0
  7  8  1  0
  7 32  1  0
  8  9  2  0
  8 33  1  0
  9 10  1  0
  9 34  1  0
 10 11  2  0
 10 35  1  0
 11 36  1  0
 12 23  1  0
 12 13  1  0
 12 37  1  1
 13 14  1  0
 13 38  1  0
 13 39  1  0
 14 15  1  0
 14 40  1  0
 14 41  1  0
 15 16  1  0
 15 22  1  0
 15 58  1  6
 16 17  1  0
 16 42  1  0
 16 43  1  0
 17 21  1  0
 17 18  1  0
 17 44  1  0
 18 19  1  0
 18 45  1  0
 18 46  1  0
 19 20  1  0
 19 47  1  0
 19 48  1  0
 20 21  1  0
 20 49  1  0
 20 50  1  0
 21 51  1  0
 21 52  1  0
 22 23  1  0
 22 53  1  0
 22 54  1  0
 23 24  1  0
 23 55  1  6
 24 25  1  0
 24 56  1  1
 25 57  1  0
M  CHG  1  15   1
M  END
>  <i_m_ct_stereo_status>  (17) 
1

>  <s_m_source_file>  (17) 
/var/tmp/pbs.5076255.sched01/tmpmjg_sug8/0d5zvyqle.sdf

>  <i_m_source_file_index>  (17) 
7

>  <i_lp_mmshare_version>  (17) 
48012

>  <i_f3d_flags>  (17) 
0

>  <s_epik_input>  (17) 
W2NIXTFbY0hdW2NIXVtjSF1bY0hdYzFbQ0gyXU4yW0NIMl1bQ0BASF0oW09IXSlbQ0BIXShbT0hdKVtDQEhdKFtDQEBIXTIzKVtDSDJdTihbQ0gyXVtDSDJdMylbQ0gyXVtDSF00W0NIMl1bQ0gyXVtDSDJdW0NIMl00

>  <s_epik_cmdline>  (17) 
J2VwaWtfcHl0aG9uJywgJy1waHQnLCAnMi4wJywgJy1waCcsICc3LjAnLCAnLXRuJywgJzgnLCAnLW1hJywgJzIwMCcsICctaW1hZScsICc8aW5maWxlLm1hZT4nLCAnLW9tYWUnLCAnPG91dGZpbGUubWFlPic=

>  <r_epik_Ionization_Penalty>  (17) 
0.042491

>  <r_epik_Ionization_Penalty_Charging>  (17) 
0.000845072

>  <r_epik_Ionization_Penalty_Neutral>  (17) 
0.0416459

>  <r_epik_State_Penalty>  (17) 
0.0387598

>  <r_epik_Charging_Adjusted_Penalty>  (17) 
0.0396048

>  <i_epik_Tot_Q>  (17) 
1

>  <i_epik_Tot_abs_Q>  (17) 
1

>  <s_lp_Force_Field>  (17) 
OPLS3e

>  <r_lp_Energy>  (17) 
53.1469

>  <b_lp_Chiralities_Consistent>  (17) 
1

>  <s_lp_Variant>  (17) 
6:0-1

>  <s_i_glide_gridfile>  (17) 
pfpi4k_grid

>  <i_i_glide_lignum>  (17) 
7

>  <i_i_glide_rotatable_bonds>  (17) 
6

>  <r_i_docking_score>  (17) 
-1.38314

>  <r_i_glide_ligand_efficiency>  (17) 
-0.0553256

>  <r_i_glide_ligand_efficiency_sa>  (17) 
-0.161773

>  <r_i_glide_ligand_efficiency_ln>  (17) 
-0.327846

>  <r_i_glide_gscore>  (17) 
-1.38314

>  <r_i_glide_lipo>  (17) 
-0.896643

>  <r_i_glide_hbond>  (17) 
0

>  <r_i_glide_metal>  (17) 
-0

>  <r_i_glide_rewards>  (17) 
-1.10342

>  <r_i_glide_evdw>  (17) 
-2.51964

>  <r_i_glide_ecoul>  (17) 
-3.70594

>  <r_i_glide_erotb>  (17) 
0.636697

>  <r_i_glide_esite>  (17) 
-0.046048

>  <r_i_glide_emodel>  (17) 
-1.70368

>  <r_i_glide_energy>  (17) 
-6.22558

>  <r_i_glide_einternal>  (17) 
6.57086

>  <r_i_glide_intrahb_reward>  (17) 
-0

>  <i_i_glide_confnum>  (17) 
1

>  <i_i_glide_posenum>  (17) 
15

>  <r_i_glide_eff_state_penalty>  (17) 
0

>  <ligand_id>  (17) 
6

>  <original_smiles>  (17) 
OC1CN(Cc2ccccc2)C2CCN(CC3CCCC3)CC2C1O

>  <smiles>  (17) 
[H]OC1([H])C([H])([H])N(C([H])([H])c2c([H])c([H])c([H])c([H])c2[H])C2([H])C([H])([H])C([H])([H])[N+]([H])(C([H])([H])C3([H])C([H])([H])C([H])([H])C([H])([H])C3([H])[H])C([H])([H])C2([H])C1([H])O[H]

$$$$
6:0:2
     RDKit          3D

 58 61  0  0  1  0  0  0  0  0999 V2000
    3.4006   -1.3451    4.2002 O   0  0  0  0  0  0  0  0  0  0  0  0
    3.0635   -1.9350    2.9664 C   0  0  2  0  0  0  0  0  0  0  0  0
    3.4603   -3.4158    3.0232 C   0  0  0  0  0  0  0  0  0  0  0  0
    3.2230   -4.1428    1.7727 N   0  0  0  0  0  0  0  0  0  0  0  0
    3.5821   -5.5613    1.9641 C   0  0  0  0  0  0  0  0  0  0  0  0
    2.4315   -6.4047    2.4934 C   0  0  0  0  0  0  0  0  0  0  0  0
    2.3351   -6.6972    3.8712 C   0  0  0  0  0  0  0  0  0  0  0  0
    1.3079   -7.5338    4.3458 C   0  0  0  0  0  0  0  0  0  0  0  0
    0.3728   -8.0883    3.4530 C   0  0  0  0  0  0  0  0  0  0  0  0
    0.4645   -7.7994    2.0758 C   0  0  0  0  0  0  0  0  0  0  0  0
    1.4894   -6.9583    1.5994 C   0  0  0  0  0  0  0  0  0  0  0  0
    3.9262   -3.4808    0.6533 C   0  0  1  0  0  0  0  0  0  0  0  0
    3.6188   -4.1373   -0.7101 C   0  0  0  0  0  0  0  0  0  0  0  0
    4.3410   -3.4582   -1.8634 C   0  0  0  0  0  0  0  0  0  0  0  0
    3.9684   -2.0300   -1.9616 N   0  0  2  0  0  0  0  0  0  0  0  0
    4.6345   -1.4391   -3.1610 C   0  0  0  0  0  0  0  0  0  0  0  0
    4.0830   -0.0461   -3.6116 C   0  0  0  0  0  0  0  0  0  0  0  0
    2.6199   -0.1774   -3.6324 C   0  0  0  0  0  0  0  0  0  0  0  0
    1.9246    0.5267   -4.8015 C   0  0  0  0  0  0  0  0  0  0  0  0
    3.0242    1.1898   -5.5154 C   0  0  0  0  0  0  0  0  0  0  0  0
    4.1832    0.3157   -5.0912 C   0  0  0  0  0  0  0  0  0  0  0  0
    4.2593   -1.3110   -0.6856 C   0  0  0  0  0  0  0  0  0  0  0  0
    3.5492   -1.9710    0.5248 C   0  0  2  0  0  0  0  0  0  0  0  0
    3.8411   -1.2297    1.8425 C   0  0  1  0  0  0  0  0  0  0  0  0
    3.4459    0.1309    1.7504 O   0  0  0  0  0  0  0  0  0  0  0  0
    3.1329   -0.4381    4.1691 H   0  0  0  0  0  0  0  0  0  0  0  0
    1.9858   -1.8575    2.8145 H   0  0  0  0  0  0  0  0  0  0  0  0
    4.5185   -3.4758    3.2777 H   0  0  0  0  0  0  0  0  0  0  0  0
    2.9259   -3.8959    3.8421 H   0  0  0  0  0  0  0  0  0  0  0  0
    3.9077   -6.0518    1.0494 H   0  0  0  0  0  0  0  0  0  0  0  0
    4.4454   -5.6346    2.6317 H   0  0  0  0  0  0  0  0  0  0  0  0
    3.0621   -6.2855    4.5532 H   0  0  0  0  0  0  0  0  0  0  0  0
    1.2565   -7.7677    5.3992 H   0  0  0  0  0  0  0  0  0  0  0  0
   -0.3925   -8.7565    3.8194 H   0  0  0  0  0  0  0  0  0  0  0  0
   -0.2309   -8.2558    1.3872 H   0  0  0  0  0  0  0  0  0  0  0  0
    1.5699   -6.7608    0.5377 H   0  0  0  0  0  0  0  0  0  0  0  0
    5.0035   -3.5513    0.8235 H   0  0  0  0  0  0  0  0  0  0  0  0
    3.9521   -5.1682   -0.7213 H   0  0  0  0  0  0  0  0  0  0  0  0
    2.5409   -4.1427   -0.8943 H   0  0  0  0  0  0  0  0  0  0  0  0
    5.4254   -3.5557   -1.7602 H   0  0  0  0  0  0  0  0  0  0  0  0
    4.0671   -3.9553   -2.7941 H   0  0  0  0  0  0  0  0  0  0  0  0
    5.6746   -1.3907   -2.7720 H   0  0  0  0  0  0  0  0  0  0  0  0
    4.5562   -2.1397   -4.0091 H   0  0  0  0  0  0  0  0  0  0  0  0
    4.4448    0.8041   -2.9805 H   0  0  0  0  0  0  0  0  0  0  0  0
    2.2267   -1.2044   -3.5794 H   0  0  0  0  0  0  0  0  0  0  0  0
    2.3654    0.3156   -2.7138 H   0  0  0  0  0  0  0  0  0  0  0  0
    1.4664   -0.2328   -5.4147 H   0  0  0  0  0  0  0  0  0  0  0  0
    1.1657    1.2153   -4.4894 H   0  0  0  0  0  0  0  0  0  0  0  0
    2.8492    1.1769   -6.5981 H   0  0  0  0  0  0  0  0  0  0  0  0
    3.1450    2.2132   -5.1592 H   0  0  0  0  0  0  0  0  0  0  0  0
    4.9496    0.9850   -5.3334 H   0  0  0  0  0  0  0  0  0  0  0  0
    4.1681   -0.6047   -5.6964 H   0  0  0  0  0  0  0  0  0  0  0  0
    5.3375   -1.2699   -0.5218 H   0  0  0  0  0  0  0  0  0  0  0  0
    3.9197   -0.2845   -0.8056 H   0  0  0  0  0  0  0  0  0  0  0  0
    2.4741   -1.9102    0.3444 H   0  0  0  0  0  0  0  0  0  0  0  0
    4.9153   -1.2733    2.0417 H   0  0  0  0  0  0  0  0  0  0  0  0
    2.5374    0.1768    1.4889 H   0  0  0  0  0  0  0  0  0  0  0  0
    2.9618   -1.9936   -2.0996 H   0  0  0  0  0  0  0  0  0  0  0  0
  1  2  1  0
  1 26  1  0
  2 24  1  0
  2  3  1  0
  2 27  1  6
  3  4  1  0
  3 28  1  0
  3 29  1  0
  4  5  1  0
  4 12  1  0
  5  6  1  0
  5 30  1  0
  5 31  1  0
  6 11  1  0
  6  7  2  0
  7  8  1  0
  7 32  1  0
  8  9  2  0
  8 33  1  0
  9 10  1  0
  9 34  1  0
 10 11  2  0
 10 35  1  0
 11 36  1  0
 12 23  1  0
 12 13  1  0
 12 37  1  1
 13 14  1  0
 13 38  1  0
 13 39  1  0
 14 15  1  0
 14 40  1  0
 14 41  1  0
 15 16  1  0
 15 22  1  0
 15 58  1  6
 16 17  1  0
 16 42  1  0
 16 43  1  0
 17 21  1  0
 17 18  1  0
 17 44  1  0
 18 19  1  0
 18 45  1  0
 18 46  1  0
 19 20  1  0
 19 47  1  0
 19 48  1  0
 20 21  1  0
 20 49  1  0
 20 50  1  0
 21 51  1  0
 21 52  1  0
 22 23  1  0
 22 53  1  0
 22 54  1  0
 23 24  1  0
 23 55  1  6
 24 25  1  0
 24 56  1  1
 25 57  1  0
M  CHG  1  15   1
M  END
>  <i_m_ct_stereo_status>  (18) 
1

>  <s_m_source_file>  (18) 
/var/tmp/pbs.5076255.sched01/tmpmjg_sug8/0d5zvyqle.sdf

>  <i_m_source_file_index>  (18) 
7

>  <i_lp_mmshare_version>  (18) 
48012

>  <i_f3d_flags>  (18) 
0

>  <s_epik_input>  (18) 
W2NIXTFbY0hdW2NIXVtjSF1bY0hdYzFbQ0gyXU4yW0NIMl1bQ0BASF0oW09IXSlbQ0BIXShbT0hdKVtDQEhdKFtDQEBIXTIzKVtDSDJdTihbQ0gyXVtDSDJdMylbQ0gyXVtDSF00W0NIMl1bQ0gyXVtDSDJdW0NIMl00

>  <s_epik_cmdline>  (18) 
J2VwaWtfcHl0aG9uJywgJy1waHQnLCAnMi4wJywgJy1waCcsICc3LjAnLCAnLXRuJywgJzgnLCAnLW1hJywgJzIwMCcsICctaW1hZScsICc8aW5maWxlLm1hZT4nLCAnLW9tYWUnLCAnPG91dGZpbGUubWFlPic=

>  <r_epik_Ionization_Penalty>  (18) 
0.042491

>  <r_epik_Ionization_Penalty_Charging>  (18) 
0.000845072

>  <r_epik_Ionization_Penalty_Neutral>  (18) 
0.0416459

>  <r_epik_State_Penalty>  (18) 
0.0387598

>  <r_epik_Charging_Adjusted_Penalty>  (18) 
0.0396048

>  <i_epik_Tot_Q>  (18) 
1

>  <i_epik_Tot_abs_Q>  (18) 
1

>  <s_lp_Force_Field>  (18) 
OPLS3e

>  <r_lp_Energy>  (18) 
53.1469

>  <b_lp_Chiralities_Consistent>  (18) 
1

>  <s_lp_Variant>  (18) 
6:0-1

>  <s_i_glide_gridfile>  (18) 
pfpi4k_grid

>  <i_i_glide_lignum>  (18) 
7

>  <i_i_glide_rotatable_bonds>  (18) 
6

>  <r_i_docking_score>  (18) 
-1.19774

>  <r_i_glide_ligand_efficiency>  (18) 
-0.0479096

>  <r_i_glide_ligand_efficiency_sa>  (18) 
-0.140088

>  <r_i_glide_ligand_efficiency_ln>  (18) 
-0.2839

>  <r_i_glide_gscore>  (18) 
-1.19774

>  <r_i_glide_lipo>  (18) 
-0.401271

>  <r_i_glide_hbond>  (18) 
0

>  <r_i_glide_metal>  (18) 
-0

>  <r_i_glide_rewards>  (18) 
-1.05342

>  <r_i_glide_evdw>  (18) 
-1.73916

>  <r_i_glide_ecoul>  (18) 
-3.36705

>  <r_i_glide_erotb>  (18) 
0.636697

>  <r_i_glide_esite>  (18) 
-0.0261622

>  <r_i_glide_emodel>  (18) 
-1.14531

>  <r_i_glide_energy>  (18) 
-5.10621

>  <r_i_glide_einternal>  (18) 
5.7005

>  <r_i_glide_intrahb_reward>  (18) 
-0

>  <i_i_glide_confnum>  (18) 
1

>  <i_i_glide_posenum>  (18) 
9

>  <r_i_glide_eff_state_penalty>  (18) 
0

>  <ligand_id>  (18) 
6

>  <original_smiles>  (18) 
OC1CN(Cc2ccccc2)C2CCN(CC3CCCC3)CC2C1O

>  <smiles>  (18) 
[H]OC1([H])C([H])([H])N(C([H])([H])c2c([H])c([H])c([H])c([H])c2[H])C2([H])C([H])([H])C([H])([H])[N+]([H])(C([H])([H])C3([H])C([H])([H])C([H])([H])C([H])([H])C3([H])[H])C([H])([H])C2([H])C1([H])O[H]

$$$$
6:1:0
     RDKit          3D

 59 62  0  0  1  0  0  0  0  0999 V2000
    9.0154   -5.2604    1.0339 O   0  0  0  0  0  0  0  0  0  0  0  0
    7.6839   -4.9181    0.7121 C   0  0  2  0  0  0  0  0  0  0  0  0
    7.6524   -3.4173    0.3755 C   0  0  0  0  0  0  0  0  0  0  0  0
    6.3066   -2.9897   -0.0907 N   0  0  1  0  0  0  0  0  0  0  0  0
    6.0390   -3.4587   -1.4843 C   0  0  0  0  0  0  0  0  0  0  0  0
    5.0319   -2.6446   -2.2733 C   0  0  0  0  0  0  0  0  0  0  0  0
    4.9519   -1.2443   -2.1289 C   0  0  0  0  0  0  0  0  0  0  0  0
    4.0085   -0.5205   -2.8808 C   0  0  0  0  0  0  0  0  0  0  0  0
    3.1461   -1.1793   -3.7706 C   0  0  0  0  0  0  0  0  0  0  0  0
    3.2250   -2.5711   -3.9158 C   0  0  0  0  0  0  0  0  0  0  0  0
    4.1783   -3.2998   -3.1814 C   0  0  0  0  0  0  0  0  0  0  0  0
    5.2771   -3.2777    0.9614 C   0  0  1  0  0  0  0  0  0  0  0  0
    3.8488   -2.8163    0.6040 C   0  0  0  0  0  0  0  0  0  0  0  0
    2.8667   -3.0826    1.7540 C   0  0  0  0  0  0  0  0  0  0  0  0
    2.8382   -4.5242    2.1176 N   0  0  2  0  0  0  0  0  0  0  0  0
    1.7923   -4.8046    3.1411 C   0  0  0  0  0  0  0  0  0  0  0  0
    1.3773   -6.2964    3.2179 C   0  0  0  0  0  0  0  0  0  0  0  0
    0.7795   -6.8457    1.9113 C   0  0  0  0  0  0  0  0  0  0  0  0
   -0.1786   -7.9545    2.3409 C   0  0  0  0  0  0  0  0  0  0  0  0
   -0.7526   -7.4879    3.6757 C   0  0  0  0  0  0  0  0  0  0  0  0
    0.3078   -6.5673    4.2984 C   0  0  0  0  0  0  0  0  0  0  0  0
    4.1978   -4.9996    2.5057 C   0  0  0  0  0  0  0  0  0  0  0  0
    5.2546   -4.7672    1.3922 C   0  0  2  0  0  0  0  0  0  0  0  0
    6.6728   -5.2128    1.8395 C   0  0  1  0  0  0  0  0  0  0  0  0
    6.6681   -6.5865    2.1753 O   0  0  0  0  0  0  0  0  0  0  0  0
    9.1414   -5.2083    1.9714 H   0  0  0  0  0  0  0  0  0  0  0  0
    7.3970   -5.5112   -0.1502 H   0  0  0  0  0  0  0  0  0  0  0  0
    7.9193   -2.8523    1.2703 H   0  0  0  0  0  0  0  0  0  0  0  0
    8.4074   -3.1712   -0.3737 H   0  0  0  0  0  0  0  0  0  0  0  0
    6.9621   -3.4220   -2.0621 H   0  0  0  0  0  0  0  0  0  0  0  0
    5.7339   -4.5032   -1.4734 H   0  0  0  0  0  0  0  0  0  0  0  0
    5.5899   -0.7061   -1.4479 H   0  0  0  0  0  0  0  0  0  0  0  0
    3.9371    0.5478   -2.7620 H   0  0  0  0  0  0  0  0  0  0  0  0
    2.4145   -0.6166   -4.3311 H   0  0  0  0  0  0  0  0  0  0  0  0
    2.5578   -3.0825   -4.5951 H   0  0  0  0  0  0  0  0  0  0  0  0
    4.2423   -4.3689   -3.3245 H   0  0  0  0  0  0  0  0  0  0  0  0
    5.5817   -2.6839    1.8293 H   0  0  0  0  0  0  0  0  0  0  0  0
    3.8330   -1.7449    0.3947 H   0  0  0  0  0  0  0  0  0  0  0  0
    3.4877   -3.3377   -0.2859 H   0  0  0  0  0  0  0  0  0  0  0  0
    3.1242   -2.4791    2.6281 H   0  0  0  0  0  0  0  0  0  0  0  0
    1.8754   -2.7619    1.4255 H   0  0  0  0  0  0  0  0  0  0  0  0
    2.1216   -4.4425    4.1151 H   0  0  0  0  0  0  0  0  0  0  0  0
    0.9000   -4.2228    2.9037 H   0  0  0  0  0  0  0  0  0  0  0  0
    2.2374   -6.9175    3.4798 H   0  0  0  0  0  0  0  0  0  0  0  0
    0.1966   -6.0782    1.4088 H   0  0  0  0  0  0  0  0  0  0  0  0
    1.5434   -7.2015    1.2135 H   0  0  0  0  0  0  0  0  0  0  0  0
   -0.9531   -8.1582    1.6004 H   0  0  0  0  0  0  0  0  0  0  0  0
    0.3838   -8.8757    2.4898 H   0  0  0  0  0  0  0  0  0  0  0  0
   -1.6709   -6.9257    3.5135 H   0  0  0  0  0  0  0  0  0  0  0  0
   -1.0029   -8.3264    4.3270 H   0  0  0  0  0  0  0  0  0  0  0  0
    0.7745   -7.0446    5.1636 H   0  0  0  0  0  0  0  0  0  0  0  0
   -0.1611   -5.6524    4.6691 H   0  0  0  0  0  0  0  0  0  0  0  0
    4.5035   -4.5147    3.4354 H   0  0  0  0  0  0  0  0  0  0  0  0
    4.1448   -6.0698    2.7000 H   0  0  0  0  0  0  0  0  0  0  0  0
    4.9617   -5.3689    0.5284 H   0  0  0  0  0  0  0  0  0  0  0  0
    6.9624   -4.6571    2.7285 H   0  0  0  0  0  0  0  0  0  0  0  0
    6.4809   -7.1097    1.4095 H   0  0  0  0  0  0  0  0  0  0  0  0
    2.5757   -5.0253    1.2794 H   0  0  0  0  0  0  0  0  0  0  0  0
    6.3564   -1.9867   -0.1540 H   0  0  0  0  0  0  0  0  0  0  0  0
  1  2  1  0
  1 26  1  0
  2 24  1  0
  2  3  1  0
  2 27  1  6
  3  4  1  0
  3 28  1  0
  3 29  1  0
  4  5  1  0
  4 12  1  0
  4 59  1  6
  5  6  1  0
  5 30  1  0
  5 31  1  0
  6 11  1  0
  6  7  2  0
  7  8  1  0
  7 32  1  0
  8  9  2  0
  8 33  1  0
  9 10  1  0
  9 34  1  0
 10 11  2  0
 10 35  1  0
 11 36  1  0
 12 23  1  0
 12 13  1  0
 12 37  1  1
 13 14  1  0
 13 38  1  0
 13 39  1  0
 14 15  1  0
 14 40  1  0
 14 41  1  0
 15 16  1  0
 15 22  1  0
 15 58  1  6
 16 17  1  0
 16 42  1  0
 16 43  1  0
 17 21  1  0
 17 18  1  0
 17 44  1  0
 18 19  1  0
 18 45  1  0
 18 46  1  0
 19 20  1  0
 19 47  1  0
 19 48  1  0
 20 21  1  0
 20 49  1  0
 20 50  1  0
 21 51  1  0
 21 52  1  0
 22 23  1  0
 22 53  1  0
 22 54  1  0
 23 24  1  0
 23 55  1  6
 24 25  1  0
 24 56  1  1
 25 57  1  0
M  CHG  2   4   1  15   1
M  END
>  <i_m_ct_stereo_status>  (19) 
1

>  <s_m_source_file>  (19) 
/var/tmp/pbs.5076255.sched01/tmpmjg_sug8/0d5zvyqle.sdf

>  <i_m_source_file_index>  (19) 
8

>  <i_lp_mmshare_version>  (19) 
48012

>  <i_f3d_flags>  (19) 
0

>  <s_epik_input>  (19) 
W2NIXTFbY0hdW2NIXVtjSF1bY0hdYzFbQ0gyXU4yW0NIMl1bQ0BASF0oW09IXSlbQ0BIXShbT0hdKVtDQEhdKFtDQEBIXTIzKVtDSDJdTihbQ0gyXVtDSDJdMylbQ0gyXVtDSF00W0NIMl1bQ0gyXVtDSDJdW0NIMl00

>  <s_epik_cmdline>  (19) 
J2VwaWtfcHl0aG9uJywgJy1waHQnLCAnMi4wJywgJy1waCcsICc3LjAnLCAnLXRuJywgJzgnLCAnLW1hJywgJzIwMCcsICctaW1hZScsICc8aW5maWxlLm1hZT4nLCAnLW9tYWUnLCAnPG91dGZpbGUubWFlPic=

>  <r_epik_Ionization_Penalty>  (19) 
1.66254

>  <r_epik_Ionization_Penalty_Charging>  (19) 
1.66251

>  <r_epik_Ionization_Penalty_Neutral>  (19) 
3.51926e-05

>  <r_epik_State_Penalty>  (19) 
1.69506

>  <r_epik_Charging_Adjusted_Penalty>  (19) 
3.35757

>  <i_epik_Tot_Q>  (19) 
2

>  <i_epik_Tot_abs_Q>  (19) 
2

>  <s_lp_Force_Field>  (19) 
OPLS3e

>  <r_lp_Energy>  (19) 
59.673

>  <b_lp_Chiralities_Consistent>  (19) 
1

>  <s_lp_Variant>  (19) 
6:0-2

>  <s_i_glide_gridfile>  (19) 
pfpi4k_grid

>  <i_i_glide_lignum>  (19) 
8

>  <i_i_glide_rotatable_bonds>  (19) 
6

>  <r_i_docking_score>  (19) 
-4.00406

>  <r_i_glide_ligand_efficiency>  (19) 
-0.160162

>  <r_i_glide_ligand_efficiency_sa>  (19) 
-0.468317

>  <r_i_glide_ligand_efficiency_ln>  (19) 
-0.949081

>  <r_i_glide_gscore>  (19) 
-4.00406

>  <r_i_glide_lipo>  (19) 
-1.26513

>  <r_i_glide_hbond>  (19) 
0

>  <r_i_glide_metal>  (19) 
-0

>  <r_i_glide_rewards>  (19) 
-1.04654

>  <r_i_glide_evdw>  (19) 
-30.1022

>  <r_i_glide_ecoul>  (19) 
-5.43758

>  <r_i_glide_erotb>  (19) 
0.633412

>  <r_i_glide_esite>  (19) 
-0.00504799

>  <r_i_glide_emodel>  (19) 
-46.4851

>  <r_i_glide_energy>  (19) 
-35.5398

>  <r_i_glide_einternal>  (19) 
2.11715

>  <r_i_glide_intrahb_reward>  (19) 
-0

>  <i_i_glide_confnum>  (19) 
5

>  <i_i_glide_posenum>  (19) 
8

>  <r_i_glide_eff_state_penalty>  (19) 
0

>  <ligand_id>  (19) 
6

>  <original_smiles>  (19) 
OC1CN(Cc2ccccc2)C2CCN(CC3CCCC3)CC2C1O

>  <smiles>  (19) 
[H]OC1([H])C([H])(O[H])C([H])([H])[N+]([H])(C([H])([H])c2c([H])c([H])c([H])c([H])c2[H])C2([H])C([H])([H])C([H])([H])[N+]([H])(C([H])([H])C3([H])C([H])([H])C([H])([H])C([H])([H])C3([H])[H])C([H])([H])C12[H]

$$$$
6:1:1
     RDKit          3D

 59 62  0  0  1  0  0  0  0  0999 V2000
    4.2887  -12.8230    6.3523 O   0  0  0  0  0  0  0  0  0  0  0  0
    3.8363  -11.6952    5.6356 C   0  0  2  0  0  0  0  0  0  0  0  0
    2.7012  -12.1332    4.7086 C   0  0  0  0  0  0  0  0  0  0  0  0
    2.1325  -10.9929    3.9541 N   0  0  1  0  0  0  0  0  0  0  0  0
    1.3012  -10.1193    4.8390 C   0  0  0  0  0  0  0  0  0  0  0  0
    0.2232   -9.3095    4.1352 C   0  0  0  0  0  0  0  0  0  0  0  0
   -0.3708   -9.7617    2.9365 C   0  0  0  0  0  0  0  0  0  0  0  0
   -1.3688   -8.9932    2.3115 C   0  0  0  0  0  0  0  0  0  0  0  0
   -1.7917   -7.7883    2.8865 C   0  0  0  0  0  0  0  0  0  0  0  0
   -1.2206   -7.3379    4.0904 C   0  0  0  0  0  0  0  0  0  0  0  0
   -0.2129   -8.0971    4.7125 C   0  0  0  0  0  0  0  0  0  0  0  0
    3.1962  -10.3489    3.1138 C   0  0  1  0  0  0  0  0  0  0  0  0
    2.7080   -9.1750    2.2407 C   0  0  0  0  0  0  0  0  0  0  0  0
    3.8369   -8.6123    1.3753 C   0  0  0  0  0  0  0  0  0  0  0  0
    4.9804   -8.1635    2.2053 N   0  0  2  0  0  0  0  0  0  0  0  0
    6.0110   -7.4934    1.3722 C   0  0  0  0  0  0  0  0  0  0  0  0
    6.8996   -6.5033    2.1550 C   0  0  0  0  0  0  0  0  0  0  0  0
    6.0897   -5.3335    2.7279 C   0  0  0  0  0  0  0  0  0  0  0  0
    6.0653   -4.2495    1.6387 C   0  0  0  0  0  0  0  0  0  0  0  0
    7.1093   -4.6505    0.5915 C   0  0  0  0  0  0  0  0  0  0  0  0
    7.8996   -5.8009    1.2234 C   0  0  0  0  0  0  0  0  0  0  0  0
    5.5141   -9.2775    3.0376 C   0  0  0  0  0  0  0  0  0  0  0  0
    4.4294   -9.9131    3.9458 C   0  0  2  0  0  0  0  0  0  0  0  0
    4.9674  -11.1160    4.7596 C   0  0  1  0  0  0  0  0  0  0  0  0
    6.0175  -10.6926    5.6009 O   0  0  0  0  0  0  0  0  0  0  0  0
    3.5406  -13.1964    6.8162 H   0  0  0  0  0  0  0  0  0  0  0  0
    3.4782  -10.9531    6.3548 H   0  0  0  0  0  0  0  0  0  0  0  0
    3.0907  -12.8749    4.0092 H   0  0  0  0  0  0  0  0  0  0  0  0
    1.9076  -12.6205    5.2680 H   0  0  0  0  0  0  0  0  0  0  0  0
    0.7721  -10.7409    5.5636 H   0  0  0  0  0  0  0  0  0  0  0  0
    1.9395   -9.4567    5.4237 H   0  0  0  0  0  0  0  0  0  0  0  0
   -0.0824  -10.6905    2.4734 H   0  0  0  0  0  0  0  0  0  0  0  0
   -1.7962   -9.3374    1.3835 H   0  0  0  0  0  0  0  0  0  0  0  0
   -2.5765   -7.2148    2.4221 H   0  0  0  0  0  0  0  0  0  0  0  0
   -1.5684   -6.4220    4.5434 H   0  0  0  0  0  0  0  0  0  0  0  0
    0.2027   -7.7539    5.6493 H   0  0  0  0  0  0  0  0  0  0  0  0
    3.5268  -11.1301    2.4243 H   0  0  0  0  0  0  0  0  0  0  0  0
    1.9174   -9.5018    1.5666 H   0  0  0  0  0  0  0  0  0  0  0  0
    2.3153   -8.3722    2.8646 H   0  0  0  0  0  0  0  0  0  0  0  0
    4.1669   -9.3492    0.6391 H   0  0  0  0  0  0  0  0  0  0  0  0
    3.4370   -7.7575    0.8277 H   0  0  0  0  0  0  0  0  0  0  0  0
    6.6223   -8.2465    0.8850 H   0  0  0  0  0  0  0  0  0  0  0  0
    5.5100   -6.9350    0.5788 H   0  0  0  0  0  0  0  0  0  0  0  0
    7.4481   -7.0259    2.9407 H   0  0  0  0  0  0  0  0  0  0  0  0
    5.0844   -5.6069    3.0489 H   0  0  0  0  0  0  0  0  0  0  0  0
    6.6035   -4.9619    3.6145 H   0  0  0  0  0  0  0  0  0  0  0  0
    5.0801   -4.1869    1.1765 H   0  0  0  0  0  0  0  0  0  0  0  0
    6.2878   -3.2706    2.0642 H   0  0  0  0  0  0  0  0  0  0  0  0
    6.6008   -5.0043   -0.3053 H   0  0  0  0  0  0  0  0  0  0  0  0
    7.7475   -3.8200    0.2872 H   0  0  0  0  0  0  0  0  0  0  0  0
    8.7223   -5.3867    1.8132 H   0  0  0  0  0  0  0  0  0  0  0  0
    8.3481   -6.4657    0.4805 H   0  0  0  0  0  0  0  0  0  0  0  0
    5.9596  -10.0342    2.3870 H   0  0  0  0  0  0  0  0  0  0  0  0
    6.3099   -8.8809    3.6673 H   0  0  0  0  0  0  0  0  0  0  0  0
    4.1104   -9.1489    4.6558 H   0  0  0  0  0  0  0  0  0  0  0  0
    5.3459  -11.8950    4.0905 H   0  0  0  0  0  0  0  0  0  0  0  0
    6.2971  -11.4559    6.0885 H   0  0  0  0  0  0  0  0  0  0  0  0
    4.6149   -7.4542    2.8320 H   0  0  0  0  0  0  0  0  0  0  0  0
    1.4767  -11.4212    3.3151 H   0  0  0  0  0  0  0  0  0  0  0  0
  1  2  1  0
  1 26  1  0
  2 24  1  0
  2  3  1  0
  2 27  1  1
  3  4  1  0
  3 28  1  0
  3 29  1  0
  4  5  1  0
  4 12  1  0
  4 59  1  6
  5  6  1  0
  5 30  1  0
  5 31  1  0
  6 11  1  0
  6  7  2  0
  7  8  1  0
  7 32  1  0
  8  9  2  0
  8 33  1  0
  9 10  1  0
  9 34  1  0
 10 11  2  0
 10 35  1  0
 11 36  1  0
 12 23  1  0
 12 13  1  0
 12 37  1  6
 13 14  1  0
 13 38  1  0
 13 39  1  0
 14 15  1  0
 14 40  1  0
 14 41  1  0
 15 16  1  0
 15 22  1  0
 15 58  1  1
 16 17  1  0
 16 42  1  0
 16 43  1  0
 17 21  1  0
 17 18  1  0
 17 44  1  0
 18 19  1  0
 18 45  1  0
 18 46  1  0
 19 20  1  0
 19 47  1  0
 19 48  1  0
 20 21  1  0
 20 49  1  0
 20 50  1  0
 21 51  1  0
 21 52  1  0
 22 23  1  0
 22 53  1  0
 22 54  1  0
 23 24  1  0
 23 55  1  1
 24 25  1  0
 24 56  1  6
 25 57  1  0
M  CHG  2   4   1  15   1
M  END
>  <i_m_ct_stereo_status>  (20) 
1

>  <s_m_source_file>  (20) 
/var/tmp/pbs.5076255.sched01/tmpmjg_sug8/0d5zvyqle.sdf

>  <i_m_source_file_index>  (20) 
8

>  <i_lp_mmshare_version>  (20) 
48012

>  <i_f3d_flags>  (20) 
0

>  <s_epik_input>  (20) 
W2NIXTFbY0hdW2NIXVtjSF1bY0hdYzFbQ0gyXU4yW0NIMl1bQ0BASF0oW09IXSlbQ0BIXShbT0hdKVtDQEhdKFtDQEBIXTIzKVtDSDJdTihbQ0gyXVtDSDJdMylbQ0gyXVtDSF00W0NIMl1bQ0gyXVtDSDJdW0NIMl00

>  <s_epik_cmdline>  (20) 
J2VwaWtfcHl0aG9uJywgJy1waHQnLCAnMi4wJywgJy1waCcsICc3LjAnLCAnLXRuJywgJzgnLCAnLW1hJywgJzIwMCcsICctaW1hZScsICc8aW5maWxlLm1hZT4nLCAnLW9tYWUnLCAnPG91dGZpbGUubWFlPic=

>  <r_epik_Ionization_Penalty>  (20) 
1.66254

>  <r_epik_Ionization_Penalty_Charging>  (20) 
1.66251

>  <r_epik_Ionization_Penalty_Neutral>  (20) 
3.51926e-05

>  <r_epik_State_Penalty>  (20) 
1.69506

>  <r_epik_Charging_Adjusted_Penalty>  (20) 
3.35757

>  <i_epik_Tot_Q>  (20) 
2

>  <i_epik_Tot_abs_Q>  (20) 
2

>  <s_lp_Force_Field>  (20) 
OPLS3e

>  <r_lp_Energy>  (20) 
59.673

>  <b_lp_Chiralities_Consistent>  (20) 
1

>  <s_lp_Variant>  (20) 
6:0-2

>  <s_i_glide_gridfile>  (20) 
pfpi4k_grid

>  <i_i_glide_lignum>  (20) 
8

>  <i_i_glide_rotatable_bonds>  (20) 
6

>  <r_i_docking_score>  (20) 
-3.43454

>  <r_i_glide_ligand_efficiency>  (20) 
-0.137381

>  <r_i_glide_ligand_efficiency_sa>  (20) 
-0.401706

>  <r_i_glide_ligand_efficiency_ln>  (20) 
-0.814088

>  <r_i_glide_gscore>  (20) 
-3.43454

>  <r_i_glide_lipo>  (20) 
-0.579311

>  <r_i_glide_hbond>  (20) 
0

>  <r_i_glide_metal>  (20) 
-0

>  <r_i_glide_rewards>  (20) 
-1.04654

>  <r_i_glide_evdw>  (20) 
-24.461

>  <r_i_glide_ecoul>  (20) 
-8.0983

>  <r_i_glide_erotb>  (20) 
0.633412

>  <r_i_glide_esite>  (20) 
-0.00429915

>  <r_i_glide_emodel>  (20) 
-41.3734

>  <r_i_glide_energy>  (20) 
-32.5593

>  <r_i_glide_einternal>  (20) 
3.34461

>  <r_i_glide_intrahb_reward>  (20) 
-0

>  <i_i_glide_confnum>  (20) 
1

>  <i_i_glide_posenum>  (20) 
12

>  <r_i_glide_eff_state_penalty>  (20) 
0

>  <ligand_id>  (20) 
6

>  <original_smiles>  (20) 
OC1CN(Cc2ccccc2)C2CCN(CC3CCCC3)CC2C1O

>  <smiles>  (20) 
[H]OC1([H])C([H])(O[H])C([H])([H])[N+]([H])(C([H])([H])c2c([H])c([H])c([H])c([H])c2[H])C2([H])C([H])([H])C([H])([H])[N+]([H])(C([H])([H])C3([H])C([H])([H])C([H])([H])C([H])([H])C3([H])[H])C([H])([H])C12[H]

$$$$
6:1:2
     RDKit          3D

 59 62  0  0  1  0  0  0  0  0999 V2000
    4.6119  -12.7441    6.2320 O   0  0  0  0  0  0  0  0  0  0  0  0
    4.0319  -11.6453    5.5651 C   0  0  2  0  0  0  0  0  0  0  0  0
    2.9624  -12.1797    4.6121 C   0  0  0  0  0  0  0  0  0  0  0  0
    2.2385  -11.0873    3.9064 N   0  0  1  0  0  0  0  0  0  0  0  0
    1.2924  -10.3747    4.8338 C   0  0  0  0  0  0  0  0  0  0  0  0
    0.2403   -9.5012    4.1654 C   0  0  0  0  0  0  0  0  0  0  0  0
   -0.3605   -9.8634    2.9543 C   0  0  0  0  0  0  0  0  0  0  0  0
   -1.3220   -9.0345    2.3436 C   0  0  0  0  0  0  0  0  0  0  0  0
   -1.6973   -7.8293    2.9572 C   0  0  0  0  0  0  0  0  0  0  0  0
   -1.1037   -7.4578    4.1838 C   0  0  0  0  0  0  0  0  0  0  0  0
   -0.1435   -8.2786    4.7905 C   0  0  0  0  0  0  0  0  0  0  0  0
    3.2090  -10.2779    3.1003 C   0  0  1  0  0  0  0  0  0  0  0  0
    2.5883   -9.1326    2.2707 C   0  0  0  0  0  0  0  0  0  0  0  0
    3.6202   -8.3907    1.4409 C   0  0  0  0  0  0  0  0  0  0  0  0
    4.6848   -7.8300    2.3023 N   0  0  2  0  0  0  0  0  0  0  0  0
    5.6204   -6.9906    1.4962 C   0  0  0  0  0  0  0  0  0  0  0  0
    6.2118   -5.7908    2.2744 C   0  0  0  0  0  0  0  0  0  0  0  0
    6.6637   -4.6714    1.3156 C   0  0  0  0  0  0  0  0  0  0  0  0
    8.1214   -4.9732    0.9288 C   0  0  0  0  0  0  0  0  0  0  0  0
    8.5915   -6.0601    1.8867 C   0  0  0  0  0  0  0  0  0  0  0  0
    7.5329   -6.1478    2.9800 C   0  0  0  0  0  0  0  0  0  0  0  0
    5.3412   -8.9198    3.0849 C   0  0  0  0  0  0  0  0  0  0  0  0
    4.3579   -9.7251    3.9591 C   0  0  2  0  0  0  0  0  0  0  0  0
    5.0733  -10.8698    4.7228 C   0  0  1  0  0  0  0  0  0  0  0  0
    6.0962  -10.3285    5.5414 O   0  0  0  0  0  0  0  0  0  0  0  0
    3.9322  -13.1633    6.7465 H   0  0  0  0  0  0  0  0  0  0  0  0
    3.5842  -10.9982    6.3244 H   0  0  0  0  0  0  0  0  0  0  0  0
    3.4305  -12.8451    3.8825 H   0  0  0  0  0  0  0  0  0  0  0  0
    2.2386  -12.7840    5.1447 H   0  0  0  0  0  0  0  0  0  0  0  0
    0.7498  -11.1178    5.4187 H   0  0  0  0  0  0  0  0  0  0  0  0
    1.8470   -9.7768    5.5519 H   0  0  0  0  0  0  0  0  0  0  0  0
   -0.0945  -10.7869    2.4552 H   0  0  0  0  0  0  0  0  0  0  0  0
   -1.7472   -9.3253    1.3954 H   0  0  0  0  0  0  0  0  0  0  0  0
   -2.4376   -7.1981    2.4911 H   0  0  0  0  0  0  0  0  0  0  0  0
   -1.4075   -6.5328    4.6605 H   0  0  0  0  0  0  0  0  0  0  0  0
    0.2903   -7.9914    5.7340 H   0  0  0  0  0  0  0  0  0  0  0  0
    3.6381  -10.9813    2.3807 H   0  0  0  0  0  0  0  0  0  0  0  0
    1.8620   -9.5231    1.5636 H   0  0  0  0  0  0  0  0  0  0  0  0
    2.1223   -8.3926    2.9170 H   0  0  0  0  0  0  0  0  0  0  0  0
    4.0460   -9.0380    0.6786 H   0  0  0  0  0  0  0  0  0  0  0  0
    3.1052   -7.5789    0.9300 H   0  0  0  0  0  0  0  0  0  0  0  0
    6.3878   -7.6112    1.0524 H   0  0  0  0  0  0  0  0  0  0  0  0
    5.0797   -6.5902    0.6438 H   0  0  0  0  0  0  0  0  0  0  0  0
    5.4832   -5.3769    2.9756 H   0  0  0  0  0  0  0  0  0  0  0  0
    6.0258   -4.5425    0.4375 H   0  0  0  0  0  0  0  0  0  0  0  0
    6.6398   -3.7124    1.8392 H   0  0  0  0  0  0  0  0  0  0  0  0
    8.1994   -5.3224   -0.1010 H   0  0  0  0  0  0  0  0  0  0  0  0
    8.7430   -4.0799    1.0201 H   0  0  0  0  0  0  0  0  0  0  0  0
    8.6173   -7.0143    1.3600 H   0  0  0  0  0  0  0  0  0  0  0  0
    9.5849   -5.8852    2.2941 H   0  0  0  0  0  0  0  0  0  0  0  0
    7.7450   -5.4305    3.7748 H   0  0  0  0  0  0  0  0  0  0  0  0
    7.5867   -7.1220    3.4559 H   0  0  0  0  0  0  0  0  0  0  0  0
    5.8953   -9.5751    2.4086 H   0  0  0  0  0  0  0  0  0  0  0  0
    6.0424   -8.4848    3.7818 H   0  0  0  0  0  0  0  0  0  0  0  0
    3.9441   -9.0370    4.6976 H   0  0  0  0  0  0  0  0  0  0  0  0
    5.5404  -11.5609    4.0162 H   0  0  0  0  0  0  0  0  0  0  0  0
    5.7136   -9.8635    6.2707 H   0  0  0  0  0  0  0  0  0  0  0  0
    4.2314   -7.2023    2.9536 H   0  0  0  0  0  0  0  0  0  0  0  0
    1.6433  -11.5651    3.2458 H   0  0  0  0  0  0  0  0  0  0  0  0
  1  2  1  0
  1 26  1  0
  2 24  1  0
  2  3  1  0
  2 27  1  1
  3  4  1  0
  3 28  1  0
  3 29  1  0
  4  5  1  0
  4 12  1  0
  4 59  1  6
  5  6  1  0
  5 30  1  0
  5 31  1  0
  6 11  1  0
  6  7  2  0
  7  8  1  0
  7 32  1  0
  8  9  2  0
  8 33  1  0
  9 10  1  0
  9 34  1  0
 10 11  2  0
 10 35  1  0
 11 36  1  0
 12 23  1  0
 12 13  1  0
 12 37  1  6
 13 14  1  0
 13 38  1  0
 13 39  1  0
 14 15  1  0
 14 40  1  0
 14 41  1  0
 15 16  1  0
 15 22  1  0
 15 58  1  1
 16 17  1  0
 16 42  1  0
 16 43  1  0
 17 21  1  0
 17 18  1  0
 17 44  1  0
 18 19  1  0
 18 45  1  0
 18 46  1  0
 19 20  1  0
 19 47  1  0
 19 48  1  0
 20 21  1  0
 20 49  1  0
 20 50  1  0
 21 51  1  0
 21 52  1  0
 22 23  1  0
 22 53  1  0
 22 54  1  0
 23 24  1  0
 23 55  1  1
 24 25  1  0
 24 56  1  6
 25 57  1  0
M  CHG  2   4   1  15   1
M  END
>  <i_m_ct_stereo_status>  (21) 
1

>  <s_m_source_file>  (21) 
/var/tmp/pbs.5076255.sched01/tmpmjg_sug8/0d5zvyqle.sdf

>  <i_m_source_file_index>  (21) 
8

>  <i_lp_mmshare_version>  (21) 
48012

>  <i_f3d_flags>  (21) 
0

>  <s_epik_input>  (21) 
W2NIXTFbY0hdW2NIXVtjSF1bY0hdYzFbQ0gyXU4yW0NIMl1bQ0BASF0oW09IXSlbQ0BIXShbT0hdKVtDQEhdKFtDQEBIXTIzKVtDSDJdTihbQ0gyXVtDSDJdMylbQ0gyXVtDSF00W0NIMl1bQ0gyXVtDSDJdW0NIMl00

>  <s_epik_cmdline>  (21) 
J2VwaWtfcHl0aG9uJywgJy1waHQnLCAnMi4wJywgJy1waCcsICc3LjAnLCAnLXRuJywgJzgnLCAnLW1hJywgJzIwMCcsICctaW1hZScsICc8aW5maWxlLm1hZT4nLCAnLW9tYWUnLCAnPG91dGZpbGUubWFlPic=

>  <r_epik_Ionization_Penalty>  (21) 
1.66254

>  <r_epik_Ionization_Penalty_Charging>  (21) 
1.66251

>  <r_epik_Ionization_Penalty_Neutral>  (21) 
3.51926e-05

>  <r_epik_State_Penalty>  (21) 
1.69506

>  <r_epik_Charging_Adjusted_Penalty>  (21) 
3.35757

>  <i_epik_Tot_Q>  (21) 
2

>  <i_epik_Tot_abs_Q>  (21) 
2

>  <s_lp_Force_Field>  (21) 
OPLS3e

>  <r_lp_Energy>  (21) 
59.673

>  <b_lp_Chiralities_Consistent>  (21) 
1

>  <s_lp_Variant>  (21) 
6:0-2

>  <s_i_glide_gridfile>  (21) 
pfpi4k_grid

>  <i_i_glide_lignum>  (21) 
8

>  <i_i_glide_rotatable_bonds>  (21) 
6

>  <r_i_docking_score>  (21) 
-3.41957

>  <r_i_glide_ligand_efficiency>  (21) 
-0.136783

>  <r_i_glide_ligand_efficiency_sa>  (21) 
-0.399955

>  <r_i_glide_ligand_efficiency_ln>  (21) 
-0.81054

>  <r_i_glide_gscore>  (21) 
-3.41957

>  <r_i_glide_lipo>  (21) 
-0.564575

>  <r_i_glide_hbond>  (21) 
0

>  <r_i_glide_metal>  (21) 
-0

>  <r_i_glide_rewards>  (21) 
-1.04654

>  <r_i_glide_evdw>  (21) 
-26.5992

>  <r_i_glide_ecoul>  (21) 
-7.39091

>  <r_i_glide_erotb>  (21) 
0.633412

>  <r_i_glide_esite>  (21) 
-0.00326475

>  <r_i_glide_emodel>  (21) 
-41.543

>  <r_i_glide_energy>  (21) 
-33.9901

>  <r_i_glide_einternal>  (21) 
4.96803

>  <r_i_glide_intrahb_reward>  (21) 
-0

>  <i_i_glide_confnum>  (21) 
1

>  <i_i_glide_posenum>  (21) 
20

>  <r_i_glide_eff_state_penalty>  (21) 
0

>  <ligand_id>  (21) 
6

>  <original_smiles>  (21) 
OC1CN(Cc2ccccc2)C2CCN(CC3CCCC3)CC2C1O

>  <smiles>  (21) 
[H]OC1([H])C([H])(O[H])C([H])([H])[N+]([H])(C([H])([H])c2c([H])c([H])c([H])c([H])c2[H])C2([H])C([H])([H])C([H])([H])[N+]([H])(C([H])([H])C3([H])C([H])([H])C([H])([H])C([H])([H])C3([H])[H])C([H])([H])C12[H]

$$$$
7:0:0
     RDKit          3D

 57 61  0  0  1  0  0  0  0  0999 V2000
    2.0605   -3.5617   -1.5905 C   0  0  0  0  0  0  0  0  0  0  0  0
    3.1179   -2.9618   -2.5360 C   0  0  0  0  0  0  0  0  0  0  0  0
    2.7848   -3.5221   -3.9597 C   0  0  0  0  0  0  0  0  0  0  0  0
    2.9842   -1.3931   -2.4514 C   0  0  2  0  0  0  0  0  0  0  0  0
    3.6539   -0.8513   -3.6864 C   0  0  0  0  0  0  0  0  0  0  0  0
    3.1146   -0.2820   -4.6259 O   0  0  0  0  0  0  0  0  0  0  0  0
    4.8816   -1.1969   -3.5156 O   0  0  0  0  0  0  0  0  0  0  0  0
    5.1405   -1.6855   -2.2131 C   0  0  1  0  0  0  0  0  0  0  0  0
    4.0673   -0.9180   -1.4645 C   0  0  2  0  0  0  0  0  0  0  0  0
    3.9540   -1.0641    0.0853 C   0  0  0  0  0  0  0  0  0  0  0  0
    4.1541   -2.4534    0.7217 C   0  0  2  0  0  0  0  0  0  0  0  0
    4.2544   -2.5261    2.2155 C   0  0  2  0  0  0  0  0  0  0  0  0
    4.4716   -4.0024    2.3876 C   0  0  1  0  0  0  0  0  0  0  0  0
    5.7050   -4.2322    1.5498 C   0  0  0  0  0  0  0  0  0  0  0  0
    5.4269   -3.2652    0.3248 C   0  0  2  0  0  0  0  0  0  0  0  0
    6.5712   -2.4234    0.2801 O   0  0  0  0  0  0  0  0  0  0  0  0
    5.2907   -3.9597   -1.0545 C   0  0  1  0  0  0  0  0  0  0  0  0
    4.6776   -5.1979   -0.8791 O   0  0  0  0  0  0  0  0  0  0  0  0
    4.6702   -3.1486   -2.2426 C   0  0  1  0  0  0  0  0  0  0  0  0
    4.1524   -3.8214    3.8718 C   0  0  0  0  0  0  0  0  0  0  0  0
    3.3920   -4.9681    4.5369 C   0  0  0  0  0  0  0  0  0  0  0  0
    5.3587   -3.5404    4.7747 C   0  0  0  0  0  0  0  0  0  0  0  0
    3.2650   -2.5962    3.3800 C   0  0  0  0  0  0  0  0  0  0  0  0
    3.2467   -1.3794    4.3056 C   0  0  0  0  0  0  0  0  0  0  0  0
    1.8016   -2.8515    2.9840 C   0  0  0  0  0  0  0  0  0  0  0  0
    1.1200   -3.7216   -2.1185 H   0  0  0  0  0  0  0  0  0  0  0  0
    1.8138   -2.8506   -0.8129 H   0  0  0  0  0  0  0  0  0  0  0  0
    2.3480   -4.5047   -1.1248 H   0  0  0  0  0  0  0  0  0  0  0  0
    3.5113   -3.2260   -4.7200 H   0  0  0  0  0  0  0  0  0  0  0  0
    1.8073   -3.1846   -4.3044 H   0  0  0  0  0  0  0  0  0  0  0  0
    2.7716   -4.6053   -4.0066 H   0  0  0  0  0  0  0  0  0  0  0  0
    2.0154   -0.9533   -2.3297 H   0  0  0  0  0  0  0  0  0  0  0  0
    6.1607   -1.4899   -1.8937 H   0  0  0  0  0  0  0  0  0  0  0  0
    4.2404    0.1412   -1.5904 H   0  0  0  0  0  0  0  0  0  0  0  0
    4.7016   -0.4030    0.5259 H   0  0  0  0  0  0  0  0  0  0  0  0
    2.9927   -0.6624    0.4106 H   0  0  0  0  0  0  0  0  0  0  0  0
    3.3016   -3.0587    0.4676 H   0  0  0  0  0  0  0  0  0  0  0  0
    5.1238   -1.9439    2.5460 H   0  0  0  0  0  0  0  0  0  0  0  0
    3.6485   -4.5869    1.9542 H   0  0  0  0  0  0  0  0  0  0  0  0
    6.6114   -3.9451    2.0848 H   0  0  0  0  0  0  0  0  0  0  0  0
    5.8367   -5.2792    1.2726 H   0  0  0  0  0  0  0  0  0  0  0  0
    7.3148   -2.9777    0.1339 H   0  0  0  0  0  0  0  0  0  0  0  0
    6.3005   -4.1997   -1.3823 H   0  0  0  0  0  0  0  0  0  0  0  0
    4.1241   -5.3841   -1.6412 H   0  0  0  0  0  0  0  0  0  0  0  0
    5.1315   -3.5811   -3.1344 H   0  0  0  0  0  0  0  0  0  0  0  0
    2.9867   -4.6669    5.5029 H   0  0  0  0  0  0  0  0  0  0  0  0
    4.0227   -5.8447    4.6906 H   0  0  0  0  0  0  0  0  0  0  0  0
    2.5487   -5.2934    3.9242 H   0  0  0  0  0  0  0  0  0  0  0  0
    5.0557   -3.2594    5.7829 H   0  0  0  0  0  0  0  0  0  0  0  0
    5.9539   -2.7214    4.3863 H   0  0  0  0  0  0  0  0  0  0  0  0
    6.0107   -4.4125    4.8514 H   0  0  0  0  0  0  0  0  0  0  0  0
    2.7330   -1.6008    5.2410 H   0  0  0  0  0  0  0  0  0  0  0  0
    2.7634   -0.5166    3.8449 H   0  0  0  0  0  0  0  0  0  0  0  0
    4.2595   -1.0636    4.5671 H   0  0  0  0  0  0  0  0  0  0  0  0
    1.1823   -3.0541    3.8583 H   0  0  0  0  0  0  0  0  0  0  0  0
    1.6988   -3.7002    2.3095 H   0  0  0  0  0  0  0  0  0  0  0  0
    1.3769   -1.9895    2.4665 H   0  0  0  0  0  0  0  0  0  0  0  0
  1  2  1  0
  1 26  1  0
  1 27  1  0
  1 28  1  0
  2 19  1  0
  2  3  1  0
  2  4  1  0
  3 29  1  0
  3 30  1  0
  3 31  1  0
  4  9  1  0
  4  5  1  0
  4 32  1  1
  5  6  2  0
  5  7  1  0
  7  8  1  0
  8 19  1  0
  8  9  1  0
  8 33  1  1
  9 10  1  0
  9 34  1  1
 10 11  1  0
 10 35  1  0
 10 36  1  0
 11 15  1  0
 11 12  1  0
 11 37  1  6
 12 23  1  0
 12 13  1  0
 12 38  1  1
 13 14  1  0
 13 20  1  0
 13 39  1  6
 14 15  1  0
 14 40  1  0
 14 41  1  0
 15 16  1  6
 15 17  1  0
 16 42  1  0
 17 18  1  0
 17 19  1  0
 17 43  1  6
 18 44  1  0
 19 45  1  6
 20 21  1  0
 20 22  1  0
 20 23  1  0
 21 46  1  0
 21 47  1  0
 21 48  1  0
 22 49  1  0
 22 50  1  0
 22 51  1  0
 23 24  1  0
 23 25  1  0
 24 52  1  0
 24 53  1  0
 24 54  1  0
 25 55  1  0
 25 56  1  0
 25 57  1  0
M  END
>  <i_m_ct_stereo_status>  (22) 
1

>  <s_m_source_file>  (22) 
/var/tmp/pbs.5076255.sched01/tmpmjg_sug8/0d5zvyqle.sdf

>  <i_m_source_file_index>  (22) 
9

>  <i_lp_mmshare_version>  (22) 
48012

>  <i_f3d_flags>  (22) 
0

>  <s_epik_input>  (22) 
Tz1DMU9bQ0BASF0yW0NAQEhdKFtDQEBIXTNbT0hdKUMoW0NIM10pKFtDSDNdKVtDQEhdMVtDQEhdMltDSDJdW0NAQEhdKFtDQF0zNFtPSF0pW0NAQEhdNVtDQEBIXShbQ0gyXTQpQyhbQ0gzXSkoW0NIM10pQzUoW0NIM10pW0NIM10=

>  <s_epik_cmdline>  (22) 
J2VwaWtfcHl0aG9uJywgJy1waHQnLCAnMi4wJywgJy1waCcsICc3LjAnLCAnLXRuJywgJzgnLCAnLW1hJywgJzIwMCcsICctaW1hZScsICc8aW5maWxlLm1hZT4nLCAnLW9tYWUnLCAnPG91dGZpbGUubWFlPic=

>  <r_lp_tautomer_probability>  (22) 
1

>  <r_epik_Ionization_Penalty>  (22) 
9.33954e-07

>  <r_epik_Ionization_Penalty_Charging>  (22) 
0

>  <r_epik_Ionization_Penalty_Neutral>  (22) 
9.33954e-07

>  <r_epik_State_Penalty>  (22) 
-0

>  <r_epik_Charging_Adjusted_Penalty>  (22) 
0

>  <i_epik_Tot_Q>  (22) 
0

>  <i_epik_Tot_abs_Q>  (22) 
0

>  <s_epik_Chemistry_Notes>  (22) 
This compound has an ester and may undergo hydrolysis at high or low pH.

>  <s_lp_Force_Field>  (22) 
OPLS3e

>  <r_lp_Energy>  (22) 
105.539

>  <b_lp_Chiralities_Consistent>  (22) 
1

>  <s_lp_Variant>  (22) 
7:0-1

>  <s_i_glide_gridfile>  (22) 
pfpi4k_grid

>  <i_i_glide_lignum>  (22) 
9

>  <i_i_glide_rotatable_bonds>  (22) 
2

>  <r_i_docking_score>  (22) 
-3.409

>  <r_i_glide_ligand_efficiency>  (22) 
-0.13636

>  <r_i_glide_ligand_efficiency_sa>  (22) 
-0.398719

>  <r_i_glide_ligand_efficiency_ln>  (22) 
-0.808035

>  <r_i_glide_gscore>  (22) 
-3.409

>  <r_i_glide_lipo>  (22) 
-0.357799

>  <r_i_glide_hbond>  (22) 
-0.32

>  <r_i_glide_metal>  (22) 
-0

>  <r_i_glide_rewards>  (22) 
-1.35446

>  <r_i_glide_evdw>  (22) 
-10.5816

>  <r_i_glide_ecoul>  (22) 
-5.65103

>  <r_i_glide_erotb>  (22) 
0

>  <r_i_glide_esite>  (22) 
0

>  <r_i_glide_emodel>  (22) 
-15.7177

>  <r_i_glide_energy>  (22) 
-16.2327

>  <r_i_glide_einternal>  (22) 
1.29626

>  <r_i_glide_intrahb_reward>  (22) 
-0

>  <i_i_glide_confnum>  (22) 
1

>  <i_i_glide_posenum>  (22) 
1

>  <r_i_glide_eff_state_penalty>  (22) 
0

>  <ligand_id>  (22) 
7

>  <original_smiles>  (22) 
CC1(C)C2C(=O)OC3C2CC2C4C(CC2(O)C(O)C31)C(C)(C)C4(C)C

>  <smiles>  (22) 
[H]OC1([H])C2([H])C3([H])OC(=O)C([H])(C3([H])C([H])([H])C3([H])C4([H])C([H])(C([H])([H])C13O[H])C(C([H])([H])[H])(C([H])([H])[H])C4(C([H])([H])[H])C([H])([H])[H])C2(C([H])([H])[H])C([H])([H])[H]

$$$$
8:0:0
     RDKit          3D

 79 85  0  0  1  0  0  0  0  0999 V2000
   -1.7265    2.6371    5.9572 C   0  0  0  0  0  0  0  0  0  0  0  0
   -0.8720    2.8784    4.6951 C   0  0  0  0  0  0  0  0  0  0  0  0
   -1.5912    3.8886    3.7776 C   0  0  0  0  0  0  0  0  0  0  0  0
    0.5046    3.4148    5.1210 C   0  0  0  0  0  0  0  0  0  0  0  0
    1.3386    3.6002    3.9909 O   0  0  0  0  0  0  0  0  0  0  0  0
    1.6463    2.4458    3.2035 C   0  0  2  0  0  0  0  0  0  0  0  0
    0.3739    1.6420    2.8092 C   0  0  2  0  0  0  0  0  0  0  0  0
   -0.6474    1.5450    3.9634 C   0  0  0  0  0  0  0  0  0  0  0  0
    0.6666    0.2658    2.5294 O   0  0  0  0  0  0  0  0  0  0  0  0
    1.9322   -0.0295    1.9510 C   0  0  2  0  0  0  0  0  0  0  0  0
    2.1228   -1.5184    1.8727 C   0  0  0  0  0  0  0  0  0  0  0  0
    3.1234   -1.9669    2.6342 C   0  0  0  0  0  0  0  0  0  0  0  0
    3.4980   -3.4074    2.9841 C   0  0  2  0  0  0  0  0  0  0  0  0
    2.7762   -4.5571    2.2458 C   0  0  0  0  0  0  0  0  0  0  0  0
    2.4965   -5.5841    3.3221 C   0  0  0  0  0  0  0  0  0  0  0  0
    2.5432   -6.9357    3.2194 C   0  0  0  0  0  0  0  0  0  0  0  0
    2.8765   -7.6932    1.9403 C   0  0  0  0  0  0  0  0  0  0  0  0
    1.9277   -8.7166    1.6765 O   0  0  0  0  0  0  0  0  0  0  0  0
    1.8540   -9.6973    2.7027 C   0  0  0  0  0  0  0  0  0  0  0  0
    1.3692   -9.0340    4.0003 C   0  0  0  0  0  0  0  0  0  0  0  0
    2.2715   -7.8558    4.4109 C   0  0  2  0  0  0  0  0  0  0  0  0
    1.6925   -7.1080    5.6299 C   0  0  0  0  0  0  0  0  0  0  0  0
    2.3983   -5.7633    5.8506 C   0  0  0  0  0  0  0  0  0  0  0  0
    2.2786   -4.8232    4.6149 C   0  0  2  0  0  0  0  0  0  0  0  0
    0.8265   -4.2734    4.5621 C   0  0  0  0  0  0  0  0  0  0  0  0
    3.3682   -3.6785    4.5252 C   0  0  1  0  0  0  0  0  0  0  0  0
    4.7680   -4.1731    4.9956 C   0  0  0  0  0  0  0  0  0  0  0  0
    2.9886   -2.3649    5.3012 C   0  0  1  0  0  0  0  0  0  0  0  0
    3.0486   -2.5463    6.7018 O   0  0  0  0  0  0  0  0  0  0  0  0
    3.8643   -1.1566    4.8951 C   0  0  0  0  0  0  0  0  0  0  0  0
    3.8560   -0.8540    3.3597 C   0  0  1  0  0  0  0  0  0  0  0  0
    5.3143   -0.7904    2.8487 C   0  0  0  0  0  0  0  0  0  0  0  0
    3.0951    0.4341    2.8657 C   0  0  2  0  0  0  0  0  0  0  0  0
    2.6457    1.4999    3.8932 C   0  0  1  0  0  0  0  0  0  0  0  0
    3.8021    2.2023    4.3076 O   0  0  0  0  0  0  0  0  0  0  0  0
   -1.8943    3.5589    6.5161 H   0  0  0  0  0  0  0  0  0  0  0  0
   -1.2361    1.9351    6.6337 H   0  0  0  0  0  0  0  0  0  0  0  0
   -2.6998    2.2218    5.7053 H   0  0  0  0  0  0  0  0  0  0  0  0
   -0.9921    4.1200    2.8949 H   0  0  0  0  0  0  0  0  0  0  0  0
   -1.7711    4.8259    4.3012 H   0  0  0  0  0  0  0  0  0  0  0  0
   -2.5501    3.5008    3.4270 H   0  0  0  0  0  0  0  0  0  0  0  0
    0.3906    4.3778    5.6178 H   0  0  0  0  0  0  0  0  0  0  0  0
    0.9859    2.7496    5.8378 H   0  0  0  0  0  0  0  0  0  0  0  0
    2.1055    2.8232    2.2892 H   0  0  0  0  0  0  0  0  0  0  0  0
   -0.0986    2.1115    1.9432 H   0  0  0  0  0  0  0  0  0  0  0  0
   -0.2806    0.8117    4.6830 H   0  0  0  0  0  0  0  0  0  0  0  0
   -1.5920    1.1432    3.5885 H   0  0  0  0  0  0  0  0  0  0  0  0
    1.9965    0.4015    0.9497 H   0  0  0  0  0  0  0  0  0  0  0  0
    1.4434   -2.1271    1.3009 H   0  0  0  0  0  0  0  0  0  0  0  0
    4.5436   -3.4902    2.6915 H   0  0  0  0  0  0  0  0  0  0  0  0
    1.8156   -4.2440    1.8392 H   0  0  0  0  0  0  0  0  0  0  0  0
    3.3754   -4.9422    1.4241 H   0  0  0  0  0  0  0  0  0  0  0  0
    2.9041   -7.0309    1.0775 H   0  0  0  0  0  0  0  0  0  0  0  0
    3.8711   -8.1349    2.0329 H   0  0  0  0  0  0  0  0  0  0  0  0
    1.1435  -10.4652    2.3959 H   0  0  0  0  0  0  0  0  0  0  0  0
    2.8184  -10.1890    2.8403 H   0  0  0  0  0  0  0  0  0  0  0  0
    0.3463   -8.6833    3.8517 H   0  0  0  0  0  0  0  0  0  0  0  0
    1.3292   -9.7764    4.7999 H   0  0  0  0  0  0  0  0  0  0  0  0
    3.2418   -8.2639    4.6952 H   0  0  0  0  0  0  0  0  0  0  0  0
    0.6231   -6.9472    5.4963 H   0  0  0  0  0  0  0  0  0  0  0  0
    1.7930   -7.7292    6.5216 H   0  0  0  0  0  0  0  0  0  0  0  0
    2.0028   -5.2694    6.7371 H   0  0  0  0  0  0  0  0  0  0  0  0
    3.4303   -6.0093    6.0832 H   0  0  0  0  0  0  0  0  0  0  0  0
    0.5323   -3.8247    5.5127 H   0  0  0  0  0  0  0  0  0  0  0  0
    0.1080   -5.0640    4.3422 H   0  0  0  0  0  0  0  0  0  0  0  0
    0.6988   -3.5163    3.7874 H   0  0  0  0  0  0  0  0  0  0  0  0
    4.8266   -4.3215    6.0728 H   0  0  0  0  0  0  0  0  0  0  0  0
    5.5545   -3.4644    4.7434 H   0  0  0  0  0  0  0  0  0  0  0  0
    5.0382   -5.1199    4.5228 H   0  0  0  0  0  0  0  0  0  0  0  0
    1.9633   -2.0710    5.0818 H   0  0  0  0  0  0  0  0  0  0  0  0
    3.9318   -2.7971    6.9338 H   0  0  0  0  0  0  0  0  0  0  0  0
    3.5804   -0.2962    5.4908 H   0  0  0  0  0  0  0  0  0  0  0  0
    4.8883   -1.3435    5.2181 H   0  0  0  0  0  0  0  0  0  0  0  0
    5.8404    0.0713    3.2611 H   0  0  0  0  0  0  0  0  0  0  0  0
    5.3574   -0.7208    1.7592 H   0  0  0  0  0  0  0  0  0  0  0  0
    5.8757   -1.6814    3.1304 H   0  0  0  0  0  0  0  0  0  0  0  0
    3.7583    0.9484    2.1715 H   0  0  0  0  0  0  0  0  0  0  0  0
    2.1475    1.0466    4.7470 H   0  0  0  0  0  0  0  0  0  0  0  0
    4.2354    2.5443    3.5359 H   0  0  0  0  0  0  0  0  0  0  0  0
  1  2  1  0
  1 36  1  0
  1 37  1  0
  1 38  1  0
  2  8  1  0
  2  3  1  0
  2  4  1  0
  3 39  1  0
  3 40  1  0
  3 41  1  0
  4  5  1  0
  4 42  1  0
  4 43  1  0
  5  6  1  0
  6 34  1  0
  6  7  1  0
  6 44  1  6
  7  8  1  0
  7  9  1  0
  7 45  1  6
  8 46  1  0
  8 47  1  0
  9 10  1  0
 10 33  1  0
 10 11  1  0
 10 48  1  6
 11 12  2  0
 11 49  1  0
 12 31  1  0
 12 13  1  0
 13 26  1  0
 13 14  1  0
 13 50  1  6
 14 15  1  0
 14 51  1  0
 14 52  1  0
 15 24  1  0
 15 16  2  0
 16 21  1  0
 16 17  1  0
 17 18  1  0
 17 53  1  0
 17 54  1  0
 18 19  1  0
 19 20  1  0
 19 55  1  0
 19 56  1  0
 20 21  1  0
 20 57  1  0
 20 58  1  0
 21 22  1  0
 21 59  1  1
 22 23  1  0
 22 60  1  0
 22 61  1  0
 23 24  1  0
 23 62  1  0
 23 63  1  0
 24 25  1  6
 24 26  1  0
 25 64  1  0
 25 65  1  0
 25 66  1  0
 26 27  1  1
 26 28  1  0
 27 67  1  0
 27 68  1  0
 27 69  1  0
 28 29  1  0
 28 30  1  0
 28 70  1  1
 29 71  1  0
 30 31  1  0
 30 72  1  0
 30 73  1  0
 31 32  1  6
 31 33  1  0
 32 74  1  0
 32 75  1  0
 32 76  1  0
 33 34  1  0
 33 77  1  6
 34 35  1  0
 34 78  1  1
 35 79  1  0
M  END
>  <i_m_ct_stereo_status>  (23) 
1

>  <s_m_source_file>  (23) 
/var/tmp/pbs.5076255.sched01/tmpmjg_sug8/0d5zvyqle.sdf

>  <i_m_source_file_index>  (23) 
10

>  <i_lp_mmshare_version>  (23) 
48012

>  <i_f3d_flags>  (23) 
0

>  <s_epik_input>  (23) 
W0NIM11DKFtDSDNdKShbQ0gyXTEpW0NIMl1PW0NAQEhdKFtDQEBIXTJbT0hdKVtDQEhdMU9bQ0BIXShbQ0hdPTMpW0NAQEhdMltDQEBdKFtDSDNdKShbQ0gyXVtDQEhdKFtPSF0pW0NAXTQ1W0NIM10pQzNbQ0BASF00W0NIMl1DKFtDQF01NltDSDNdKT1DN1tDQEBIXShbQ0gyXVtDSDJdNilbQ0gyXVtDSDJdT1tDSDJdNw==

>  <s_epik_cmdline>  (23) 
J2VwaWtfcHl0aG9uJywgJy1waHQnLCAnMi4wJywgJy1waCcsICc3LjAnLCAnLXRuJywgJzgnLCAnLW1hJywgJzIwMCcsICctaW1hZScsICc8aW5maWxlLm1hZT4nLCAnLW9tYWUnLCAnPG91dGZpbGUubWFlPic=

>  <r_lp_tautomer_probability>  (23) 
1

>  <r_epik_Ionization_Penalty>  (23) 
5.35996e-07

>  <r_epik_Ionization_Penalty_Charging>  (23) 
0

>  <r_epik_Ionization_Penalty_Neutral>  (23) 
5.35996e-07

>  <r_epik_State_Penalty>  (23) 
-0

>  <r_epik_Charging_Adjusted_Penalty>  (23) 
0

>  <i_epik_Tot_Q>  (23) 
0

>  <i_epik_Tot_abs_Q>  (23) 
0

>  <s_lp_Force_Field>  (23) 
OPLS3e

>  <r_lp_Energy>  (23) 
64.7099

>  <b_lp_Chiralities_Consistent>  (23) 
1

>  <s_lp_Variant>  (23) 
8:0-1

>  <s_i_glide_gridfile>  (23) 
pfpi4k_grid

>  <i_i_glide_lignum>  (23) 
10

>  <i_i_glide_rotatable_bonds>  (23) 
2

>  <r_i_docking_score>  (23) 
-2.29003

>  <r_i_glide_ligand_efficiency>  (23) 
-0.0654295

>  <r_i_glide_ligand_efficiency_sa>  (23) 
-0.214024

>  <r_i_glide_ligand_efficiency_ln>  (23) 
-0.502713

>  <r_i_glide_gscore>  (23) 
-2.29003

>  <r_i_glide_lipo>  (23) 
-0.277283

>  <r_i_glide_hbond>  (23) 
0

>  <r_i_glide_metal>  (23) 
-0

>  <r_i_glide_rewards>  (23) 
-0.104541

>  <r_i_glide_evdw>  (23) 
-29.6763

>  <r_i_glide_ecoul>  (23) 
-2.8293

>  <r_i_glide_erotb>  (23) 
0

>  <r_i_glide_esite>  (23) 
0

>  <r_i_glide_emodel>  (23) 
-37.1038

>  <r_i_glide_energy>  (23) 
-32.5056

>  <r_i_glide_einternal>  (23) 
0.0276766

>  <r_i_glide_intrahb_reward>  (23) 
-0

>  <i_i_glide_confnum>  (23) 
2

>  <i_i_glide_posenum>  (23) 
10

>  <r_i_glide_eff_state_penalty>  (23) 
0

>  <ligand_id>  (23) 
8

>  <original_smiles>  (23) 
CC1(C)COC2C(C1)OC1C=C3C4CC5=C6COCCC6CCC5(C)C4(C)C(O)CC3(C)C1C2O

>  <smiles>  (23) 
[H]OC1([H])C2([H])OC([H])([H])C(C([H])([H])[H])(C([H])([H])[H])C([H])([H])C2([H])OC2([H])C([H])=C3C4([H])C([H])([H])C5=C6C([H])([H])OC([H])([H])C([H])([H])C6([H])C([H])([H])C([H])([H])C5(C([H])([H])[H])C4(C([H])([H])[H])C([H])(O[H])C([H])([H])C3(C([H])([H])[H])C21[H]

$$$$
8:0:1
     RDKit          3D

 79 85  0  0  1  0  0  0  0  0999 V2000
   -0.8359   -8.8709    2.7150 C   0  0  0  0  0  0  0  0  0  0  0  0
    0.5950   -9.0620    3.2639 C   0  0  0  0  0  0  0  0  0  0  0  0
    0.6132  -10.2626    4.2334 C   0  0  0  0  0  0  0  0  0  0  0  0
    1.5556   -9.3206    2.0931 C   0  0  0  0  0  0  0  0  0  0  0  0
    2.8858   -9.4652    2.5558 O   0  0  0  0  0  0  0  0  0  0  0  0
    3.4639   -8.3483    3.2213 C   0  0  2  0  0  0  0  0  0  0  0  0
    2.5493   -7.8016    4.3532 C   0  0  2  0  0  0  0  0  0  0  0  0
    1.0579   -7.7766    3.9621 C   0  0  0  0  0  0  0  0  0  0  0  0
    2.8165   -6.4260    4.6563 O   0  0  0  0  0  0  0  0  0  0  0  0
    4.1577   -5.9790    4.5065 C   0  0  2  0  0  0  0  0  0  0  0  0
    4.2260   -4.4906    4.7179 C   0  0  0  0  0  0  0  0  0  0  0  0
    4.5995   -3.8263    3.6177 C   0  0  0  0  0  0  0  0  0  0  0  0
    4.5817   -2.3172    3.3622 C   0  0  2  0  0  0  0  0  0  0  0  0
    4.2737   -1.3763    4.5522 C   0  0  0  0  0  0  0  0  0  0  0  0
    3.3446   -0.3270    3.9813 C   0  0  0  0  0  0  0  0  0  0  0  0
    3.3092    0.9959    4.2724 C   0  0  0  0  0  0  0  0  0  0  0  0
    4.1965    1.6762    5.2972 C   0  0  0  0  0  0  0  0  0  0  0  0
    3.4537    2.5107    6.1734 O   0  0  0  0  0  0  0  0  0  0  0  0
    2.7783    3.5604    5.4905 C   0  0  0  0  0  0  0  0  0  0  0  0
    1.7287    2.9453    4.5554 C   0  0  0  0  0  0  0  0  0  0  0  0
    2.3600    1.9598    3.5576 C   0  0  2  0  0  0  0  0  0  0  0  0
    1.2830    1.2471    2.7227 C   0  0  0  0  0  0  0  0  0  0  0  0
    1.8737    0.0636    1.9482 C   0  0  0  0  0  0  0  0  0  0  0  0
    2.5370   -0.9922    2.8882 C   0  0  2  0  0  0  0  0  0  0  0  0
    1.4090   -1.7780    3.6090 C   0  0  0  0  0  0  0  0  0  0  0  0
    3.5993   -1.9401    2.1956 C   0  0  1  0  0  0  0  0  0  0  0  0
    4.4565   -1.1830    1.1421 C   0  0  0  0  0  0  0  0  0  0  0  0
    2.9778   -3.2297    1.5454 C   0  0  1  0  0  0  0  0  0  0  0  0
    2.3191   -2.9546    0.3291 O   0  0  0  0  0  0  0  0  0  0  0  0
    4.0223   -4.3121    1.2224 C   0  0  0  0  0  0  0  0  0  0  0  0
    4.8915   -4.7432    2.4390 C   0  0  1  0  0  0  0  0  0  0  0  0
    6.3727   -4.6410    2.0338 C   0  0  0  0  0  0  0  0  0  0  0  0
    4.6542   -6.1695    3.0499 C   0  0  2  0  0  0  0  0  0  0  0  0
    3.8229   -7.2036    2.2600 C   0  0  1  0  0  0  0  0  0  0  0  0
    4.6253   -7.6709    1.1912 O   0  0  0  0  0  0  0  0  0  0  0  0
   -1.1867   -9.7628    2.1926 H   0  0  0  0  0  0  0  0  0  0  0  0
   -0.8750   -8.0470    2.0016 H   0  0  0  0  0  0  0  0  0  0  0  0
   -1.5461   -8.6579    3.5144 H   0  0  0  0  0  0  0  0  0  0  0  0
    1.6189  -10.4781    4.6098 H   0  0  0  0  0  0  0  0  0  0  0  0
    0.2463  -11.1692    3.7497 H   0  0  0  0  0  0  0  0  0  0  0  0
   -0.0262  -10.0676    5.0918 H   0  0  0  0  0  0  0  0  0  0  0  0
    1.2773  -10.2527    1.6209 H   0  0  0  0  0  0  0  0  0  0  0  0
    1.4968   -8.5314    1.3379 H   0  0  0  0  0  0  0  0  0  0  0  0
    4.3840   -8.7174    3.6708 H   0  0  0  0  0  0  0  0  0  0  0  0
    2.6774   -8.4142    5.2462 H   0  0  0  0  0  0  0  0  0  0  0  0
    0.8983   -6.9372    3.2837 H   0  0  0  0  0  0  0  0  0  0  0  0
    0.4450   -7.5790    4.8445 H   0  0  0  0  0  0  0  0  0  0  0  0
    4.8004   -6.4795    5.2322 H   0  0  0  0  0  0  0  0  0  0  0  0
    3.9194   -4.0464    5.6489 H   0  0  0  0  0  0  0  0  0  0  0  0
    5.6048   -2.0924    3.0609 H   0  0  0  0  0  0  0  0  0  0  0  0
    3.7337   -1.8731    5.3569 H   0  0  0  0  0  0  0  0  0  0  0  0
    5.1860   -0.9548    4.9629 H   0  0  0  0  0  0  0  0  0  0  0  0
    4.7750    0.9630    5.8766 H   0  0  0  0  0  0  0  0  0  0  0  0
    4.9271    2.2799    4.7758 H   0  0  0  0  0  0  0  0  0  0  0  0
    2.2887    4.1954    6.2276 H   0  0  0  0  0  0  0  0  0  0  0  0
    3.4779    4.1908    4.9371 H   0  0  0  0  0  0  0  0  0  0  0  0
    0.9961    2.4142    5.1669 H   0  0  0  0  0  0  0  0  0  0  0  0
    1.1911    3.7312    4.0173 H   0  0  0  0  0  0  0  0  0  0  0  0
    2.9911    2.5273    2.8762 H   0  0  0  0  0  0  0  0  0  0  0  0
    0.4809    0.8949    3.3716 H   0  0  0  0  0  0  0  0  0  0  0  0
    0.8203    1.9499    2.0251 H   0  0  0  0  0  0  0  0  0  0  0  0
    1.0944   -0.4050    1.3472 H   0  0  0  0  0  0  0  0  0  0  0  0
    2.5791    0.4942    1.2409 H   0  0  0  0  0  0  0  0  0  0  0  0
    0.6842   -2.1855    2.9043 H   0  0  0  0  0  0  0  0  0  0  0  0
    0.8656   -1.1368    4.3029 H   0  0  0  0  0  0  0  0  0  0  0  0
    1.8055   -2.6035    4.1999 H   0  0  0  0  0  0  0  0  0  0  0  0
    3.8956   -0.9402    0.2414 H   0  0  0  0  0  0  0  0  0  0  0  0
    5.3102   -1.7732    0.8162 H   0  0  0  0  0  0  0  0  0  0  0  0
    4.8523   -0.2481    1.5414 H   0  0  0  0  0  0  0  0  0  0  0  0
    2.2689   -3.6950    2.2301 H   0  0  0  0  0  0  0  0  0  0  0  0
    1.9553   -2.0750    0.3479 H   0  0  0  0  0  0  0  0  0  0  0  0
    3.5373   -5.1451    0.7254 H   0  0  0  0  0  0  0  0  0  0  0  0
    4.6704   -3.9199    0.4400 H   0  0  0  0  0  0  0  0  0  0  0  0
    6.6241   -5.3500    1.2463 H   0  0  0  0  0  0  0  0  0  0  0  0
    7.0162   -4.8599    2.8862 H   0  0  0  0  0  0  0  0  0  0  0  0
    6.6184   -3.6415    1.6744 H   0  0  0  0  0  0  0  0  0  0  0  0
    5.6315   -6.6294    3.1820 H   0  0  0  0  0  0  0  0  0  0  0  0
    2.8990   -6.7675    1.8825 H   0  0  0  0  0  0  0  0  0  0  0  0
    5.3732   -8.1240    1.5516 H   0  0  0  0  0  0  0  0  0  0  0  0
  1  2  1  0
  1 36  1  0
  1 37  1  0
  1 38  1  0
  2  8  1  0
  2  3  1  0
  2  4  1  0
  3 39  1  0
  3 40  1  0
  3 41  1  0
  4  5  1  0
  4 42  1  0
  4 43  1  0
  5  6  1  0
  6 34  1  0
  6  7  1  0
  6 44  1  1
  7  8  1  0
  7  9  1  0
  7 45  1  1
  8 46  1  0
  8 47  1  0
  9 10  1  0
 10 33  1  0
 10 11  1  0
 10 48  1  1
 11 12  2  0
 11 49  1  0
 12 31  1  0
 12 13  1  0
 13 26  1  0
 13 14  1  0
 13 50  1  6
 14 15  1  0
 14 51  1  0
 14 52  1  0
 15 24  1  0
 15 16  2  0
 16 21  1  0
 16 17  1  0
 17 18  1  0
 17 53  1  0
 17 54  1  0
 18 19  1  0
 19 20  1  0
 19 55  1  0
 19 56  1  0
 20 21  1  0
 20 57  1  0
 20 58  1  0
 21 22  1  0
 21 59  1  6
 22 23  1  0
 22 60  1  0
 22 61  1  0
 23 24  1  0
 23 62  1  0
 23 63  1  0
 24 25  1  1
 24 26  1  0
 25 64  1  0
 25 65  1  0
 25 66  1  0
 26 27  1  6
 26 28  1  0
 27 67  1  0
 27 68  1  0
 27 69  1  0
 28 29  1  0
 28 30  1  0
 28 70  1  1
 29 71  1  0
 30 31  1  0
 30 72  1  0
 30 73  1  0
 31 32  1  6
 31 33  1  0
 32 74  1  0
 32 75  1  0
 32 76  1  0
 33 34  1  0
 33 77  1  1
 34 35  1  0
 34 78  1  6
 35 79  1  0
M  END
>  <i_m_ct_stereo_status>  (24) 
1

>  <s_m_source_file>  (24) 
/var/tmp/pbs.5076255.sched01/tmpmjg_sug8/0d5zvyqle.sdf

>  <i_m_source_file_index>  (24) 
10

>  <i_lp_mmshare_version>  (24) 
48012

>  <i_f3d_flags>  (24) 
0

>  <s_epik_input>  (24) 
W0NIM11DKFtDSDNdKShbQ0gyXTEpW0NIMl1PW0NAQEhdKFtDQEBIXTJbT0hdKVtDQEhdMU9bQ0BIXShbQ0hdPTMpW0NAQEhdMltDQEBdKFtDSDNdKShbQ0gyXVtDQEhdKFtPSF0pW0NAXTQ1W0NIM10pQzNbQ0BASF00W0NIMl1DKFtDQF01NltDSDNdKT1DN1tDQEBIXShbQ0gyXVtDSDJdNilbQ0gyXVtDSDJdT1tDSDJdNw==

>  <s_epik_cmdline>  (24) 
J2VwaWtfcHl0aG9uJywgJy1waHQnLCAnMi4wJywgJy1waCcsICc3LjAnLCAnLXRuJywgJzgnLCAnLW1hJywgJzIwMCcsICctaW1hZScsICc8aW5maWxlLm1hZT4nLCAnLW9tYWUnLCAnPG91dGZpbGUubWFlPic=

>  <r_lp_tautomer_probability>  (24) 
1

>  <r_epik_Ionization_Penalty>  (24) 
5.35996e-07

>  <r_epik_Ionization_Penalty_Charging>  (24) 
0

>  <r_epik_Ionization_Penalty_Neutral>  (24) 
5.35996e-07

>  <r_epik_State_Penalty>  (24) 
-0

>  <r_epik_Charging_Adjusted_Penalty>  (24) 
0

>  <i_epik_Tot_Q>  (24) 
0

>  <i_epik_Tot_abs_Q>  (24) 
0

>  <s_lp_Force_Field>  (24) 
OPLS3e

>  <r_lp_Energy>  (24) 
64.7099

>  <b_lp_Chiralities_Consistent>  (24) 
1

>  <s_lp_Variant>  (24) 
8:0-1

>  <s_i_glide_gridfile>  (24) 
pfpi4k_grid

>  <i_i_glide_lignum>  (24) 
10

>  <i_i_glide_rotatable_bonds>  (24) 
2

>  <r_i_docking_score>  (24) 
-2.16329

>  <r_i_glide_ligand_efficiency>  (24) 
-0.0618082

>  <r_i_glide_ligand_efficiency_sa>  (24) 
-0.202179

>  <r_i_glide_ligand_efficiency_ln>  (24) 
-0.474889

>  <r_i_glide_gscore>  (24) 
-2.16329

>  <r_i_glide_lipo>  (24) 
-0.238284

>  <r_i_glide_hbond>  (24) 
-0.125218

>  <r_i_glide_metal>  (24) 
-0

>  <r_i_glide_rewards>  (24) 
-0.104541

>  <r_i_glide_evdw>  (24) 
-26.914

>  <r_i_glide_ecoul>  (24) 
-2.3303

>  <r_i_glide_erotb>  (24) 
0

>  <r_i_glide_esite>  (24) 
0

>  <r_i_glide_emodel>  (24) 
-32.8035

>  <r_i_glide_energy>  (24) 
-29.2443

>  <r_i_glide_einternal>  (24) 
1.08394

>  <r_i_glide_intrahb_reward>  (24) 
-0

>  <i_i_glide_confnum>  (24) 
1

>  <i_i_glide_posenum>  (24) 
3

>  <r_i_glide_eff_state_penalty>  (24) 
0

>  <ligand_id>  (24) 
8

>  <original_smiles>  (24) 
CC1(C)COC2C(C1)OC1C=C3C4CC5=C6COCCC6CCC5(C)C4(C)C(O)CC3(C)C1C2O

>  <smiles>  (24) 
[H]OC1([H])C2([H])OC([H])([H])C(C([H])([H])[H])(C([H])([H])[H])C([H])([H])C2([H])OC2([H])C([H])=C3C4([H])C([H])([H])C5=C6C([H])([H])OC([H])([H])C([H])([H])C6([H])C([H])([H])C([H])([H])C5(C([H])([H])[H])C4(C([H])([H])[H])C([H])(O[H])C([H])([H])C3(C([H])([H])[H])C21[H]

$$$$
8:0:2
     RDKit          3D

 79 85  0  0  1  0  0  0  0  0999 V2000
   -1.0756    2.3017   10.2953 C   0  0  0  0  0  0  0  0  0  0  0  0
   -1.5523    2.8835    8.9473 C   0  0  0  0  0  0  0  0  0  0  0  0
   -3.0106    3.3720    9.0875 C   0  0  0  0  0  0  0  0  0  0  0  0
   -0.6270    4.0468    8.5487 C   0  0  0  0  0  0  0  0  0  0  0  0
   -1.0018    4.5720    7.2848 O   0  0  0  0  0  0  0  0  0  0  0  0
   -0.9365    3.6884    6.1610 C   0  0  2  0  0  0  0  0  0  0  0  0
   -1.6809    2.3505    6.4274 C   0  0  2  0  0  0  0  0  0  0  0  0
   -1.4353    1.8098    7.8508 C   0  0  0  0  0  0  0  0  0  0  0  0
   -1.2170    1.2846    5.5880 O   0  0  0  0  0  0  0  0  0  0  0  0
   -0.7458    1.6297    4.2880 C   0  0  2  0  0  0  0  0  0  0  0  0
   -0.1358    0.4200    3.6306 C   0  0  0  0  0  0  0  0  0  0  0  0
    1.1721    0.5570    3.3931 C   0  0  0  0  0  0  0  0  0  0  0  0
    2.1849   -0.4922    2.9308 C   0  0  2  0  0  0  0  0  0  0  0  0
    1.6587   -1.8726    2.4893 C   0  0  0  0  0  0  0  0  0  0  0  0
    2.6365   -2.8640    3.0851 C   0  0  0  0  0  0  0  0  0  0  0  0
    3.0909   -4.0201    2.5410 C   0  0  0  0  0  0  0  0  0  0  0  0
    2.6678   -4.5643    1.1823 C   0  0  0  0  0  0  0  0  0  0  0  0
    2.2805   -5.9320    1.2547 O   0  0  0  0  0  0  0  0  0  0  0  0
    3.3299   -6.7786    1.7099 C   0  0  0  0  0  0  0  0  0  0  0  0
    3.7167   -6.3901    3.1454 C   0  0  0  0  0  0  0  0  0  0  0  0
    4.1153   -4.9073    3.2519 C   0  0  2  0  0  0  0  0  0  0  0  0
    4.3566   -4.4957    4.7185 C   0  0  0  0  0  0  0  0  0  0  0  0
    4.4380   -2.9712    4.8694 C   0  0  0  0  0  0  0  0  0  0  0  0
    3.1386   -2.2611    4.3831 C   0  0  2  0  0  0  0  0  0  0  0  0
    2.0260   -2.5025    5.4410 C   0  0  0  0  0  0  0  0  0  0  0  0
    3.3022   -0.7326    4.0075 C   0  0  1  0  0  0  0  0  0  0  0  0
    4.6577   -0.4550    3.2944 C   0  0  0  0  0  0  0  0  0  0  0  0
    3.1382    0.2517    5.2216 C   0  0  1  0  0  0  0  0  0  0  0  0
    4.2379    0.1808    6.1061 O   0  0  0  0  0  0  0  0  0  0  0  0
    2.9235    1.7167    4.7783 C   0  0  0  0  0  0  0  0  0  0  0  0
    1.7149    1.9132    3.8033 C   0  0  1  0  0  0  0  0  0  0  0  0
    2.2040    2.6636    2.5457 C   0  0  0  0  0  0  0  0  0  0  0  0
    0.4320    2.6398    4.3525 C   0  0  2  0  0  0  0  0  0  0  0  0
    0.5012    3.3912    5.7044 C   0  0  1  0  0  0  0  0  0  0  0  0
    1.2257    4.5907    5.4999 O   0  0  0  0  0  0  0  0  0  0  0  0
   -1.1244    3.0435   11.0936 H   0  0  0  0  0  0  0  0  0  0  0  0
   -0.0423    1.9572   10.2336 H   0  0  0  0  0  0  0  0  0  0  0  0
   -1.6820    1.4567   10.6187 H   0  0  0  0  0  0  0  0  0  0  0  0
   -3.3672    3.8334    8.1667 H   0  0  0  0  0  0  0  0  0  0  0  0
   -3.1022    4.1176    9.8793 H   0  0  0  0  0  0  0  0  0  0  0  0
   -3.6864    2.5491    9.3274 H   0  0  0  0  0  0  0  0  0  0  0  0
   -0.6988    4.8458    9.2865 H   0  0  0  0  0  0  0  0  0  0  0  0
    0.4168    3.7336    8.5312 H   0  0  0  0  0  0  0  0  0  0  0  0
   -1.4462    4.2048    5.3480 H   0  0  0  0  0  0  0  0  0  0  0  0
   -2.7519    2.5001    6.2761 H   0  0  0  0  0  0  0  0  0  0  0  0
   -0.4316    1.3819    7.8878 H   0  0  0  0  0  0  0  0  0  0  0  0
   -2.1190    0.9855    8.0523 H   0  0  0  0  0  0  0  0  0  0  0  0
   -1.5725    1.9995    3.6792 H   0  0  0  0  0  0  0  0  0  0  0  0
   -0.7138   -0.4704    3.4588 H   0  0  0  0  0  0  0  0  0  0  0  0
    2.6315   -0.0562    2.0379 H   0  0  0  0  0  0  0  0  0  0  0  0
    0.6787   -2.0950    2.9075 H   0  0  0  0  0  0  0  0  0  0  0  0
    1.5841   -1.9351    1.4063 H   0  0  0  0  0  0  0  0  0  0  0  0
    1.8351   -4.0012    0.7700 H   0  0  0  0  0  0  0  0  0  0  0  0
    3.4967   -4.4578    0.4794 H   0  0  0  0  0  0  0  0  0  0  0  0
    2.9769   -7.8109    1.6894 H   0  0  0  0  0  0  0  0  0  0  0  0
    4.1899   -6.7220    1.0394 H   0  0  0  0  0  0  0  0  0  0  0  0
    2.8696   -6.5923    3.8030 H   0  0  0  0  0  0  0  0  0  0  0  0
    4.5365   -7.0222    3.4903 H   0  0  0  0  0  0  0  0  0  0  0  0
    5.0484   -4.7700    2.7054 H   0  0  0  0  0  0  0  0  0  0  0  0
    3.5608   -4.8864    5.3529 H   0  0  0  0  0  0  0  0  0  0  0  0
    5.2793   -4.9521    5.0816 H   0  0  0  0  0  0  0  0  0  0  0  0
    4.6447   -2.7032    5.9044 H   0  0  0  0  0  0  0  0  0  0  0  0
    5.3127   -2.6668    4.3024 H   0  0  0  0  0  0  0  0  0  0  0  0
    2.3578   -2.2212    6.4419 H   0  0  0  0  0  0  0  0  0  0  0  0
    1.7303   -3.5517    5.4809 H   0  0  0  0  0  0  0  0  0  0  0  0
    1.1210   -1.9351    5.2227 H   0  0  0  0  0  0  0  0  0  0  0  0
    5.5132   -0.5122    3.9654 H   0  0  0  0  0  0  0  0  0  0  0  0
    4.6793    0.5401    2.8562 H   0  0  0  0  0  0  0  0  0  0  0  0
    4.8347   -1.1608    2.4801 H   0  0  0  0  0  0  0  0  0  0  0  0
    2.2600   -0.0073    5.8105 H   0  0  0  0  0  0  0  0  0  0  0  0
    5.0211    0.4104    5.6274 H   0  0  0  0  0  0  0  0  0  0  0  0
    2.8604    2.3487    5.6576 H   0  0  0  0  0  0  0  0  0  0  0  0
    3.8334    2.0731    4.2950 H   0  0  0  0  0  0  0  0  0  0  0  0
    2.4915    3.6900    2.7795 H   0  0  0  0  0  0  0  0  0  0  0  0
    1.4302    2.7000    1.7757 H   0  0  0  0  0  0  0  0  0  0  0  0
    3.0644    2.1736    2.0942 H   0  0  0  0  0  0  0  0  0  0  0  0
    0.1520    3.3899    3.6118 H   0  0  0  0  0  0  0  0  0  0  0  0
    0.9798    2.7881    6.4743 H   0  0  0  0  0  0  0  0  0  0  0  0
    0.9466    4.9911    4.6887 H   0  0  0  0  0  0  0  0  0  0  0  0
  1  2  1  0
  1 36  1  0
  1 37  1  0
  1 38  1  0
  2  8  1  0
  2  3  1  0
  2  4  1  0
  3 39  1  0
  3 40  1  0
  3 41  1  0
  4  5  1  0
  4 42  1  0
  4 43  1  0
  5  6  1  0
  6 34  1  0
  6  7  1  0
  6 44  1  6
  7  8  1  0
  7  9  1  0
  7 45  1  1
  8 46  1  0
  8 47  1  0
  9 10  1  0
 10 33  1  0
 10 11  1  0
 10 48  1  6
 11 12  2  0
 11 49  1  0
 12 31  1  0
 12 13  1  0
 13 26  1  0
 13 14  1  0
 13 50  1  6
 14 15  1  0
 14 51  1  0
 14 52  1  0
 15 24  1  0
 15 16  2  0
 16 21  1  0
 16 17  1  0
 17 18  1  0
 17 53  1  0
 17 54  1  0
 18 19  1  0
 19 20  1  0
 19 55  1  0
 19 56  1  0
 20 21  1  0
 20 57  1  0
 20 58  1  0
 21 22  1  0
 21 59  1  6
 22 23  1  0
 22 60  1  0
 22 61  1  0
 23 24  1  0
 23 62  1  0
 23 63  1  0
 24 25  1  1
 24 26  1  0
 25 64  1  0
 25 65  1  0
 25 66  1  0
 26 27  1  6
 26 28  1  0
 27 67  1  0
 27 68  1  0
 27 69  1  0
 28 29  1  0
 28 30  1  0
 28 70  1  1
 29 71  1  0
 30 31  1  0
 30 72  1  0
 30 73  1  0
 31 32  1  6
 31 33  1  0
 32 74  1  0
 32 75  1  0
 32 76  1  0
 33 34  1  0
 33 77  1  6
 34 35  1  0
 34 78  1  1
 35 79  1  0
M  END
>  <i_m_ct_stereo_status>  (25) 
1

>  <s_m_source_file>  (25) 
/var/tmp/pbs.5076255.sched01/tmpmjg_sug8/0d5zvyqle.sdf

>  <i_m_source_file_index>  (25) 
10

>  <i_lp_mmshare_version>  (25) 
48012

>  <i_f3d_flags>  (25) 
0

>  <s_epik_input>  (25) 
W0NIM11DKFtDSDNdKShbQ0gyXTEpW0NIMl1PW0NAQEhdKFtDQEBIXTJbT0hdKVtDQEhdMU9bQ0BIXShbQ0hdPTMpW0NAQEhdMltDQEBdKFtDSDNdKShbQ0gyXVtDQEhdKFtPSF0pW0NAXTQ1W0NIM10pQzNbQ0BASF00W0NIMl1DKFtDQF01NltDSDNdKT1DN1tDQEBIXShbQ0gyXVtDSDJdNilbQ0gyXVtDSDJdT1tDSDJdNw==

>  <s_epik_cmdline>  (25) 
J2VwaWtfcHl0aG9uJywgJy1waHQnLCAnMi4wJywgJy1waCcsICc3LjAnLCAnLXRuJywgJzgnLCAnLW1hJywgJzIwMCcsICctaW1hZScsICc8aW5maWxlLm1hZT4nLCAnLW9tYWUnLCAnPG91dGZpbGUubWFlPic=

>  <r_lp_tautomer_probability>  (25) 
1

>  <r_epik_Ionization_Penalty>  (25) 
5.35996e-07

>  <r_epik_Ionization_Penalty_Charging>  (25) 
0

>  <r_epik_Ionization_Penalty_Neutral>  (25) 
5.35996e-07

>  <r_epik_State_Penalty>  (25) 
-0

>  <r_epik_Charging_Adjusted_Penalty>  (25) 
0

>  <i_epik_Tot_Q>  (25) 
0

>  <i_epik_Tot_abs_Q>  (25) 
0

>  <s_lp_Force_Field>  (25) 
OPLS3e

>  <r_lp_Energy>  (25) 
64.7099

>  <b_lp_Chiralities_Consistent>  (25) 
1

>  <s_lp_Variant>  (25) 
8:0-1

>  <s_i_glide_gridfile>  (25) 
pfpi4k_grid

>  <i_i_glide_lignum>  (25) 
10

>  <i_i_glide_rotatable_bonds>  (25) 
2

>  <r_i_docking_score>  (25) 
-2.05062

>  <r_i_glide_ligand_efficiency>  (25) 
-0.0585892

>  <r_i_glide_ligand_efficiency_sa>  (25) 
-0.191649

>  <r_i_glide_ligand_efficiency_ln>  (25) 
-0.450157

>  <r_i_glide_gscore>  (25) 
-2.05062

>  <r_i_glide_lipo>  (25) 
-0.161457

>  <r_i_glide_hbond>  (25) 
0

>  <r_i_glide_metal>  (25) 
-0

>  <r_i_glide_rewards>  (25) 
-0.104541

>  <r_i_glide_evdw>  (25) 
-28.7827

>  <r_i_glide_ecoul>  (25) 
-2.30328

>  <r_i_glide_erotb>  (25) 
0

>  <r_i_glide_esite>  (25) 
0

>  <r_i_glide_emodel>  (25) 
-35.0505

>  <r_i_glide_energy>  (25) 
-31.0859

>  <r_i_glide_einternal>  (25) 
0.242328

>  <r_i_glide_intrahb_reward>  (25) 
-0

>  <i_i_glide_confnum>  (25) 
2

>  <i_i_glide_posenum>  (25) 
19

>  <r_i_glide_eff_state_penalty>  (25) 
0

>  <ligand_id>  (25) 
8

>  <original_smiles>  (25) 
CC1(C)COC2C(C1)OC1C=C3C4CC5=C6COCCC6CCC5(C)C4(C)C(O)CC3(C)C1C2O

>  <smiles>  (25) 
[H]OC1([H])C2([H])OC([H])([H])C(C([H])([H])[H])(C([H])([H])[H])C([H])([H])C2([H])OC2([H])C([H])=C3C4([H])C([H])([H])C5=C6C([H])([H])OC([H])([H])C([H])([H])C6([H])C([H])([H])C([H])([H])C5(C([H])([H])[H])C4(C([H])([H])[H])C([H])(O[H])C([H])([H])C3(C([H])([H])[H])C21[H]

$$$$
10:0:0
     RDKit          3D

 45 50  0  0  1  0  0  0  0  0999 V2000
    4.4204   -2.8826    4.5316 C   0  0  0  0  0  0  0  0  0  0  0  0
    4.8725   -2.7281    3.2774 C   0  0  0  0  0  0  0  0  0  0  0  0
    4.6210   -3.7122    2.1364 C   0  0  2  0  0  0  0  0  0  0  0  0
    5.8683   -4.2224    1.5494 C   0  0  1  0  0  0  0  0  0  0  0  0
    5.9341   -5.6410    1.6806 O   0  0  0  0  0  0  0  0  0  0  0  0
    7.2473   -6.1813    1.5907 C   0  0  0  0  0  0  0  0  0  0  0  0
    5.6322   -3.8093    0.0981 C   0  0  2  0  0  0  0  0  0  0  0  0
    5.8539   -2.3448   -0.2423 C   0  0  1  0  0  0  0  0  0  0  0  0
    5.8474   -2.5583   -1.7645 C   0  0  2  0  0  0  0  0  0  0  0  0
    5.2857   -1.4919   -2.4989 O   0  0  0  0  0  0  0  0  0  0  0  0
    4.1509   -0.8142   -1.9959 C   0  0  1  0  0  0  0  0  0  0  0  0
    3.1080   -0.6883   -3.1241 C   0  0  1  0  0  0  0  0  0  0  0  0
    3.6813   -0.1511   -4.3037 O   0  0  0  0  0  0  0  0  0  0  0  0
    2.3972   -2.0038   -3.3882 C   0  0  0  0  0  0  0  0  0  0  0  0
    2.3671   -3.0144   -2.4984 C   0  0  0  0  0  0  0  0  0  0  0  0
    3.0300   -2.9285   -1.1145 C   0  0  2  0  0  0  0  0  0  0  0  0
    3.5423   -1.5110   -0.7750 C   0  0  1  0  0  0  0  0  0  0  0  0
    4.5352   -1.8057    0.3344 C   0  0  1  0  0  0  0  0  0  0  0  0
    3.9429   -3.1197    0.8734 C   0  0  2  0  0  0  0  0  0  0  0  0
    2.6613   -2.9143    1.4800 O   0  0  0  0  0  0  0  0  0  0  0  0
    4.1154   -3.9828   -0.5111 C   0  0  2  0  0  0  0  0  0  0  0  0
    4.9865   -3.8346   -1.8679 C   0  0  1  0  0  0  0  0  0  0  0  0
    4.6226   -4.2350   -3.1855 O   0  0  0  0  0  0  0  0  0  0  0  0
    3.8285   -3.7405    4.8167 H   0  0  0  0  0  0  0  0  0  0  0  0
    4.6384   -2.1503    5.2925 H   0  0  0  0  0  0  0  0  0  0  0  0
    5.4621   -1.8542    3.0453 H   0  0  0  0  0  0  0  0  0  0  0  0
    4.0412   -4.5532    2.5199 H   0  0  0  0  0  0  0  0  0  0  0  0
    6.7484   -3.7357    1.9754 H   0  0  0  0  0  0  0  0  0  0  0  0
    7.2049   -7.2690    1.6711 H   0  0  0  0  0  0  0  0  0  0  0  0
    7.8737   -5.8103    2.4025 H   0  0  0  0  0  0  0  0  0  0  0  0
    7.7364   -5.9459    0.6451 H   0  0  0  0  0  0  0  0  0  0  0  0
    6.4948   -4.3648   -0.2874 H   0  0  0  0  0  0  0  0  0  0  0  0
    6.7614   -1.9006    0.1672 H   0  0  0  0  0  0  0  0  0  0  0  0
    6.8507   -2.7578   -2.1442 H   0  0  0  0  0  0  0  0  0  0  0  0
    4.5218    0.1479   -1.6906 H   0  0  0  0  0  0  0  0  0  0  0  0
    2.3406    0.0180   -2.8109 H   0  0  0  0  0  0  0  0  0  0  0  0
    2.9877    0.2624   -4.7973 H   0  0  0  0  0  0  0  0  0  0  0  0
    1.8673   -2.0944   -4.3204 H   0  0  0  0  0  0  0  0  0  0  0  0
    1.8244   -3.9192   -2.7335 H   0  0  0  0  0  0  0  0  0  0  0  0
    2.0607   -3.1199   -0.6579 H   0  0  0  0  0  0  0  0  0  0  0  0
    2.7412   -0.9017   -0.3662 H   0  0  0  0  0  0  0  0  0  0  0  0
    4.6513   -0.9946    1.0530 H   0  0  0  0  0  0  0  0  0  0  0  0
    2.1754   -2.3134    0.9306 H   0  0  0  0  0  0  0  0  0  0  0  0
    5.6491   -4.6841   -1.9480 H   0  0  0  0  0  0  0  0  0  0  0  0
    4.0111   -4.9626   -3.0903 H   0  0  0  0  0  0  0  0  0  0  0  0
  1  2  2  0
  1 24  1  0
  1 25  1  0
  2  3  1  0
  2 26  1  0
  3 19  1  0
  3  4  1  0
  3 27  1  1
  4  5  1  0
  4  7  1  0
  4 28  1  1
  5  6  1  0
  6 29  1  0
  6 30  1  0
  6 31  1  0
  7 21  1  0
  7  8  1  0
  7 32  1  6
  8 18  1  0
  8  9  1  0
  8 33  1  1
  9 22  1  0
  9 10  1  0
  9 34  1  6
 10 11  1  0
 11 17  1  0
 11 12  1  0
 11 35  1  1
 12 13  1  0
 12 14  1  0
 12 36  1  1
 13 37  1  0
 14 15  2  0
 14 38  1  0
 15 16  1  0
 15 39  1  0
 16 21  1  0
 16 17  1  0
 16 40  1  1
 17 18  1  0
 17 41  1  1
 18 19  1  0
 18 42  1  1
 19 20  1  1
 21 19  1  6
 20 43  1  0
 21 22  1  0
 22 23  1  0
 22 44  1  1
 23 45  1  0
M  END
>  <i_m_ct_stereo_status>  (26) 
1

>  <s_m_source_file>  (26) 
/var/tmp/pbs.5076255.sched01/tmpmjg_sug8/0d5zvyqle.sdf

>  <i_m_source_file_index>  (26) 
13

>  <i_lp_mmshare_version>  (26) 
48012

>  <i_f3d_flags>  (26) 
2

>  <s_epik_input>  (26) 
W0NIM11PW0NAQEhdMVtDQEBIXShbQ0hdPVtDSDJdKVtDQEBdMihbT0hdKVtDQEBIXTNbQ0BASF0oW0NASF00T1tDQEBIXShbQ0BASF0zW0NAQEhdMUMyNTYpW0NAQEhdNltPSF0pW0NASF01W0NIXT1bQ0hdW0NAQEhdNFtPSF0=

>  <s_epik_cmdline>  (26) 
J2VwaWtfcHl0aG9uJywgJy1waHQnLCAnMi4wJywgJy1waCcsICc3LjAnLCAnLXRuJywgJzgnLCAnLW1hJywgJzIwMCcsICctaW1hZScsICc8aW5maWxlLm1hZT4nLCAnLW9tYWUnLCAnPG91dGZpbGUubWFlPic=

>  <r_lp_tautomer_probability>  (26) 
1

>  <r_epik_Ionization_Penalty>  (26) 
1.59648e-07

>  <r_epik_Ionization_Penalty_Charging>  (26) 
0

>  <r_epik_Ionization_Penalty_Neutral>  (26) 
1.59648e-07

>  <r_epik_State_Penalty>  (26) 
-0

>  <r_epik_Charging_Adjusted_Penalty>  (26) 
0

>  <i_epik_Tot_Q>  (26) 
0

>  <i_epik_Tot_abs_Q>  (26) 
0

>  <s_lp_Force_Field>  (26) 
OPLS3e

>  <r_lp_Energy>  (26) 
218.325

>  <b_lp_Chiralities_Consistent>  (26) 
0

>  <s_lp_Variant>  (26) 
10:0-1

>  <s_i_glide_gridfile>  (26) 
pfpi4k_grid

>  <i_i_glide_lignum>  (26) 
13

>  <i_i_glide_rotatable_bonds>  (26) 
5

>  <r_i_docking_score>  (26) 
-3.86009

>  <r_i_glide_ligand_efficiency>  (26) 
-0.16783

>  <r_i_glide_ligand_efficiency_sa>  (26) 
-0.477286

>  <r_i_glide_ligand_efficiency_ln>  (26) 
-0.933405

>  <r_i_glide_gscore>  (26) 
-3.86009

>  <r_i_glide_lipo>  (26) 
-0.446577

>  <r_i_glide_hbond>  (26) 
0

>  <r_i_glide_metal>  (26) 
-0

>  <r_i_glide_rewards>  (26) 
-1.23843

>  <r_i_glide_evdw>  (26) 
-16.9452

>  <r_i_glide_ecoul>  (26) 
-10.0785

>  <r_i_glide_erotb>  (26) 
0.183945

>  <r_i_glide_esite>  (26) 
0

>  <r_i_glide_emodel>  (26) 
-32.2503

>  <r_i_glide_energy>  (26) 
-27.0237

>  <r_i_glide_einternal>  (26) 
2.39164

>  <r_i_glide_intrahb_reward>  (26) 
-0

>  <i_i_glide_confnum>  (26) 
3

>  <i_i_glide_posenum>  (26) 
9

>  <r_i_glide_eff_state_penalty>  (26) 
0

>  <ligand_id>  (26) 
10

>  <original_smiles>  (26) 
C=CC1C(OC)C2C3C4OC5C(O)C=CC6C5C3C1(O)C62C4O

>  <smiles>  (26) 
[H]OC1([H])C([H])=C([H])C2([H])C3([H])C1([H])OC1([H])C([H])(O[H])C24C2([H])C([H])(OC([H])([H])[H])C([H])(C([H])=C([H])[H])C4(O[H])C3([H])C12[H]

$$$$
10:0:1
     RDKit          3D

 45 50  0  0  1  0  0  0  0  0999 V2000
    4.0615   -3.4660    4.4837 C   0  0  0  0  0  0  0  0  0  0  0  0
    4.6031   -3.2065    3.2938 C   0  0  0  0  0  0  0  0  0  0  0  0
    4.4291   -4.0805    2.0503 C   0  0  2  0  0  0  0  0  0  0  0  0
    5.7114   -4.5437    1.5093 C   0  0  1  0  0  0  0  0  0  0  0  0
    5.7914   -5.9673    1.4657 O   0  0  0  0  0  0  0  0  0  0  0  0
    6.0918   -6.5683    2.7153 C   0  0  0  0  0  0  0  0  0  0  0  0
    5.5714   -4.0041    0.0831 C   0  0  2  0  0  0  0  0  0  0  0  0
    5.8159   -2.5085   -0.1130 C   0  0  1  0  0  0  0  0  0  0  0  0
    5.9056   -2.5682   -1.6480 C   0  0  2  0  0  0  0  0  0  0  0  0
    5.4109   -1.4065   -2.3068 O   0  0  0  0  0  0  0  0  0  0  0  0
    4.2206   -0.7956   -1.8304 C   0  0  1  0  0  0  0  0  0  0  0  0
    3.2460   -0.6177   -3.0294 C   0  0  1  0  0  0  0  0  0  0  0  0
    3.8224    0.0421   -4.1294 O   0  0  0  0  0  0  0  0  0  0  0  0
    2.5694   -1.9022   -3.4338 C   0  0  0  0  0  0  0  0  0  0  0  0
    2.4858   -2.9764   -2.6291 C   0  0  0  0  0  0  0  0  0  0  0  0
    3.0597   -3.0076   -1.2157 C   0  0  2  0  0  0  0  0  0  0  0  0
    3.5457   -1.6209   -0.7203 C   0  0  1  0  0  0  0  0  0  0  0  0
    4.4668   -2.0180    0.4250 C   0  0  1  0  0  0  0  0  0  0  0  0
    3.8518   -3.3753    0.7981 C   0  0  2  0  0  0  0  0  0  0  0  0
    2.5528   -3.2153    1.3438 O   0  0  0  0  0  0  0  0  0  0  0  0
    4.1044   -4.1192   -0.6385 C   0  0  2  0  0  0  0  0  0  0  0  0
    5.0579   -3.8304   -1.9098 C   0  0  1  0  0  0  0  0  0  0  0  0
    4.7800   -4.1237   -3.2678 O   0  0  0  0  0  0  0  0  0  0  0  0
    3.4425   -4.3390    4.6469 H   0  0  0  0  0  0  0  0  0  0  0  0
    4.2272   -2.8095    5.3284 H   0  0  0  0  0  0  0  0  0  0  0  0
    5.2167   -2.3212    3.1773 H   0  0  0  0  0  0  0  0  0  0  0  0
    3.8114   -4.9416    2.3138 H   0  0  0  0  0  0  0  0  0  0  0  0
    6.5795   -4.1113    2.0069 H   0  0  0  0  0  0  0  0  0  0  0  0
    6.1256   -7.6515    2.5971 H   0  0  0  0  0  0  0  0  0  0  0  0
    5.3388   -6.3427    3.4694 H   0  0  0  0  0  0  0  0  0  0  0  0
    7.0623   -6.2426    3.0909 H   0  0  0  0  0  0  0  0  0  0  0  0
    6.4494   -4.5492   -0.2875 H   0  0  0  0  0  0  0  0  0  0  0  0
    6.6925   -2.1006    0.3945 H   0  0  0  0  0  0  0  0  0  0  0  0
    6.9319   -2.7525   -1.9751 H   0  0  0  0  0  0  0  0  0  0  0  0
    4.5359    0.1423   -1.4176 H   0  0  0  0  0  0  0  0  0  0  0  0
    2.4236    0.0382   -2.7666 H   0  0  0  0  0  0  0  0  0  0  0  0
    3.5456    0.9502   -4.0882 H   0  0  0  0  0  0  0  0  0  0  0  0
    2.1033   -1.8902   -4.4010 H   0  0  0  0  0  0  0  0  0  0  0  0
    1.9620   -3.8594   -2.9708 H   0  0  0  0  0  0  0  0  0  0  0  0
    2.0695   -3.2355   -0.8338 H   0  0  0  0  0  0  0  0  0  0  0  0
    2.7143   -1.0655   -0.3022 H   0  0  0  0  0  0  0  0  0  0  0  0
    4.5287   -1.2773    1.2221 H   0  0  0  0  0  0  0  0  0  0  0  0
    2.0985   -2.5483    0.8247 H   0  0  0  0  0  0  0  0  0  0  0  0
    5.7411   -4.6526   -2.0307 H   0  0  0  0  0  0  0  0  0  0  0  0
    4.1727   -4.8657   -3.2442 H   0  0  0  0  0  0  0  0  0  0  0  0
  1  2  2  0
  1 24  1  0
  1 25  1  0
  2  3  1  0
  2 26  1  0
  3 19  1  0
  3  4  1  0
  3 27  1  1
  4  5  1  0
  4  7  1  0
  4 28  1  1
  5  6  1  0
  6 29  1  0
  6 30  1  0
  6 31  1  0
  7 21  1  0
  7  8  1  0
  7 32  1  6
  8 18  1  0
  8  9  1  0
  8 33  1  1
  9 22  1  0
  9 10  1  0
  9 34  1  1
 10 11  1  0
 11 17  1  0
 11 12  1  0
 11 35  1  1
 12 13  1  0
 12 14  1  0
 12 36  1  1
 13 37  1  0
 14 15  2  0
 14 38  1  0
 15 16  1  0
 15 39  1  0
 16 21  1  0
 16 17  1  0
 16 40  1  1
 17 18  1  0
 17 41  1  1
 18 19  1  0
 18 42  1  1
 19 20  1  1
 21 19  1  6
 20 43  1  0
 21 22  1  0
 22 23  1  0
 22 44  1  1
 23 45  1  0
M  END
>  <i_m_ct_stereo_status>  (27) 
1

>  <s_m_source_file>  (27) 
/var/tmp/pbs.5076255.sched01/tmpmjg_sug8/0d5zvyqle.sdf

>  <i_m_source_file_index>  (27) 
13

>  <i_lp_mmshare_version>  (27) 
48012

>  <i_f3d_flags>  (27) 
2

>  <s_epik_input>  (27) 
W0NIM11PW0NAQEhdMVtDQEBIXShbQ0hdPVtDSDJdKVtDQEBdMihbT0hdKVtDQEBIXTNbQ0BASF0oW0NASF00T1tDQEBIXShbQ0BASF0zW0NAQEhdMUMyNTYpW0NAQEhdNltPSF0pW0NASF01W0NIXT1bQ0hdW0NAQEhdNFtPSF0=

>  <s_epik_cmdline>  (27) 
J2VwaWtfcHl0aG9uJywgJy1waHQnLCAnMi4wJywgJy1waCcsICc3LjAnLCAnLXRuJywgJzgnLCAnLW1hJywgJzIwMCcsICctaW1hZScsICc8aW5maWxlLm1hZT4nLCAnLW9tYWUnLCAnPG91dGZpbGUubWFlPic=

>  <r_lp_tautomer_probability>  (27) 
1

>  <r_epik_Ionization_Penalty>  (27) 
1.59648e-07

>  <r_epik_Ionization_Penalty_Charging>  (27) 
0

>  <r_epik_Ionization_Penalty_Neutral>  (27) 
1.59648e-07

>  <r_epik_State_Penalty>  (27) 
-0

>  <r_epik_Charging_Adjusted_Penalty>  (27) 
0

>  <i_epik_Tot_Q>  (27) 
0

>  <i_epik_Tot_abs_Q>  (27) 
0

>  <s_lp_Force_Field>  (27) 
OPLS3e

>  <r_lp_Energy>  (27) 
218.325

>  <b_lp_Chiralities_Consistent>  (27) 
0

>  <s_lp_Variant>  (27) 
10:0-1

>  <s_i_glide_gridfile>  (27) 
pfpi4k_grid

>  <i_i_glide_lignum>  (27) 
13

>  <i_i_glide_rotatable_bonds>  (27) 
5

>  <r_i_docking_score>  (27) 
-3.67386

>  <r_i_glide_ligand_efficiency>  (27) 
-0.159733

>  <r_i_glide_ligand_efficiency_sa>  (27) 
-0.454259

>  <r_i_glide_ligand_efficiency_ln>  (27) 
-0.888372

>  <r_i_glide_gscore>  (27) 
-3.67386

>  <r_i_glide_lipo>  (27) 
-0.331087

>  <r_i_glide_hbond>  (27) 
0

>  <r_i_glide_metal>  (27) 
-0

>  <r_i_glide_rewards>  (27) 
-1.23843

>  <r_i_glide_evdw>  (27) 
-17.5865

>  <r_i_glide_ecoul>  (27) 
-9.3931

>  <r_i_glide_erotb>  (27) 
0.183945

>  <r_i_glide_esite>  (27) 
0

>  <r_i_glide_emodel>  (27) 
-32.3321

>  <r_i_glide_energy>  (27) 
-26.9796

>  <r_i_glide_einternal>  (27) 
1.77525

>  <r_i_glide_intrahb_reward>  (27) 
-0

>  <i_i_glide_confnum>  (27) 
3

>  <i_i_glide_posenum>  (27) 
28

>  <r_i_glide_eff_state_penalty>  (27) 
0

>  <ligand_id>  (27) 
10

>  <original_smiles>  (27) 
C=CC1C(OC)C2C3C4OC5C(O)C=CC6C5C3C1(O)C62C4O

>  <smiles>  (27) 
[H]OC1([H])C([H])=C([H])C2([H])C3([H])C1([H])OC1([H])C([H])(O[H])C24C2([H])C([H])(OC([H])([H])[H])C([H])(C([H])=C([H])[H])C4(O[H])C3([H])C12[H]

$$$$
10:0:2
     RDKit          3D

 45 50  0  0  1  0  0  0  0  0999 V2000
    3.7612   -2.9913    4.6303 C   0  0  0  0  0  0  0  0  0  0  0  0
    4.3362   -2.8385    3.4344 C   0  0  0  0  0  0  0  0  0  0  0  0
    4.1395   -3.7859    2.2539 C   0  0  2  0  0  0  0  0  0  0  0  0
    5.4070   -4.3621    1.7807 C   0  0  1  0  0  0  0  0  0  0  0  0
    5.4068   -5.7860    1.8413 O   0  0  0  0  0  0  0  0  0  0  0  0
    5.6607   -6.3124    3.1351 C   0  0  0  0  0  0  0  0  0  0  0  0
    5.3500   -3.9190    0.3226 C   0  0  2  0  0  0  0  0  0  0  0  0
    5.6814   -2.4657    0.0289 C   0  0  1  0  0  0  0  0  0  0  0  0
    5.8127   -2.6599   -1.4943 C   0  0  2  0  0  0  0  0  0  0  0  0
    5.4032   -1.5293   -2.2577 O   0  0  0  0  0  0  0  0  0  0  0  0
    4.2401   -0.8113   -1.8587 C   0  0  1  0  0  0  0  0  0  0  0  0
    3.2963   -0.6313   -3.0698 C   0  0  1  0  0  0  0  0  0  0  0  0
    3.9674   -0.1058   -4.1933 O   0  0  0  0  0  0  0  0  0  0  0  0
    2.5602   -1.9082   -3.4213 C   0  0  0  0  0  0  0  0  0  0  0  0
    2.3899   -2.9233   -2.5592 C   0  0  0  0  0  0  0  0  0  0  0  0
    2.9236   -2.8885   -1.1183 C   0  0  2  0  0  0  0  0  0  0  0  0
    3.4781   -1.4984   -0.7122 C   0  0  1  0  0  0  0  0  0  0  0  0
    4.3425   -1.8586    0.4862 C   0  0  1  0  0  0  0  0  0  0  0  0
    3.6295   -3.1371    0.9461 C   0  0  2  0  0  0  0  0  0  0  0  0
    2.3091   -2.8529    1.4314 O   0  0  0  0  0  0  0  0  0  0  0  0
    3.8908   -3.9994   -0.4305 C   0  0  2  0  0  0  0  0  0  0  0  0
    4.9017   -3.8937   -1.6899 C   0  0  1  0  0  0  0  0  0  0  0  0
    4.6417   -4.2319   -3.0457 O   0  0  0  0  0  0  0  0  0  0  0  0
    3.0983   -3.8223    4.8382 H   0  0  0  0  0  0  0  0  0  0  0  0
    3.9420   -2.2852    5.4276 H   0  0  0  0  0  0  0  0  0  0  0  0
    4.9914   -1.9942    3.2715 H   0  0  0  0  0  0  0  0  0  0  0  0
    3.4703   -4.5953    2.5542 H   0  0  0  0  0  0  0  0  0  0  0  0
    6.2883   -3.9456    2.2705 H   0  0  0  0  0  0  0  0  0  0  0  0
    5.6313   -7.4019    3.0948 H   0  0  0  0  0  0  0  0  0  0  0  0
    4.9139   -5.9883    3.8605 H   0  0  0  0  0  0  0  0  0  0  0  0
    6.6461   -6.0182    3.4976 H   0  0  0  0  0  0  0  0  0  0  0  0
    6.2053   -4.5405    0.0196 H   0  0  0  0  0  0  0  0  0  0  0  0
    6.5641   -2.0674    0.5289 H   0  0  0  0  0  0  0  0  0  0  0  0
    6.8385   -2.9064   -1.7778 H   0  0  0  0  0  0  0  0  0  0  0  0
    4.6085    0.1318   -1.4990 H   0  0  0  0  0  0  0  0  0  0  0  0
    2.5236    0.0961   -2.8159 H   0  0  0  0  0  0  0  0  0  0  0  0
    3.3527    0.4195   -4.6807 H   0  0  0  0  0  0  0  0  0  0  0  0
    2.1183   -1.9508   -4.4071 H   0  0  0  0  0  0  0  0  0  0  0  0
    1.8204   -3.7944   -2.8533 H   0  0  0  0  0  0  0  0  0  0  0  0
    1.9096   -3.0523   -0.7517 H   0  0  0  0  0  0  0  0  0  0  0  0
    2.6748   -0.8498   -0.3654 H   0  0  0  0  0  0  0  0  0  0  0  0
    4.4288   -1.0650    1.2264 H   0  0  0  0  0  0  0  0  0  0  0  0
    1.9254   -2.2108    0.8513 H   0  0  0  0  0  0  0  0  0  0  0  0
    5.4755   -4.8163   -1.7178 H   0  0  0  0  0  0  0  0  0  0  0  0
    4.0186   -4.9521   -3.0233 H   0  0  0  0  0  0  0  0  0  0  0  0
  1  2  2  0
  1 24  1  0
  1 25  1  0
  2  3  1  0
  2 26  1  0
  3 19  1  0
  3  4  1  0
  3 27  1  1
  4  5  1  0
  4  7  1  0
  4 28  1  1
  5  6  1  0
  6 29  1  0
  6 30  1  0
  6 31  1  0
  7 21  1  0
  7  8  1  0
  7 32  1  6
  8 18  1  0
  8  9  1  0
  8 33  1  1
  9 22  1  0
  9 10  1  0
  9 34  1  1
 10 11  1  0
 11 17  1  0
 11 12  1  0
 11 35  1  1
 12 13  1  0
 12 14  1  0
 12 36  1  1
 13 37  1  0
 14 15  2  0
 14 38  1  0
 15 16  1  0
 15 39  1  0
 16 21  1  0
 16 17  1  0
 16 40  1  1
 17 18  1  0
 17 41  1  1
 18 19  1  0
 18 42  1  1
 19 20  1  1
 21 19  1  6
 20 43  1  0
 21 22  1  0
 22 23  1  0
 22 44  1  1
 23 45  1  0
M  END
>  <i_m_ct_stereo_status>  (28) 
1

>  <s_m_source_file>  (28) 
/var/tmp/pbs.5076255.sched01/tmpmjg_sug8/0d5zvyqle.sdf

>  <i_m_source_file_index>  (28) 
13

>  <i_lp_mmshare_version>  (28) 
48012

>  <i_f3d_flags>  (28) 
2

>  <s_epik_input>  (28) 
W0NIM11PW0NAQEhdMVtDQEBIXShbQ0hdPVtDSDJdKVtDQEBdMihbT0hdKVtDQEBIXTNbQ0BASF0oW0NASF00T1tDQEBIXShbQ0BASF0zW0NAQEhdMUMyNTYpW0NAQEhdNltPSF0pW0NASF01W0NIXT1bQ0hdW0NAQEhdNFtPSF0=

>  <s_epik_cmdline>  (28) 
J2VwaWtfcHl0aG9uJywgJy1waHQnLCAnMi4wJywgJy1waCcsICc3LjAnLCAnLXRuJywgJzgnLCAnLW1hJywgJzIwMCcsICctaW1hZScsICc8aW5maWxlLm1hZT4nLCAnLW9tYWUnLCAnPG91dGZpbGUubWFlPic=

>  <r_lp_tautomer_probability>  (28) 
1

>  <r_epik_Ionization_Penalty>  (28) 
1.59648e-07

>  <r_epik_Ionization_Penalty_Charging>  (28) 
0

>  <r_epik_Ionization_Penalty_Neutral>  (28) 
1.59648e-07

>  <r_epik_State_Penalty>  (28) 
-0

>  <r_epik_Charging_Adjusted_Penalty>  (28) 
0

>  <i_epik_Tot_Q>  (28) 
0

>  <i_epik_Tot_abs_Q>  (28) 
0

>  <s_lp_Force_Field>  (28) 
OPLS3e

>  <r_lp_Energy>  (28) 
218.325

>  <b_lp_Chiralities_Consistent>  (28) 
0

>  <s_lp_Variant>  (28) 
10:0-1

>  <s_i_glide_gridfile>  (28) 
pfpi4k_grid

>  <i_i_glide_lignum>  (28) 
13

>  <i_i_glide_rotatable_bonds>  (28) 
5

>  <r_i_docking_score>  (28) 
-3.60431

>  <r_i_glide_ligand_efficiency>  (28) 
-0.156709

>  <r_i_glide_ligand_efficiency_sa>  (28) 
-0.44566

>  <r_i_glide_ligand_efficiency_ln>  (28) 
-0.871554

>  <r_i_glide_gscore>  (28) 
-3.60431

>  <r_i_glide_lipo>  (28) 
-0.291626

>  <r_i_glide_hbond>  (28) 
-0.0264808

>  <r_i_glide_metal>  (28) 
-0

>  <r_i_glide_rewards>  (28) 
-1.23843

>  <r_i_glide_evdw>  (28) 
-14.7825

>  <r_i_glide_ecoul>  (28) 
-9.95065

>  <r_i_glide_erotb>  (28) 
0.183945

>  <r_i_glide_esite>  (28) 
0

>  <r_i_glide_emodel>  (28) 
-30.0248

>  <r_i_glide_energy>  (28) 
-24.7331

>  <r_i_glide_einternal>  (28) 
1.38944

>  <r_i_glide_intrahb_reward>  (28) 
-0

>  <i_i_glide_confnum>  (28) 
3

>  <i_i_glide_posenum>  (28) 
33

>  <r_i_glide_eff_state_penalty>  (28) 
0

>  <ligand_id>  (28) 
10

>  <original_smiles>  (28) 
C=CC1C(OC)C2C3C4OC5C(O)C=CC6C5C3C1(O)C62C4O

>  <smiles>  (28) 
[H]OC1([H])C([H])=C([H])C2([H])C3([H])C1([H])OC1([H])C([H])(O[H])C24C2([H])C([H])(OC([H])([H])[H])C([H])(C([H])=C([H])[H])C4(O[H])C3([H])C12[H]

$$$$
11:0:0
     RDKit          3D

 18 19  0  0  1  0  0  0  0  0999 V2000
   -8.3395   -4.2547   -5.6601 C   0  0  0  0  0  0  0  0  0  0  0  0
   -7.2779   -4.7525   -4.8722 C   0  0  0  0  0  0  0  0  0  0  0  0
   -6.7061   -5.9626   -5.2925 C   0  0  0  0  0  0  0  0  0  0  0  0
   -7.1762   -6.6055   -6.4196 C   0  0  0  0  0  0  0  0  0  0  0  0
   -8.2318   -6.0411   -7.1566 C   0  0  0  0  0  0  0  0  0  0  0  0
   -8.8029   -4.8731   -6.7769 N   0  0  0  0  0  0  0  0  0  0  0  0
   -6.4053   -7.8660   -6.6857 C   0  0  0  0  0  0  0  0  0  0  0  0
   -5.5212   -7.9820   -5.4928 N   0  0  0  0  0  0  0  0  0  0  0  0
   -5.5753   -6.7313   -4.6849 C   0  0  0  0  0  0  0  0  0  0  0  0
   -8.8188   -3.3234   -5.3962 H   0  0  0  0  0  0  0  0  0  0  0  0
   -6.9268   -4.2224   -3.9972 H   0  0  0  0  0  0  0  0  0  0  0  0
   -8.6120   -6.5204   -8.0470 H   0  0  0  0  0  0  0  0  0  0  0  0
   -7.0630   -8.7293   -6.7825 H   0  0  0  0  0  0  0  0  0  0  0  0
   -5.8175   -7.7602   -7.5976 H   0  0  0  0  0  0  0  0  0  0  0  0
   -4.5738   -8.2031   -5.7617 H   0  0  0  0  0  0  0  0  0  0  0  0
   -4.6498   -6.1637   -4.7790 H   0  0  0  0  0  0  0  0  0  0  0  0
   -5.7720   -6.9466   -3.6341 H   0  0  0  0  0  0  0  0  0  0  0  0
   -5.8767   -8.7360   -4.9232 H   0  0  0  0  0  0  0  0  0  0  0  0
  1  6  2  0
  1  2  1  0
  1 10  1  0
  2  3  2  0
  2 11  1  0
  3  9  1  0
  3  4  1  0
  4  5  2  0
  4  7  1  0
  5  6  1  0
  5 12  1  0
  7  8  1  0
  7 13  1  0
  7 14  1  0
  8  9  1  0
  8 15  1  0
  8 18  1  0
  9 16  1  0
  9 17  1  0
M  CHG  1   8   1
M  END
>  <i_m_ct_stereo_status>  (29) 
1

>  <s_m_source_file>  (29) 
/var/tmp/pbs.5076255.sched01/tmpmjg_sug8/0d5zvyqle.sdf

>  <i_m_source_file_index>  (29) 
14

>  <i_lp_mmshare_version>  (29) 
48012

>  <i_f3d_flags>  (29) 
0

>  <s_epik_input>  (29) 
W2NIXTFbY0hdbltjSF1jKGMxMilbQ0gyXVtOSF1bQ0gyXTI=

>  <s_epik_cmdline>  (29) 
J2VwaWtfcHl0aG9uJywgJy1waHQnLCAnMi4wJywgJy1waCcsICc3LjAnLCAnLXRuJywgJzgnLCAnLW1hJywgJzIwMCcsICctaW1hZScsICc8aW5maWxlLm1hZT4nLCAnLW9tYWUnLCAnPG91dGZpbGUubWFlPic=

>  <r_epik_Ionization_Penalty>  (29) 
0.0472802

>  <r_epik_Ionization_Penalty_Charging>  (29) 
0.0472481

>  <r_epik_Ionization_Penalty_Neutral>  (29) 
3.21038e-05

>  <r_epik_State_Penalty>  (29) 
0.0420154

>  <r_epik_Charging_Adjusted_Penalty>  (29) 
0.0892635

>  <i_epik_Tot_Q>  (29) 
1

>  <i_epik_Tot_abs_Q>  (29) 
1

>  <s_lp_Force_Field>  (29) 
OPLS3e

>  <r_lp_Energy>  (29) 
15.3514

>  <b_lp_Chiralities_Consistent>  (29) 
1

>  <s_lp_Variant>  (29) 
11:0-1

>  <s_i_glide_gridfile>  (29) 
pfpi4k_grid

>  <i_i_glide_lignum>  (29) 
14

>  <i_i_glide_rotatable_bonds>  (29) 
0

>  <r_i_docking_score>  (29) 
-5.497

>  <r_i_glide_ligand_efficiency>  (29) 
-0.610778

>  <r_i_glide_ligand_efficiency_sa>  (29) 
-1.27047

>  <r_i_glide_ligand_efficiency_ln>  (29) 
-1.71931

>  <r_i_glide_gscore>  (29) 
-5.497

>  <r_i_glide_lipo>  (29) 
-1.86392

>  <r_i_glide_hbond>  (29) 
0

>  <r_i_glide_metal>  (29) 
-0

>  <r_i_glide_rewards>  (29) 
-2.725

>  <r_i_glide_evdw>  (29) 
-17.0672

>  <r_i_glide_ecoul>  (29) 
-0.364869

>  <r_i_glide_erotb>  (29) 
0

>  <r_i_glide_esite>  (29) 
0

>  <r_i_glide_emodel>  (29) 
-27.2919

>  <r_i_glide_energy>  (29) 
-17.432

>  <r_i_glide_einternal>  (29) 
0

>  <r_i_glide_intrahb_reward>  (29) 
-0

>  <i_i_glide_confnum>  (29) 
1

>  <i_i_glide_posenum>  (29) 
11

>  <r_i_glide_eff_state_penalty>  (29) 
0

>  <ligand_id>  (29) 
11

>  <original_smiles>  (29) 
c1cc2c(cn1)CNC2

>  <smiles>  (29) 
[H]c1nc([H])c2c(c1[H])C([H])([H])[N+]([H])([H])C2([H])[H]

$$$$
11:0:1
     RDKit          3D

 18 19  0  0  1  0  0  0  0  0999 V2000
   -7.4631   -8.5238   -7.7761 C   0  0  0  0  0  0  0  0  0  0  0  0
   -6.8289   -9.7832   -7.6689 C   0  0  0  0  0  0  0  0  0  0  0  0
   -5.7660   -9.8704   -6.7585 C   0  0  0  0  0  0  0  0  0  0  0  0
   -5.3847   -8.7647   -6.0259 C   0  0  0  0  0  0  0  0  0  0  0  0
   -6.0668   -7.5463   -6.1820 C   0  0  0  0  0  0  0  0  0  0  0  0
   -7.0941   -7.4337   -7.0558 N   0  0  0  0  0  0  0  0  0  0  0  0
   -4.2369   -9.0943   -5.1206 C   0  0  0  0  0  0  0  0  0  0  0  0
   -3.8760  -10.4843   -5.5156 N   0  0  0  0  0  0  0  0  0  0  0  0
   -4.9115  -11.0556   -6.4198 C   0  0  0  0  0  0  0  0  0  0  0  0
   -8.2924   -8.3915   -8.4532 H   0  0  0  0  0  0  0  0  0  0  0  0
   -7.1537  -10.6328   -8.2524 H   0  0  0  0  0  0  0  0  0  0  0  0
   -5.7896   -6.6680   -5.6151 H   0  0  0  0  0  0  0  0  0  0  0  0
   -3.3980   -8.4086   -5.2457 H   0  0  0  0  0  0  0  0  0  0  0  0
   -4.5655   -9.0561   -4.0840 H   0  0  0  0  0  0  0  0  0  0  0  0
   -3.7775  -11.0456   -4.6758 H   0  0  0  0  0  0  0  0  0  0  0  0
   -5.5072  -11.8138   -5.9085 H   0  0  0  0  0  0  0  0  0  0  0  0
   -4.4550  -11.4953   -7.3073 H   0  0  0  0  0  0  0  0  0  0  0  0
   -2.9900  -10.4514   -5.9986 H   0  0  0  0  0  0  0  0  0  0  0  0
  1  6  2  0
  1  2  1  0
  1 10  1  0
  2  3  2  0
  2 11  1  0
  3  9  1  0
  3  4  1  0
  4  5  2  0
  4  7  1  0
  5  6  1  0
  5 12  1  0
  7  8  1  0
  7 13  1  0
  7 14  1  0
  8  9  1  0
  8 15  1  0
  8 18  1  0
  9 16  1  0
  9 17  1  0
M  CHG  1   8   1
M  END
>  <i_m_ct_stereo_status>  (30) 
1

>  <s_m_source_file>  (30) 
/var/tmp/pbs.5076255.sched01/tmpmjg_sug8/0d5zvyqle.sdf

>  <i_m_source_file_index>  (30) 
14

>  <i_lp_mmshare_version>  (30) 
48012

>  <i_f3d_flags>  (30) 
0

>  <s_epik_input>  (30) 
W2NIXTFbY0hdbltjSF1jKGMxMilbQ0gyXVtOSF1bQ0gyXTI=

>  <s_epik_cmdline>  (30) 
J2VwaWtfcHl0aG9uJywgJy1waHQnLCAnMi4wJywgJy1waCcsICc3LjAnLCAnLXRuJywgJzgnLCAnLW1hJywgJzIwMCcsICctaW1hZScsICc8aW5maWxlLm1hZT4nLCAnLW9tYWUnLCAnPG91dGZpbGUubWFlPic=

>  <r_epik_Ionization_Penalty>  (30) 
0.0472802

>  <r_epik_Ionization_Penalty_Charging>  (30) 
0.0472481

>  <r_epik_Ionization_Penalty_Neutral>  (30) 
3.21038e-05

>  <r_epik_State_Penalty>  (30) 
0.0420154

>  <r_epik_Charging_Adjusted_Penalty>  (30) 
0.0892635

>  <i_epik_Tot_Q>  (30) 
1

>  <i_epik_Tot_abs_Q>  (30) 
1

>  <s_lp_Force_Field>  (30) 
OPLS3e

>  <r_lp_Energy>  (30) 
15.3514

>  <b_lp_Chiralities_Consistent>  (30) 
1

>  <s_lp_Variant>  (30) 
11:0-1

>  <s_i_glide_gridfile>  (30) 
pfpi4k_grid

>  <i_i_glide_lignum>  (30) 
14

>  <i_i_glide_rotatable_bonds>  (30) 
0

>  <r_i_docking_score>  (30) 
-4.98947

>  <r_i_glide_ligand_efficiency>  (30) 
-0.554385

>  <r_i_glide_ligand_efficiency_sa>  (30) 
-1.15317

>  <r_i_glide_ligand_efficiency_ln>  (30) 
-1.56056

>  <r_i_glide_gscore>  (30) 
-4.98947

>  <r_i_glide_lipo>  (30) 
-1.00529

>  <r_i_glide_hbond>  (30) 
0

>  <r_i_glide_metal>  (30) 
-0

>  <r_i_glide_rewards>  (30) 
-2.53333

>  <r_i_glide_evdw>  (30) 
-14.0815

>  <r_i_glide_ecoul>  (30) 
-4.9785

>  <r_i_glide_erotb>  (30) 
0

>  <r_i_glide_esite>  (30) 
0

>  <r_i_glide_emodel>  (30) 
-28.0081

>  <r_i_glide_energy>  (30) 
-19.06

>  <r_i_glide_einternal>  (30) 
0

>  <r_i_glide_intrahb_reward>  (30) 
-0

>  <i_i_glide_confnum>  (30) 
1

>  <i_i_glide_posenum>  (30) 
4

>  <r_i_glide_eff_state_penalty>  (30) 
0

>  <ligand_id>  (30) 
11

>  <original_smiles>  (30) 
c1cc2c(cn1)CNC2

>  <smiles>  (30) 
[H]c1nc([H])c2c(c1[H])C([H])([H])[N+]([H])([H])C2([H])[H]

$$$$
11:0:2
     RDKit          3D

 18 19  0  0  1  0  0  0  0  0999 V2000
    5.4405   -1.2659   -0.2566 C   0  0  0  0  0  0  0  0  0  0  0  0
    4.0966   -1.4396   -0.6516 C   0  0  0  0  0  0  0  0  0  0  0  0
    3.8694   -2.2741   -1.7538 C   0  0  0  0  0  0  0  0  0  0  0  0
    4.9323   -2.8800   -2.3993 C   0  0  0  0  0  0  0  0  0  0  0  0
    6.2443   -2.6705   -1.9424 C   0  0  0  0  0  0  0  0  0  0  0  0
    6.4937   -1.8564   -0.8897 N   0  0  0  0  0  0  0  0  0  0  0  0
    4.4445   -3.7300   -3.5354 C   0  0  0  0  0  0  0  0  0  0  0  0
    2.9820   -3.4480   -3.5839 N   0  0  0  0  0  0  0  0  0  0  0  0
    2.5702   -2.6612   -2.3912 C   0  0  0  0  0  0  0  0  0  0  0  0
    5.6860   -0.6274    0.5781 H   0  0  0  0  0  0  0  0  0  0  0  0
    3.2767   -0.9547   -0.1373 H   0  0  0  0  0  0  0  0  0  0  0  0
    7.0863   -3.1355   -2.4320 H   0  0  0  0  0  0  0  0  0  0  0  0
    4.9381   -3.4876   -4.4722 H   0  0  0  0  0  0  0  0  0  0  0  0
    4.6323   -4.7791   -3.3136 H   0  0  0  0  0  0  0  0  0  0  0  0
    2.4589   -4.3157   -3.6187 H   0  0  0  0  0  0  0  0  0  0  0  0
    1.9719   -3.2644   -1.7063 H   0  0  0  0  0  0  0  0  0  0  0  0
    1.9940   -1.7933   -2.6986 H   0  0  0  0  0  0  0  0  0  0  0  0
    2.7712   -2.8971   -4.4042 H   0  0  0  0  0  0  0  0  0  0  0  0
  1  6  2  0
  1  2  1  0
  1 10  1  0
  2  3  2  0
  2 11  1  0
  3  9  1  0
  3  4  1  0
  4  5  2  0
  4  7  1  0
  5  6  1  0
  5 12  1  0
  7  8  1  0
  7 13  1  0
  7 14  1  0
  8  9  1  0
  8 15  1  0
  8 18  1  0
  9 16  1  0
  9 17  1  0
M  CHG  1   8   1
M  END
>  <i_m_ct_stereo_status>  (31) 
1

>  <s_m_source_file>  (31) 
/var/tmp/pbs.5076255.sched01/tmpmjg_sug8/0d5zvyqle.sdf

>  <i_m_source_file_index>  (31) 
14

>  <i_lp_mmshare_version>  (31) 
48012

>  <i_f3d_flags>  (31) 
0

>  <s_epik_input>  (31) 
W2NIXTFbY0hdbltjSF1jKGMxMilbQ0gyXVtOSF1bQ0gyXTI=

>  <s_epik_cmdline>  (31) 
J2VwaWtfcHl0aG9uJywgJy1waHQnLCAnMi4wJywgJy1waCcsICc3LjAnLCAnLXRuJywgJzgnLCAnLW1hJywgJzIwMCcsICctaW1hZScsICc8aW5maWxlLm1hZT4nLCAnLW9tYWUnLCAnPG91dGZpbGUubWFlPic=

>  <r_epik_Ionization_Penalty>  (31) 
0.0472802

>  <r_epik_Ionization_Penalty_Charging>  (31) 
0.0472481

>  <r_epik_Ionization_Penalty_Neutral>  (31) 
3.21038e-05

>  <r_epik_State_Penalty>  (31) 
0.0420154

>  <r_epik_Charging_Adjusted_Penalty>  (31) 
0.0892635

>  <i_epik_Tot_Q>  (31) 
1

>  <i_epik_Tot_abs_Q>  (31) 
1

>  <s_lp_Force_Field>  (31) 
OPLS3e

>  <r_lp_Energy>  (31) 
15.3514

>  <b_lp_Chiralities_Consistent>  (31) 
1

>  <s_lp_Variant>  (31) 
11:0-1

>  <s_i_glide_gridfile>  (31) 
pfpi4k_grid

>  <i_i_glide_lignum>  (31) 
14

>  <i_i_glide_rotatable_bonds>  (31) 
0

>  <r_i_docking_score>  (31) 
-4.40308

>  <r_i_glide_ligand_efficiency>  (31) 
-0.489231

>  <r_i_glide_ligand_efficiency_sa>  (31) 
-1.01764

>  <r_i_glide_ligand_efficiency_ln>  (31) 
-1.37716

>  <r_i_glide_gscore>  (31) 
-4.40308

>  <r_i_glide_lipo>  (31) 
-0.176342

>  <r_i_glide_hbond>  (31) 
-0.159723

>  <r_i_glide_metal>  (31) 
-0

>  <r_i_glide_rewards>  (31) 
-2.25

>  <r_i_glide_evdw>  (31) 
-13.0247

>  <r_i_glide_ecoul>  (31) 
-7.77189

>  <r_i_glide_erotb>  (31) 
0

>  <r_i_glide_esite>  (31) 
0

>  <r_i_glide_emodel>  (31) 
-28.692

>  <r_i_glide_energy>  (31) 
-20.7966

>  <r_i_glide_einternal>  (31) 
0

>  <r_i_glide_intrahb_reward>  (31) 
-0

>  <i_i_glide_confnum>  (31) 
2

>  <i_i_glide_posenum>  (31) 
30

>  <r_i_glide_eff_state_penalty>  (31) 
0

>  <ligand_id>  (31) 
11

>  <original_smiles>  (31) 
c1cc2c(cn1)CNC2

>  <smiles>  (31) 
[H]c1nc([H])c2c(c1[H])C([H])([H])[N+]([H])([H])C2([H])[H]

$$$$
11:1:0
     RDKit          3D

 17 18  0  0  1  0  0  0  0  0999 V2000
    2.8459   -2.4286   -3.7611 C   0  0  0  0  0  0  0  0  0  0  0  0
    3.2184   -1.5533   -2.7198 C   0  0  0  0  0  0  0  0  0  0  0  0
    4.4485   -1.8124   -2.1012 C   0  0  0  0  0  0  0  0  0  0  0  0
    5.2407   -2.8545   -2.5139 C   0  0  0  0  0  0  0  0  0  0  0  0
    4.8026   -3.6865   -3.5568 C   0  0  0  0  0  0  0  0  0  0  0  0
    3.6236   -3.4551   -4.1862 N   0  0  0  0  0  0  0  0  0  0  0  0
    6.5007   -2.8835   -1.6985 C   0  0  0  0  0  0  0  0  0  0  0  0
    6.3193   -1.8602   -0.6596 N   0  0  0  0  0  0  0  0  0  0  0  0
    5.1037   -1.0906   -0.9773 C   0  0  0  0  0  0  0  0  0  0  0  0
    1.8989   -2.3096   -4.2719 H   0  0  0  0  0  0  0  0  0  0  0  0
    2.5832   -0.7424   -2.3869 H   0  0  0  0  0  0  0  0  0  0  0  0
    5.3899   -4.5172   -3.9092 H   0  0  0  0  0  0  0  0  0  0  0  0
    6.6733   -3.8576   -1.2522 H   0  0  0  0  0  0  0  0  0  0  0  0
    7.3536   -2.6459   -2.3344 H   0  0  0  0  0  0  0  0  0  0  0  0
    6.2219   -2.3111    0.2397 H   0  0  0  0  0  0  0  0  0  0  0  0
    5.3749   -0.1070   -1.3400 H   0  0  0  0  0  0  0  0  0  0  0  0
    4.4533   -0.9898   -0.1087 H   0  0  0  0  0  0  0  0  0  0  0  0
  1  6  2  0
  1  2  1  0
  1 10  1  0
  2  3  2  0
  2 11  1  0
  3  9  1  0
  3  4  1  0
  4  5  2  0
  4  7  1  0
  5  6  1  0
  5 12  1  0
  7  8  1  0
  7 13  1  0
  7 14  1  0
  8  9  1  0
  8 15  1  0
  9 16  1  0
  9 17  1  0
M  END
>  <i_m_ct_stereo_status>  (32) 
1

>  <s_m_source_file>  (32) 
/var/tmp/pbs.5076255.sched01/tmpmjg_sug8/0d5zvyqle.sdf

>  <i_m_source_file_index>  (32) 
15

>  <i_lp_mmshare_version>  (32) 
48012

>  <i_f3d_flags>  (32) 
0

>  <s_epik_input>  (32) 
W2NIXTFbY0hdbltjSF1jKGMxMilbQ0gyXVtOSF1bQ0gyXTI=

>  <s_epik_cmdline>  (32) 
J2VwaWtfcHl0aG9uJywgJy1waHQnLCAnMi4wJywgJy1waCcsICc3LjAnLCAnLXRuJywgJzgnLCAnLW1hJywgJzIwMCcsICctaW1hZScsICc8aW5maWxlLm1hZT4nLCAnLW9tYWUnLCAnPG91dGZpbGUubWFlPic=

>  <r_epik_Ionization_Penalty>  (32) 
1.55408

>  <r_epik_Ionization_Penalty_Charging>  (32) 
0

>  <r_epik_Ionization_Penalty_Neutral>  (32) 
1.55408

>  <r_epik_State_Penalty>  (32) 
1.61549

>  <r_epik_Charging_Adjusted_Penalty>  (32) 
1.61549

>  <i_epik_Tot_Q>  (32) 
0

>  <i_epik_Tot_abs_Q>  (32) 
0

>  <s_lp_Force_Field>  (32) 
OPLS3e

>  <r_lp_Energy>  (32) 
16.2107

>  <b_lp_Chiralities_Consistent>  (32) 
1

>  <s_lp_Variant>  (32) 
11:0-2

>  <s_i_glide_gridfile>  (32) 
pfpi4k_grid

>  <i_i_glide_lignum>  (32) 
15

>  <i_i_glide_rotatable_bonds>  (32) 
0

>  <r_i_docking_score>  (32) 
-4.29217

>  <r_i_glide_ligand_efficiency>  (32) 
-0.476908

>  <r_i_glide_ligand_efficiency_sa>  (32) 
-0.992008

>  <r_i_glide_ligand_efficiency_ln>  (32) 
-1.34247

>  <r_i_glide_gscore>  (32) 
-4.29217

>  <r_i_glide_lipo>  (32) 
-0.494166

>  <r_i_glide_hbond>  (32) 
-0.178754

>  <r_i_glide_metal>  (32) 
-0

>  <r_i_glide_rewards>  (32) 
-2.25

>  <r_i_glide_evdw>  (32) 
-15.2689

>  <r_i_glide_ecoul>  (32) 
-4.03869

>  <r_i_glide_erotb>  (32) 
0

>  <r_i_glide_esite>  (32) 
0

>  <r_i_glide_emodel>  (32) 
-24.9437

>  <r_i_glide_energy>  (32) 
-19.3076

>  <r_i_glide_einternal>  (32) 
0

>  <r_i_glide_intrahb_reward>  (32) 
-0

>  <i_i_glide_confnum>  (32) 
2

>  <i_i_glide_posenum>  (32) 
23

>  <r_i_glide_eff_state_penalty>  (32) 
0

>  <ligand_id>  (32) 
11

>  <original_smiles>  (32) 
c1cc2c(cn1)CNC2

>  <smiles>  (32) 
[H]c1nc([H])c2c(c1[H])C([H])([H])N([H])C2([H])[H]

$$$$
11:1:1
     RDKit          3D

 17 18  0  0  1  0  0  0  0  0999 V2000
    1.7166   -6.3197    1.6069 C   0  0  0  0  0  0  0  0  0  0  0  0
    2.4619   -7.4692    1.9607 C   0  0  0  0  0  0  0  0  0  0  0  0
    1.7227   -8.5776    2.3930 C   0  0  0  0  0  0  0  0  0  0  0  0
    0.3533   -8.5157    2.4718 C   0  0  0  0  0  0  0  0  0  0  0  0
   -0.3270   -7.3480    2.0870 C   0  0  0  0  0  0  0  0  0  0  0  0
    0.3560   -6.2596    1.6555 N   0  0  0  0  0  0  0  0  0  0  0  0
   -0.1857   -9.8399    2.9301 C   0  0  0  0  0  0  0  0  0  0  0  0
    0.9968  -10.6255    3.3150 N   0  0  0  0  0  0  0  0  0  0  0  0
    2.2002   -9.9384    2.8168 C   0  0  0  0  0  0  0  0  0  0  0  0
    2.2238   -5.4271    1.2688 H   0  0  0  0  0  0  0  0  0  0  0  0
    3.5436   -7.5042    1.9016 H   0  0  0  0  0  0  0  0  0  0  0  0
   -1.4069   -7.2732    2.1156 H   0  0  0  0  0  0  0  0  0  0  0  0
   -0.8728   -9.7226    3.7620 H   0  0  0  0  0  0  0  0  0  0  0  0
   -0.7203  -10.3074    2.1064 H   0  0  0  0  0  0  0  0  0  0  0  0
    1.0131  -10.7763    4.3177 H   0  0  0  0  0  0  0  0  0  0  0  0
    2.6311  -10.4607    1.9567 H   0  0  0  0  0  0  0  0  0  0  0  0
    2.9478   -9.8639    3.6060 H   0  0  0  0  0  0  0  0  0  0  0  0
  1  6  2  0
  1  2  1  0
  1 10  1  0
  2  3  2  0
  2 11  1  0
  3  9  1  0
  3  4  1  0
  4  5  2  0
  4  7  1  0
  5  6  1  0
  5 12  1  0
  7  8  1  0
  7 13  1  0
  7 14  1  0
  8  9  1  0
  8 15  1  0
  9 16  1  0
  9 17  1  0
M  END
>  <i_m_ct_stereo_status>  (33) 
1

>  <s_m_source_file>  (33) 
/var/tmp/pbs.5076255.sched01/tmpmjg_sug8/0d5zvyqle.sdf

>  <i_m_source_file_index>  (33) 
15

>  <i_lp_mmshare_version>  (33) 
48012

>  <i_f3d_flags>  (33) 
0

>  <s_epik_input>  (33) 
W2NIXTFbY0hdbltjSF1jKGMxMilbQ0gyXVtOSF1bQ0gyXTI=

>  <s_epik_cmdline>  (33) 
J2VwaWtfcHl0aG9uJywgJy1waHQnLCAnMi4wJywgJy1waCcsICc3LjAnLCAnLXRuJywgJzgnLCAnLW1hJywgJzIwMCcsICctaW1hZScsICc8aW5maWxlLm1hZT4nLCAnLW9tYWUnLCAnPG91dGZpbGUubWFlPic=

>  <r_epik_Ionization_Penalty>  (33) 
1.55408

>  <r_epik_Ionization_Penalty_Charging>  (33) 
0

>  <r_epik_Ionization_Penalty_Neutral>  (33) 
1.55408

>  <r_epik_State_Penalty>  (33) 
1.61549

>  <r_epik_Charging_Adjusted_Penalty>  (33) 
1.61549

>  <i_epik_Tot_Q>  (33) 
0

>  <i_epik_Tot_abs_Q>  (33) 
0

>  <s_lp_Force_Field>  (33) 
OPLS3e

>  <r_lp_Energy>  (33) 
16.2107

>  <b_lp_Chiralities_Consistent>  (33) 
1

>  <s_lp_Variant>  (33) 
11:0-2

>  <s_i_glide_gridfile>  (33) 
pfpi4k_grid

>  <i_i_glide_lignum>  (33) 
15

>  <i_i_glide_rotatable_bonds>  (33) 
0

>  <r_i_docking_score>  (33) 
-3.69711

>  <r_i_glide_ligand_efficiency>  (33) 
-0.41079

>  <r_i_glide_ligand_efficiency_sa>  (33) 
-0.854477

>  <r_i_glide_ligand_efficiency_ln>  (33) 
-1.15635

>  <r_i_glide_gscore>  (33) 
-3.69711

>  <r_i_glide_lipo>  (33) 
-0.0358601

>  <r_i_glide_hbond>  (33) 
-0.22455

>  <r_i_glide_metal>  (33) 
-0

>  <r_i_glide_rewards>  (33) 
-2.25

>  <r_i_glide_evdw>  (33) 
-12.3259

>  <r_i_glide_ecoul>  (33) 
-3.80267

>  <r_i_glide_erotb>  (33) 
0

>  <r_i_glide_esite>  (33) 
0

>  <r_i_glide_emodel>  (33) 
-20.9848

>  <r_i_glide_energy>  (33) 
-16.1286

>  <r_i_glide_einternal>  (33) 
0

>  <r_i_glide_intrahb_reward>  (33) 
-0

>  <i_i_glide_confnum>  (33) 
2

>  <i_i_glide_posenum>  (33) 
6

>  <r_i_glide_eff_state_penalty>  (33) 
0

>  <ligand_id>  (33) 
11

>  <original_smiles>  (33) 
c1cc2c(cn1)CNC2

>  <smiles>  (33) 
[H]c1nc([H])c2c(c1[H])C([H])([H])N([H])C2([H])[H]

$$$$
11:1:2
     RDKit          3D

 17 18  0  0  1  0  0  0  0  0999 V2000
   -0.6935   -7.8663    2.1780 C   0  0  0  0  0  0  0  0  0  0  0  0
   -0.7307   -8.7943    3.2396 C   0  0  0  0  0  0  0  0  0  0  0  0
   -0.1284   -8.3958    4.4389 C   0  0  0  0  0  0  0  0  0  0  0  0
    0.4565   -7.1561    4.5492 C   0  0  0  0  0  0  0  0  0  0  0  0
    0.4603   -6.2809    3.4507 C   0  0  0  0  0  0  0  0  0  0  0  0
   -0.1286   -6.6321    2.2752 N   0  0  0  0  0  0  0  0  0  0  0  0
    1.0209   -6.9915    5.9329 C   0  0  0  0  0  0  0  0  0  0  0  0
    0.8706   -8.3050    6.5795 N   0  0  0  0  0  0  0  0  0  0  0  0
    0.0145   -9.1437    5.7257 C   0  0  0  0  0  0  0  0  0  0  0  0
   -1.1459   -8.1080    1.2258 H   0  0  0  0  0  0  0  0  0  0  0  0
   -1.1895   -9.7678    3.1448 H   0  0  0  0  0  0  0  0  0  0  0  0
    0.9052   -5.2973    3.5111 H   0  0  0  0  0  0  0  0  0  0  0  0
    2.0656   -6.6833    5.9146 H   0  0  0  0  0  0  0  0  0  0  0  0
    0.4498   -6.2349    6.4730 H   0  0  0  0  0  0  0  0  0  0  0  0
    1.7690   -8.7521    6.7195 H   0  0  0  0  0  0  0  0  0  0  0  0
   -0.9686   -9.2889    6.1777 H   0  0  0  0  0  0  0  0  0  0  0  0
    0.4641  -10.1249    5.5712 H   0  0  0  0  0  0  0  0  0  0  0  0
  1  6  2  0
  1  2  1  0
  1 10  1  0
  2  3  2  0
  2 11  1  0
  3  9  1  0
  3  4  1  0
  4  5  2  0
  4  7  1  0
  5  6  1  0
  5 12  1  0
  7  8  1  0
  7 13  1  0
  7 14  1  0
  8  9  1  0
  8 15  1  0
  9 16  1  0
  9 17  1  0
M  END
>  <i_m_ct_stereo_status>  (34) 
1

>  <s_m_source_file>  (34) 
/var/tmp/pbs.5076255.sched01/tmpmjg_sug8/0d5zvyqle.sdf

>  <i_m_source_file_index>  (34) 
15

>  <i_lp_mmshare_version>  (34) 
48012

>  <i_f3d_flags>  (34) 
0

>  <s_epik_input>  (34) 
W2NIXTFbY0hdbltjSF1jKGMxMilbQ0gyXVtOSF1bQ0gyXTI=

>  <s_epik_cmdline>  (34) 
J2VwaWtfcHl0aG9uJywgJy1waHQnLCAnMi4wJywgJy1waCcsICc3LjAnLCAnLXRuJywgJzgnLCAnLW1hJywgJzIwMCcsICctaW1hZScsICc8aW5maWxlLm1hZT4nLCAnLW9tYWUnLCAnPG91dGZpbGUubWFlPic=

>  <r_epik_Ionization_Penalty>  (34) 
1.55408

>  <r_epik_Ionization_Penalty_Charging>  (34) 
0

>  <r_epik_Ionization_Penalty_Neutral>  (34) 
1.55408

>  <r_epik_State_Penalty>  (34) 
1.61549

>  <r_epik_Charging_Adjusted_Penalty>  (34) 
1.61549

>  <i_epik_Tot_Q>  (34) 
0

>  <i_epik_Tot_abs_Q>  (34) 
0

>  <s_lp_Force_Field>  (34) 
OPLS3e

>  <r_lp_Energy>  (34) 
16.2107

>  <b_lp_Chiralities_Consistent>  (34) 
1

>  <s_lp_Variant>  (34) 
11:0-2

>  <s_i_glide_gridfile>  (34) 
pfpi4k_grid

>  <i_i_glide_lignum>  (34) 
15

>  <i_i_glide_rotatable_bonds>  (34) 
0

>  <r_i_docking_score>  (34) 
-3.63269

>  <r_i_glide_ligand_efficiency>  (34) 
-0.403632

>  <r_i_glide_ligand_efficiency_sa>  (34) 
-0.839589

>  <r_i_glide_ligand_efficiency_ln>  (34) 
-1.1362

>  <r_i_glide_gscore>  (34) 
-3.63269

>  <r_i_glide_lipo>  (34) 
0

>  <r_i_glide_hbond>  (34) 
-0.16

>  <r_i_glide_metal>  (34) 
-0

>  <r_i_glide_rewards>  (34) 
-2.25

>  <r_i_glide_evdw>  (34) 
-10.4138

>  <r_i_glide_ecoul>  (34) 
-4.67999

>  <r_i_glide_erotb>  (34) 
0

>  <r_i_glide_esite>  (34) 
0

>  <r_i_glide_emodel>  (34) 
-19.8651

>  <r_i_glide_energy>  (34) 
-15.0938

>  <r_i_glide_einternal>  (34) 
0

>  <r_i_glide_intrahb_reward>  (34) 
-0

>  <i_i_glide_confnum>  (34) 
1

>  <i_i_glide_posenum>  (34) 
2

>  <r_i_glide_eff_state_penalty>  (34) 
0

>  <ligand_id>  (34) 
11

>  <original_smiles>  (34) 
c1cc2c(cn1)CNC2

>  <smiles>  (34) 
[H]c1nc([H])c2c(c1[H])C([H])([H])N([H])C2([H])[H]

$$$$
12:0:0
     RDKit          3D

 87 92  0  0  1  0  0  0  0  0999 V2000
    0.8472  -10.2229    4.8167 C   0  0  0  0  0  0  0  0  0  0  0  0
    1.8230   -9.1991    4.2104 C   0  0  0  0  0  0  0  0  0  0  0  0
    3.2386   -9.5499    4.7350 C   0  0  0  0  0  0  0  0  0  0  0  0
    1.7622   -9.2961    2.6721 C   0  0  0  0  0  0  0  0  0  0  0  0
    2.5934   -8.2024    1.9757 C   0  0  0  0  0  0  0  0  0  0  0  0
    2.1942   -6.7605    2.3911 C   0  0  2  0  0  0  0  0  0  0  0  0
    0.8097   -6.4187    1.7478 C   0  0  0  0  0  0  0  0  0  0  0  0
   -0.1832   -6.2631    2.4846 O   0  0  0  0  0  0  0  0  0  0  0  0
    0.7468   -6.2573    0.5082 O   0  0  0  0  0  0  0  0  0  0  0  0
    3.2624   -5.7712    1.8670 C   0  0  0  0  0  0  0  0  0  0  0  0
    2.9697   -4.3093    2.2569 C   0  0  0  0  0  0  0  0  0  0  0  0
    2.7899   -4.0740    3.7857 C   0  0  2  0  0  0  0  0  0  0  0  0
    2.0132   -5.2038    4.4802 C   0  0  0  0  0  0  0  0  0  0  0  0
    1.3280   -4.9275    5.6080 C   0  0  0  0  0  0  0  0  0  0  0  0
    1.3880   -3.6267    6.2446 C   0  0  0  0  0  0  0  0  0  0  0  0
    1.8767   -2.5111    5.6468 C   0  0  0  0  0  0  0  0  0  0  0  0
    2.2541   -2.6273    4.1524 C   0  0  2  0  0  0  0  0  0  0  0  0
    0.9538   -2.3460    3.3668 C   0  0  0  0  0  0  0  0  0  0  0  0
    3.3063   -1.5825    3.7536 C   0  0  0  0  0  0  0  0  0  0  0  0
    2.9720   -0.1805    4.2460 C   0  0  0  0  0  0  0  0  0  0  0  0
    3.0257   -0.1086    5.7958 C   0  0  2  0  0  0  0  0  0  0  0  0
    1.9889   -1.1340    6.4070 C   0  0  2  0  0  0  0  0  0  0  0  0
    2.3930   -1.4117    7.8950 C   0  0  0  0  0  0  0  0  0  0  0  0
    0.5917   -0.4638    6.3845 C   0  0  0  0  0  0  0  0  0  0  0  0
   -0.4460   -1.1111    6.2140 O   0  0  0  0  0  0  0  0  0  0  0  0
    0.4687    1.0221    6.7254 C   0  0  0  0  0  0  0  0  0  0  0  0
    1.5303    1.9842    6.1075 C   0  0  1  0  0  0  0  0  0  0  0  0
    1.3185    3.4695    6.6148 C   0  0  0  0  0  0  0  0  0  0  0  0
    2.0561    4.4969    5.7147 C   0  0  0  0  0  0  0  0  0  0  0  0
   -0.1729    3.8839    6.4903 C   0  0  0  0  0  0  0  0  0  0  0  0
    1.8129    3.6645    8.0810 C   0  0  1  0  0  0  0  0  0  0  0  0
    0.9090    3.1333    9.0301 O   0  0  0  0  0  0  0  0  0  0  0  0
    3.1923    3.0403    8.3552 C   0  0  0  0  0  0  0  0  0  0  0  0
    3.3179    1.5913    7.8288 C   0  0  0  0  0  0  0  0  0  0  0  0
    2.9702    1.4033    6.3171 C   0  0  1  0  0  0  0  0  0  0  0  0
    4.0785    2.1613    5.5246 C   0  0  0  0  0  0  0  0  0  0  0  0
    2.2257   -6.6405    3.9480 C   0  0  1  0  0  0  0  0  0  0  0  0
    1.4087   -7.7719    4.6508 C   0  0  0  0  0  0  0  0  0  0  0  0
    1.1007  -11.2434    4.5291 H   0  0  0  0  0  0  0  0  0  0  0  0
   -0.1700  -10.0326    4.4763 H   0  0  0  0  0  0  0  0  0  0  0  0
    0.8425  -10.1819    5.9055 H   0  0  0  0  0  0  0  0  0  0  0  0
    4.0104   -8.9007    4.3217 H   0  0  0  0  0  0  0  0  0  0  0  0
    3.5155  -10.5757    4.4782 H   0  0  0  0  0  0  0  0  0  0  0  0
    3.2874   -9.4532    5.8224 H   0  0  0  0  0  0  0  0  0  0  0  0
    2.0925  -10.2800    2.3396 H   0  0  0  0  0  0  0  0  0  0  0  0
    0.7251   -9.2135    2.3485 H   0  0  0  0  0  0  0  0  0  0  0  0
    3.6522   -8.3686    2.1703 H   0  0  0  0  0  0  0  0  0  0  0  0
    2.4817   -8.3260    0.9014 H   0  0  0  0  0  0  0  0  0  0  0  0
    4.2436   -6.0530    2.2482 H   0  0  0  0  0  0  0  0  0  0  0  0
    3.3413   -5.8431    0.7824 H   0  0  0  0  0  0  0  0  0  0  0  0
    3.7803   -3.6815    1.8770 H   0  0  0  0  0  0  0  0  0  0  0  0
    2.0853   -4.0035    1.7030 H   0  0  0  0  0  0  0  0  0  0  0  0
    3.7869   -4.1627    4.2105 H   0  0  0  0  0  0  0  0  0  0  0  0
    0.8256   -5.7186    6.1387 H   0  0  0  0  0  0  0  0  0  0  0  0
    1.0419   -3.5900    7.2654 H   0  0  0  0  0  0  0  0  0  0  0  0
    1.1269   -2.1830    2.3033 H   0  0  0  0  0  0  0  0  0  0  0  0
    0.4307   -1.4617    3.7267 H   0  0  0  0  0  0  0  0  0  0  0  0
    0.2560   -3.1779    3.4754 H   0  0  0  0  0  0  0  0  0  0  0  0
    4.2866   -1.8639    4.1376 H   0  0  0  0  0  0  0  0  0  0  0  0
    3.3997   -1.5475    2.6671 H   0  0  0  0  0  0  0  0  0  0  0  0
    3.6923    0.4770    3.7609 H   0  0  0  0  0  0  0  0  0  0  0  0
    1.9968    0.1301    3.8704 H   0  0  0  0  0  0  0  0  0  0  0  0
    4.0174   -0.4758    6.0612 H   0  0  0  0  0  0  0  0  0  0  0  0
    2.4924   -2.4562    8.1753 H   0  0  0  0  0  0  0  0  0  0  0  0
    1.6929   -0.9760    8.6069 H   0  0  0  0  0  0  0  0  0  0  0  0
    3.3814   -1.0228    8.1286 H   0  0  0  0  0  0  0  0  0  0  0  0
   -0.5277    1.3272    6.4075 H   0  0  0  0  0  0  0  0  0  0  0  0
    0.4702    1.0909    7.8111 H   0  0  0  0  0  0  0  0  0  0  0  0
    1.3259    1.9956    5.0379 H   0  0  0  0  0  0  0  0  0  0  0  0
    1.6378    5.5013    5.8137 H   0  0  0  0  0  0  0  0  0  0  0  0
    2.0073    4.2264    4.6583 H   0  0  0  0  0  0  0  0  0  0  0  0
    3.1019    4.6087    5.9850 H   0  0  0  0  0  0  0  0  0  0  0  0
   -0.3238    4.9308    6.7587 H   0  0  0  0  0  0  0  0  0  0  0  0
   -0.8240    3.3126    7.1519 H   0  0  0  0  0  0  0  0  0  0  0  0
   -0.5364    3.7443    5.4702 H   0  0  0  0  0  0  0  0  0  0  0  0
    1.8714    4.7342    8.2880 H   0  0  0  0  0  0  0  0  0  0  0  0
    1.2063    3.3702    9.8955 H   0  0  0  0  0  0  0  0  0  0  0  0
    3.9655    3.6761    7.9334 H   0  0  0  0  0  0  0  0  0  0  0  0
    3.3905    3.0515    9.4283 H   0  0  0  0  0  0  0  0  0  0  0  0
    4.3143    1.2001    8.0441 H   0  0  0  0  0  0  0  0  0  0  0  0
    2.6227    1.0345    8.4461 H   0  0  0  0  0  0  0  0  0  0  0  0
    4.4939    3.0231    6.0314 H   0  0  0  0  0  0  0  0  0  0  0  0
    3.7227    2.5108    4.5542 H   0  0  0  0  0  0  0  0  0  0  0  0
    4.9432    1.5195    5.3492 H   0  0  0  0  0  0  0  0  0  0  0  0
    3.2603   -6.8189    4.2339 H   0  0  0  0  0  0  0  0  0  0  0  0
    0.3492   -7.6425    4.4432 H   0  0  0  0  0  0  0  0  0  0  0  0
    1.4986   -7.7109    5.7343 H   0  0  0  0  0  0  0  0  0  0  0  0
  1  2  1  0
  1 39  1  0
  1 40  1  0
  1 41  1  0
  2 38  1  0
  2  3  1  0
  2  4  1  0
  3 42  1  0
  3 43  1  0
  3 44  1  0
  4  5  1  0
  4 45  1  0
  4 46  1  0
  5  6  1  0
  5 47  1  0
  5 48  1  0
  6 37  1  0
  6  7  1  6
  6 10  1  0
  7  8  2  0
  7  9  1  0
 10 11  1  0
 10 49  1  0
 10 50  1  0
 11 12  1  0
 11 51  1  0
 11 52  1  0
 12 17  1  0
 12 13  1  0
 12 53  1  1
 13 14  2  0
 13 37  1  0
 14 15  1  0
 14 54  1  0
 15 16  2  0
 15 55  1  0
 16 22  1  0
 16 17  1  0
 17 18  1  6
 17 19  1  0
 18 56  1  0
 18 57  1  0
 18 58  1  0
 19 20  1  0
 19 59  1  0
 19 60  1  0
 20 21  1  0
 20 61  1  0
 20 62  1  0
 21 35  1  0
 21 22  1  0
 21 63  1  1
 22 23  1  1
 22 24  1  0
 23 64  1  0
 23 65  1  0
 23 66  1  0
 24 25  2  0
 24 26  1  0
 26 27  1  0
 26 67  1  0
 26 68  1  0
 27 35  1  0
 27 28  1  0
 27 69  1  6
 28 29  1  0
 28 30  1  0
 28 31  1  0
 29 70  1  0
 29 71  1  0
 29 72  1  0
 30 73  1  0
 30 74  1  0
 30 75  1  0
 31 32  1  0
 31 33  1  0
 31 76  1  1
 32 77  1  0
 33 34  1  0
 33 78  1  0
 33 79  1  0
 34 35  1  0
 34 80  1  0
 34 81  1  0
 35 36  1  6
 36 82  1  0
 36 83  1  0
 36 84  1  0
 37 38  1  0
 37 85  1  1
 38 86  1  0
 38 87  1  0
M  CHG  1   9  -1
M  END
>  <i_m_ct_stereo_status>  (35) 
1

>  <s_m_source_file>  (35) 
/var/tmp/pbs.5076255.sched01/tmpmjg_sug8/0d5zvyqle.sdf

>  <i_m_source_file_index>  (35) 
16

>  <i_lp_mmshare_version>  (35) 
48012

>  <i_f3d_flags>  (35) 
0

>  <s_epik_input>  (35) 
W0NIMl0xW0NIMl1DKFtDSDNdKShbQ0gzXSlbQ0gyXVtDQEBIXShbQ0BdMTJDKD1PKVtPSF0pQz0zW0NAQEhdKFtDSDJdW0NIMl0yKVtDQEBdNChbQ0gzXSlDKD1bQ0hdW0NIXTMpW0NAQF01KFtDSDNdKVtDQEBIXShbQ0gyXVtDSDJdNClbQ0BAXTYoW0NIM10pW0NAQEhdKFtDSDJdQzU9TylDKFtDSDNdKShbQ0gzXSlbQ0BASF0oW09IXSlbQ0gyXVtDSDJdNg==

>  <s_epik_cmdline>  (35) 
J2VwaWtfcHl0aG9uJywgJy1waHQnLCAnMi4wJywgJy1waCcsICc3LjAnLCAnLXRuJywgJzgnLCAnLW1hJywgJzIwMCcsICctaW1hZScsICc8aW5maWxlLm1hZT4nLCAnLW9tYWUnLCAnPG91dGZpbGUubWFlPic=

>  <r_lp_tautomer_probability>  (35) 
0.99995

>  <r_epik_Ionization_Penalty>  (35) 
0.00571523

>  <r_epik_Ionization_Penalty_Charging>  (35) 
0.00571356

>  <r_epik_Ionization_Penalty_Neutral>  (35) 
1.6721e-06

>  <r_epik_State_Penalty>  (35) 
0.00419167

>  <r_epik_Charging_Adjusted_Penalty>  (35) 
0.00990522

>  <i_epik_Tot_Q>  (35) 
-1

>  <i_epik_Tot_abs_Q>  (35) 
1

>  <s_lp_Force_Field>  (35) 
OPLS3e

>  <r_lp_Energy>  (35) 
98.3885

>  <b_lp_Chiralities_Consistent>  (35) 
1

>  <s_lp_Variant>  (35) 
12:0-1

>  <s_i_glide_gridfile>  (35) 
pfpi4k_grid

>  <i_i_glide_lignum>  (35) 
16

>  <i_i_glide_rotatable_bonds>  (35) 
2

>  <r_i_docking_score>  (35) 
-2.77286

>  <r_i_glide_ligand_efficiency>  (35) 
-0.0729699

>  <r_i_glide_ligand_efficiency_sa>  (35) 
-0.245323

>  <r_i_glide_ligand_efficiency_ln>  (35) 
-0.597909

>  <r_i_glide_gscore>  (35) 
-2.77286

>  <r_i_glide_lipo>  (35) 
-0.112294

>  <r_i_glide_hbond>  (35) 
-0.445533

>  <r_i_glide_metal>  (35) 
-0

>  <r_i_glide_rewards>  (35) 
0

>  <r_i_glide_evdw>  (35) 
-22.3461

>  <r_i_glide_ecoul>  (35) 
-6.64191

>  <r_i_glide_erotb>  (35) 
0

>  <r_i_glide_esite>  (35) 
-0.101437

>  <r_i_glide_emodel>  (35) 
-36.1853

>  <r_i_glide_energy>  (35) 
-28.988

>  <r_i_glide_einternal>  (35) 
0.707048

>  <r_i_glide_intrahb_reward>  (35) 
-0

>  <i_i_glide_confnum>  (35) 
1

>  <i_i_glide_posenum>  (35) 
10

>  <r_i_glide_eff_state_penalty>  (35) 
0

>  <ligand_id>  (35) 
12

>  <original_smiles>  (35) 
CC1(C)CCC2(C(=O)O)CCC3C(=CC=C4C3(C)CCC3C4(C)C(=O)CC4C(C)(C)C(O)CCC34C)C2C1

>  <smiles>  (35) 
[H]OC1([H])C([H])([H])C([H])([H])C2(C([H])([H])[H])C3([H])C([H])([H])C([H])([H])C4(C([H])([H])[H])C(=C([H])C([H])=C5C4([H])C([H])([H])C([H])([H])C4(C(=O)[O-])C([H])([H])C([H])([H])C(C([H])([H])[H])(C([H])([H])[H])C([H])([H])C54[H])C3(C([H])([H])[H])C(=O)C([H])([H])C2([H])C1(C([H])([H])[H])C([H])([H])[H]

$$$$
12:0:1
     RDKit          3D

 87 92  0  0  1  0  0  0  0  0999 V2000
   -1.2033   -9.0099    3.0471 C   0  0  0  0  0  0  0  0  0  0  0  0
    0.2163   -8.5333    3.4065 C   0  0  0  0  0  0  0  0  0  0  0  0
    0.6594   -9.2672    4.6947 C   0  0  0  0  0  0  0  0  0  0  0  0
    1.1616   -8.8698    2.2316 C   0  0  0  0  0  0  0  0  0  0  0  0
    2.5720   -8.2743    2.3865 C   0  0  0  0  0  0  0  0  0  0  0  0
    2.5761   -6.7306    2.5870 C   0  0  2  0  0  0  0  0  0  0  0  0
    2.2239   -6.0338    1.2278 C   0  0  0  0  0  0  0  0  0  0  0  0
    3.1823   -5.7275    0.4759 O   0  0  0  0  0  0  0  0  0  0  0  0
    1.0198   -5.8636    0.9106 O   0  0  0  0  0  0  0  0  0  0  0  0
    3.9946   -6.3087    3.0534 C   0  0  0  0  0  0  0  0  0  0  0  0
    4.1201   -4.7984    3.3229 C   0  0  0  0  0  0  0  0  0  0  0  0
    3.0769   -4.2453    4.3329 C   0  0  2  0  0  0  0  0  0  0  0  0
    1.6860   -4.8852    4.1824 C   0  0  0  0  0  0  0  0  0  0  0  0
    0.6074   -4.1872    4.5885 C   0  0  0  0  0  0  0  0  0  0  0  0
    0.7173   -2.9002    5.2378 C   0  0  0  0  0  0  0  0  0  0  0  0
    1.8505   -2.1589    5.2633 C   0  0  0  0  0  0  0  0  0  0  0  0
    3.0304   -2.6613    4.3938 C   0  0  2  0  0  0  0  0  0  0  0  0
    2.7954   -2.0905    2.9684 C   0  0  0  0  0  0  0  0  0  0  0  0
    4.3713   -2.1468    4.9359 C   0  0  0  0  0  0  0  0  0  0  0  0
    4.3610   -0.6558    5.2355 C   0  0  0  0  0  0  0  0  0  0  0  0
    3.4096   -0.3312    6.4168 C   0  0  2  0  0  0  0  0  0  0  0  0
    1.9436   -0.7946    6.0516 C   0  0  2  0  0  0  0  0  0  0  0  0
    1.1169   -0.9268    7.3755 C   0  0  0  0  0  0  0  0  0  0  0  0
    1.2989    0.3042    5.1701 C   0  0  0  0  0  0  0  0  0  0  0  0
    0.5089    0.0325    4.2644 O   0  0  0  0  0  0  0  0  0  0  0  0
    1.5586    1.7752    5.5065 C   0  0  0  0  0  0  0  0  0  0  0  0
    3.0197    2.1753    5.8819 C   0  0  1  0  0  0  0  0  0  0  0  0
    3.1126    3.7073    6.2811 C   0  0  0  0  0  0  0  0  0  0  0  0
    4.5715    4.2273    6.2464 C   0  0  0  0  0  0  0  0  0  0  0  0
    2.3784    4.5896    5.2371 C   0  0  0  0  0  0  0  0  0  0  0  0
    2.5371    3.9677    7.7095 C   0  0  1  0  0  0  0  0  0  0  0  0
    1.1223    3.9501    7.7371 O   0  0  0  0  0  0  0  0  0  0  0  0
    3.0236    2.9589    8.7663 C   0  0  0  0  0  0  0  0  0  0  0  0
    2.8989    1.4908    8.2962 C   0  0  0  0  0  0  0  0  0  0  0  0
    3.6017    1.1700    6.9376 C   0  0  1  0  0  0  0  0  0  0  0  0
    5.1300    1.3342    7.1891 C   0  0  0  0  0  0  0  0  0  0  0  0
    1.6162   -6.3677    3.7626 C   0  0  1  0  0  0  0  0  0  0  0  0
    0.1923   -6.9972    3.6229 C   0  0  0  0  0  0  0  0  0  0  0  0
   -1.2262  -10.0874    2.8890 H   0  0  0  0  0  0  0  0  0  0  0  0
   -1.5704   -8.5407    2.1353 H   0  0  0  0  0  0  0  0  0  0  0  0
   -1.9042   -8.7854    3.8491 H   0  0  0  0  0  0  0  0  0  0  0  0
    1.6799   -9.0171    4.9830 H   0  0  0  0  0  0  0  0  0  0  0  0
    0.6189  -10.3542    4.5714 H   0  0  0  0  0  0  0  0  0  0  0  0
    0.0102   -9.0037    5.5338 H   0  0  0  0  0  0  0  0  0  0  0  0
    1.2237   -9.9505    2.0953 H   0  0  0  0  0  0  0  0  0  0  0  0
    0.7356   -8.4798    1.3110 H   0  0  0  0  0  0  0  0  0  0  0  0
    3.0734   -8.7652    3.2220 H   0  0  0  0  0  0  0  0  0  0  0  0
    3.1617   -8.5404    1.5118 H   0  0  0  0  0  0  0  0  0  0  0  0
    4.2724   -6.8571    3.9564 H   0  0  0  0  0  0  0  0  0  0  0  0
    4.7400   -6.6026    2.3156 H   0  0  0  0  0  0  0  0  0  0  0  0
    5.1336   -4.5807    3.6676 H   0  0  0  0  0  0  0  0  0  0  0  0
    4.0342   -4.2862    2.3697 H   0  0  0  0  0  0  0  0  0  0  0  0
    3.4039   -4.6004    5.3064 H   0  0  0  0  0  0  0  0  0  0  0  0
   -0.3598   -4.6487    4.5504 H   0  0  0  0  0  0  0  0  0  0  0  0
   -0.1686   -2.5639    5.7533 H   0  0  0  0  0  0  0  0  0  0  0  0
    3.6719   -2.1908    2.3268 H   0  0  0  0  0  0  0  0  0  0  0  0
    2.5570   -1.0285    2.9860 H   0  0  0  0  0  0  0  0  0  0  0  0
    1.9567   -2.5907    2.4797 H   0  0  0  0  0  0  0  0  0  0  0  0
    4.6462   -2.6841    5.8439 H   0  0  0  0  0  0  0  0  0  0  0  0
    5.1628   -2.3440    4.2119 H   0  0  0  0  0  0  0  0  0  0  0  0
    5.3988   -0.3943    5.4453 H   0  0  0  0  0  0  0  0  0  0  0  0
    4.0909   -0.0912    4.3445 H   0  0  0  0  0  0  0  0  0  0  0  0
    3.7368   -0.9712    7.2368 H   0  0  0  0  0  0  0  0  0  0  0  0
    0.6044   -1.8722    7.5262 H   0  0  0  0  0  0  0  0  0  0  0  0
    0.3592   -0.1507    7.4741 H   0  0  0  0  0  0  0  0  0  0  0  0
    1.7530   -0.8765    8.2559 H   0  0  0  0  0  0  0  0  0  0  0  0
    1.2325    2.3499    4.6391 H   0  0  0  0  0  0  0  0  0  0  0  0
    0.8686    2.0314    6.3067 H   0  0  0  0  0  0  0  0  0  0  0  0
    3.5940    2.0683    4.9633 H   0  0  0  0  0  0  0  0  0  0  0  0
    4.6119    5.3161    6.1502 H   0  0  0  0  0  0  0  0  0  0  0  0
    5.1247    3.8073    5.4060 H   0  0  0  0  0  0  0  0  0  0  0  0
    5.1162    4.0083    7.1577 H   0  0  0  0  0  0  0  0  0  0  0  0
    2.5020    5.6534    5.4517 H   0  0  0  0  0  0  0  0  0  0  0  0
    1.3042    4.4130    5.2154 H   0  0  0  0  0  0  0  0  0  0  0  0
    2.7622    4.4071    4.2306 H   0  0  0  0  0  0  0  0  0  0  0  0
    2.8364    4.9669    8.0304 H   0  0  0  0  0  0  0  0  0  0  0  0
    0.8423    4.0486    8.6354 H   0  0  0  0  0  0  0  0  0  0  0  0
    4.0443    3.1962    9.0501 H   0  0  0  0  0  0  0  0  0  0  0  0
    2.4501    3.0914    9.6864 H   0  0  0  0  0  0  0  0  0  0  0  0
    3.2599    0.8180    9.0796 H   0  0  0  0  0  0  0  0  0  0  0  0
    1.8308    1.3342    8.2162 H   0  0  0  0  0  0  0  0  0  0  0  0
    5.3904    2.0681    7.9397 H   0  0  0  0  0  0  0  0  0  0  0  0
    5.6662    1.6067    6.2800 H   0  0  0  0  0  0  0  0  0  0  0  0
    5.5622    0.4068    7.5686 H   0  0  0  0  0  0  0  0  0  0  0  0
    2.0500   -6.8478    4.6377 H   0  0  0  0  0  0  0  0  0  0  0  0
   -0.3355   -6.5387    2.7883 H   0  0  0  0  0  0  0  0  0  0  0  0
   -0.4167   -6.7933    4.5078 H   0  0  0  0  0  0  0  0  0  0  0  0
  1  2  1  0
  1 39  1  0
  1 40  1  0
  1 41  1  0
  2 38  1  0
  2  3  1  0
  2  4  1  0
  3 42  1  0
  3 43  1  0
  3 44  1  0
  4  5  1  0
  4 45  1  0
  4 46  1  0
  5  6  1  0
  5 47  1  0
  5 48  1  0
  6 37  1  0
  6  7  1  6
  6 10  1  0
  7  8  2  0
  7  9  1  0
 10 11  1  0
 10 49  1  0
 10 50  1  0
 11 12  1  0
 11 51  1  0
 11 52  1  0
 12 17  1  0
 12 13  1  0
 12 53  1  1
 13 14  2  0
 13 37  1  0
 14 15  1  0
 14 54  1  0
 15 16  2  0
 15 55  1  0
 16 22  1  0
 16 17  1  0
 17 18  1  6
 17 19  1  0
 18 56  1  0
 18 57  1  0
 18 58  1  0
 19 20  1  0
 19 59  1  0
 19 60  1  0
 20 21  1  0
 20 61  1  0
 20 62  1  0
 21 35  1  0
 21 22  1  0
 21 63  1  1
 22 23  1  1
 22 24  1  0
 23 64  1  0
 23 65  1  0
 23 66  1  0
 24 25  2  0
 24 26  1  0
 26 27  1  0
 26 67  1  0
 26 68  1  0
 27 35  1  0
 27 28  1  0
 27 69  1  6
 28 29  1  0
 28 30  1  0
 28 31  1  0
 29 70  1  0
 29 71  1  0
 29 72  1  0
 30 73  1  0
 30 74  1  0
 30 75  1  0
 31 32  1  0
 31 33  1  0
 31 76  1  1
 32 77  1  0
 33 34  1  0
 33 78  1  0
 33 79  1  0
 34 35  1  0
 34 80  1  0
 34 81  1  0
 35 36  1  1
 36 82  1  0
 36 83  1  0
 36 84  1  0
 37 38  1  0
 37 85  1  1
 38 86  1  0
 38 87  1  0
M  CHG  1   9  -1
M  END
>  <i_m_ct_stereo_status>  (36) 
1

>  <s_m_source_file>  (36) 
/var/tmp/pbs.5076255.sched01/tmpmjg_sug8/0d5zvyqle.sdf

>  <i_m_source_file_index>  (36) 
16

>  <i_lp_mmshare_version>  (36) 
48012

>  <i_f3d_flags>  (36) 
0

>  <s_epik_input>  (36) 
W0NIMl0xW0NIMl1DKFtDSDNdKShbQ0gzXSlbQ0gyXVtDQEBIXShbQ0BdMTJDKD1PKVtPSF0pQz0zW0NAQEhdKFtDSDJdW0NIMl0yKVtDQEBdNChbQ0gzXSlDKD1bQ0hdW0NIXTMpW0NAQF01KFtDSDNdKVtDQEBIXShbQ0gyXVtDSDJdNClbQ0BAXTYoW0NIM10pW0NAQEhdKFtDSDJdQzU9TylDKFtDSDNdKShbQ0gzXSlbQ0BASF0oW09IXSlbQ0gyXVtDSDJdNg==

>  <s_epik_cmdline>  (36) 
J2VwaWtfcHl0aG9uJywgJy1waHQnLCAnMi4wJywgJy1waCcsICc3LjAnLCAnLXRuJywgJzgnLCAnLW1hJywgJzIwMCcsICctaW1hZScsICc8aW5maWxlLm1hZT4nLCAnLW9tYWUnLCAnPG91dGZpbGUubWFlPic=

>  <r_lp_tautomer_probability>  (36) 
0.99995

>  <r_epik_Ionization_Penalty>  (36) 
0.00571523

>  <r_epik_Ionization_Penalty_Charging>  (36) 
0.00571356

>  <r_epik_Ionization_Penalty_Neutral>  (36) 
1.6721e-06

>  <r_epik_State_Penalty>  (36) 
0.00419167

>  <r_epik_Charging_Adjusted_Penalty>  (36) 
0.00990522

>  <i_epik_Tot_Q>  (36) 
-1

>  <i_epik_Tot_abs_Q>  (36) 
1

>  <s_lp_Force_Field>  (36) 
OPLS3e

>  <r_lp_Energy>  (36) 
98.3885

>  <b_lp_Chiralities_Consistent>  (36) 
1

>  <s_lp_Variant>  (36) 
12:0-1

>  <s_i_glide_gridfile>  (36) 
pfpi4k_grid

>  <i_i_glide_lignum>  (36) 
16

>  <i_i_glide_rotatable_bonds>  (36) 
2

>  <r_i_docking_score>  (36) 
-1.65902

>  <r_i_glide_ligand_efficiency>  (36) 
-0.0436585

>  <r_i_glide_ligand_efficiency_sa>  (36) 
-0.146779

>  <r_i_glide_ligand_efficiency_ln>  (36) 
-0.357734

>  <r_i_glide_gscore>  (36) 
-1.65902

>  <r_i_glide_lipo>  (36) 
-0.0220902

>  <r_i_glide_hbond>  (36) 
-0.2

>  <r_i_glide_metal>  (36) 
-0

>  <r_i_glide_rewards>  (36) 
0

>  <r_i_glide_evdw>  (36) 
-24.5834

>  <r_i_glide_ecoul>  (36) 
-1.19706

>  <r_i_glide_erotb>  (36) 
0

>  <r_i_glide_esite>  (36) 
-0.0282049

>  <r_i_glide_emodel>  (36) 
-28.5915

>  <r_i_glide_energy>  (36) 
-25.7804

>  <r_i_glide_einternal>  (36) 
2.74868

>  <r_i_glide_intrahb_reward>  (36) 
-0

>  <i_i_glide_confnum>  (36) 
1

>  <i_i_glide_posenum>  (36) 
1

>  <r_i_glide_eff_state_penalty>  (36) 
0

>  <ligand_id>  (36) 
12

>  <original_smiles>  (36) 
CC1(C)CCC2(C(=O)O)CCC3C(=CC=C4C3(C)CCC3C4(C)C(=O)CC4C(C)(C)C(O)CCC34C)C2C1

>  <smiles>  (36) 
[H]OC1([H])C([H])([H])C([H])([H])C2(C([H])([H])[H])C3([H])C([H])([H])C([H])([H])C4(C([H])([H])[H])C(=C([H])C([H])=C5C4([H])C([H])([H])C([H])([H])C4(C(=O)[O-])C([H])([H])C([H])([H])C(C([H])([H])[H])(C([H])([H])[H])C([H])([H])C54[H])C3(C([H])([H])[H])C(=O)C([H])([H])C2([H])C1(C([H])([H])[H])C([H])([H])[H]

$$$$
12:0:2
     RDKit          3D

 87 92  0  0  1  0  0  0  0  0999 V2000
   -0.3724   -7.5392    1.6939 C   0  0  0  0  0  0  0  0  0  0  0  0
    0.1772   -7.4737    3.1299 C   0  0  0  0  0  0  0  0  0  0  0  0
   -1.0369   -7.4351    4.0956 C   0  0  0  0  0  0  0  0  0  0  0  0
    1.0491   -8.7201    3.3907 C   0  0  0  0  0  0  0  0  0  0  0  0
    1.7801   -8.6577    4.7478 C   0  0  0  0  0  0  0  0  0  0  0  0
    2.6602   -7.3855    4.9249 C   0  0  2  0  0  0  0  0  0  0  0  0
    3.9185   -7.5079    4.0137 C   0  0  0  0  0  0  0  0  0  0  0  0
    4.1536   -6.6115    3.1725 O   0  0  0  0  0  0  0  0  0  0  0  0
    4.6519   -8.5040    4.1965 O   0  0  0  0  0  0  0  0  0  0  0  0
    3.1113   -7.2893    6.4011 C   0  0  0  0  0  0  0  0  0  0  0  0
    3.9763   -6.0472    6.6777 C   0  0  0  0  0  0  0  0  0  0  0  0
    3.3115   -4.6975    6.2704 C   0  0  2  0  0  0  0  0  0  0  0  0
    2.5215   -4.7818    4.9522 C   0  0  0  0  0  0  0  0  0  0  0  0
    2.3715   -3.6708    4.2056 C   0  0  0  0  0  0  0  0  0  0  0  0
    2.8262   -2.3732    4.6623 C   0  0  0  0  0  0  0  0  0  0  0  0
    3.6706   -2.1907    5.7075 C   0  0  0  0  0  0  0  0  0  0  0  0
    4.3024   -3.4606    6.3262 C   0  0  2  0  0  0  0  0  0  0  0  0
    5.5662   -3.7743    5.4835 C   0  0  0  0  0  0  0  0  0  0  0  0
    4.7179   -3.2217    7.7852 C   0  0  0  0  0  0  0  0  0  0  0  0
    5.5024   -1.9311    7.9801 C   0  0  0  0  0  0  0  0  0  0  0  0
    4.6101   -0.6919    7.7030 C   0  0  2  0  0  0  0  0  0  0  0  0
    4.0715   -0.7523    6.2190 C   0  0  2  0  0  0  0  0  0  0  0  0
    2.8219    0.1860    6.1041 C   0  0  0  0  0  0  0  0  0  0  0  0
    5.1909   -0.2193    5.2840 C   0  0  0  0  0  0  0  0  0  0  0  0
    5.3801   -0.6707    4.1586 O   0  0  0  0  0  0  0  0  0  0  0  0
    6.0188    0.9875    5.7354 C   0  0  0  0  0  0  0  0  0  0  0  0
    6.5041    1.0074    7.2157 C   0  0  1  0  0  0  0  0  0  0  0  0
    7.2791    2.3505    7.5500 C   0  0  0  0  0  0  0  0  0  0  0  0
    8.1253    2.2230    8.8458 C   0  0  0  0  0  0  0  0  0  0  0  0
    8.3276    2.6631    6.4504 C   0  0  0  0  0  0  0  0  0  0  0  0
    6.3072    3.5609    7.7198 C   0  0  1  0  0  0  0  0  0  0  0  0
    5.8442    4.0807    6.4895 O   0  0  0  0  0  0  0  0  0  0  0  0
    5.0803    3.2460    8.5951 C   0  0  0  0  0  0  0  0  0  0  0  0
    4.3836    1.9182    8.2080 C   0  0  0  0  0  0  0  0  0  0  0  0
    5.3163    0.6632    8.1805 C   0  0  1  0  0  0  0  0  0  0  0  0
    5.7523    0.4137    9.6564 C   0  0  0  0  0  0  0  0  0  0  0  0
    1.8005   -6.1153    4.6447 C   0  0  1  0  0  0  0  0  0  0  0  0
    1.0600   -6.2068    3.2766 C   0  0  0  0  0  0  0  0  0  0  0  0
   -0.9890   -8.4273    1.5538 H   0  0  0  0  0  0  0  0  0  0  0  0
    0.4348   -7.5911    0.9625 H   0  0  0  0  0  0  0  0  0  0  0  0
   -0.9846   -6.6712    1.4571 H   0  0  0  0  0  0  0  0  0  0  0  0
   -0.7312   -7.4257    5.1418 H   0  0  0  0  0  0  0  0  0  0  0  0
   -1.6810   -8.3082    3.9658 H   0  0  0  0  0  0  0  0  0  0  0  0
   -1.6443   -6.5438    3.9360 H   0  0  0  0  0  0  0  0  0  0  0  0
    0.4441   -9.6253    3.3367 H   0  0  0  0  0  0  0  0  0  0  0  0
    1.7898   -8.8159    2.5952 H   0  0  0  0  0  0  0  0  0  0  0  0
    1.0497   -8.7172    5.5547 H   0  0  0  0  0  0  0  0  0  0  0  0
    2.3846   -9.5593    4.8567 H   0  0  0  0  0  0  0  0  0  0  0  0
    2.2338   -7.2706    7.0503 H   0  0  0  0  0  0  0  0  0  0  0  0
    3.6653   -8.1855    6.6807 H   0  0  0  0  0  0  0  0  0  0  0  0
    4.2253   -6.0340    7.7390 H   0  0  0  0  0  0  0  0  0  0  0  0
    4.9217   -6.1961    6.1590 H   0  0  0  0  0  0  0  0  0  0  0  0
    2.5320   -4.5250    7.0108 H   0  0  0  0  0  0  0  0  0  0  0  0
    1.7927   -3.7028    3.2995 H   0  0  0  0  0  0  0  0  0  0  0  0
    2.4167   -1.5251    4.1342 H   0  0  0  0  0  0  0  0  0  0  0  0
    6.2186   -4.5126    5.9506 H   0  0  0  0  0  0  0  0  0  0  0  0
    6.1794   -2.8890    5.3274 H   0  0  0  0  0  0  0  0  0  0  0  0
    5.2957   -4.1437    4.4919 H   0  0  0  0  0  0  0  0  0  0  0  0
    3.8407   -3.1961    8.4318 H   0  0  0  0  0  0  0  0  0  0  0  0
    5.3334   -4.0492    8.1377 H   0  0  0  0  0  0  0  0  0  0  0  0
    5.8706   -1.9661    9.0042 H   0  0  0  0  0  0  0  0  0  0  0  0
    6.3937   -1.9281    7.3520 H   0  0  0  0  0  0  0  0  0  0  0  0
    3.7409   -0.8148    8.3488 H   0  0  0  0  0  0  0  0  0  0  0  0
    1.9282   -0.2596    5.6775 H   0  0  0  0  0  0  0  0  0  0  0  0
    3.0193    1.0793    5.5116 H   0  0  0  0  0  0  0  0  0  0  0  0
    2.4665    0.5091    7.0799 H   0  0  0  0  0  0  0  0  0  0  0  0
    6.8789    1.0291    5.0663 H   0  0  0  0  0  0  0  0  0  0  0  0
    5.4135    1.8603    5.5062 H   0  0  0  0  0  0  0  0  0  0  0  0
    7.2403    0.2081    7.2906 H   0  0  0  0  0  0  0  0  0  0  0  0
    8.9229    2.9679    8.8848 H   0  0  0  0  0  0  0  0  0  0  0  0
    8.5959    1.2423    8.9337 H   0  0  0  0  0  0  0  0  0  0  0  0
    7.5411    2.4004    9.7431 H   0  0  0  0  0  0  0  0  0  0  0  0
    8.9307    3.5351    6.7066 H   0  0  0  0  0  0  0  0  0  0  0  0
    7.8786    2.8833    5.4826 H   0  0  0  0  0  0  0  0  0  0  0  0
    9.0104    1.8218    6.3127 H   0  0  0  0  0  0  0  0  0  0  0  0
    6.8554    4.3813    8.1830 H   0  0  0  0  0  0  0  0  0  0  0  0
    5.2817    3.4349    6.0869 H   0  0  0  0  0  0  0  0  0  0  0  0
    5.3728    3.2405    9.6409 H   0  0  0  0  0  0  0  0  0  0  0  0
    4.3638    4.0661    8.5206 H   0  0  0  0  0  0  0  0  0  0  0  0
    3.5279    1.7405    8.8649 H   0  0  0  0  0  0  0  0  0  0  0  0
    3.9810    2.1150    7.2204 H   0  0  0  0  0  0  0  0  0  0  0  0
    5.8162    1.3055   10.2681 H   0  0  0  0  0  0  0  0  0  0  0  0
    6.7205   -0.0827    9.7195 H   0  0  0  0  0  0  0  0  0  0  0  0
    5.0241   -0.2092   10.1791 H   0  0  0  0  0  0  0  0  0  0  0  0
    1.0205   -6.1186    5.4037 H   0  0  0  0  0  0  0  0  0  0  0  0
    1.7956   -6.1968    2.4708 H   0  0  0  0  0  0  0  0  0  0  0  0
    0.4349   -5.3328    3.1205 H   0  0  0  0  0  0  0  0  0  0  0  0
  1  2  1  0
  1 39  1  0
  1 40  1  0
  1 41  1  0
  2 38  1  0
  2  3  1  0
  2  4  1  0
  3 42  1  0
  3 43  1  0
  3 44  1  0
  4  5  1  0
  4 45  1  0
  4 46  1  0
  5  6  1  0
  5 47  1  0
  5 48  1  0
  6 37  1  0
  6  7  1  6
  6 10  1  0
  7  8  2  0
  7  9  1  0
 10 11  1  0
 10 49  1  0
 10 50  1  0
 11 12  1  0
 11 51  1  0
 11 52  1  0
 12 17  1  0
 12 13  1  0
 12 53  1  1
 13 14  2  0
 13 37  1  0
 14 15  1  0
 14 54  1  0
 15 16  2  0
 15 55  1  0
 16 22  1  0
 16 17  1  0
 17 18  1  6
 17 19  1  0
 18 56  1  0
 18 57  1  0
 18 58  1  0
 19 20  1  0
 19 59  1  0
 19 60  1  0
 20 21  1  0
 20 61  1  0
 20 62  1  0
 21 35  1  0
 21 22  1  0
 21 63  1  1
 22 23  1  1
 22 24  1  0
 23 64  1  0
 23 65  1  0
 23 66  1  0
 24 25  2  0
 24 26  1  0
 26 27  1  0
 26 67  1  0
 26 68  1  0
 27 35  1  0
 27 28  1  0
 27 69  1  6
 28 29  1  0
 28 30  1  0
 28 31  1  0
 29 70  1  0
 29 71  1  0
 29 72  1  0
 30 73  1  0
 30 74  1  0
 30 75  1  0
 31 32  1  0
 31 33  1  0
 31 76  1  1
 32 77  1  0
 33 34  1  0
 33 78  1  0
 33 79  1  0
 34 35  1  0
 34 80  1  0
 34 81  1  0
 35 36  1  1
 36 82  1  0
 36 83  1  0
 36 84  1  0
 37 38  1  0
 37 85  1  1
 38 86  1  0
 38 87  1  0
M  CHG  1   9  -1
M  END
>  <i_m_ct_stereo_status>  (37) 
1

>  <s_m_source_file>  (37) 
/var/tmp/pbs.5076255.sched01/tmpmjg_sug8/0d5zvyqle.sdf

>  <i_m_source_file_index>  (37) 
16

>  <i_lp_mmshare_version>  (37) 
48012

>  <i_f3d_flags>  (37) 
0

>  <s_epik_input>  (37) 
W0NIMl0xW0NIMl1DKFtDSDNdKShbQ0gzXSlbQ0gyXVtDQEBIXShbQ0BdMTJDKD1PKVtPSF0pQz0zW0NAQEhdKFtDSDJdW0NIMl0yKVtDQEBdNChbQ0gzXSlDKD1bQ0hdW0NIXTMpW0NAQF01KFtDSDNdKVtDQEBIXShbQ0gyXVtDSDJdNClbQ0BAXTYoW0NIM10pW0NAQEhdKFtDSDJdQzU9TylDKFtDSDNdKShbQ0gzXSlbQ0BASF0oW09IXSlbQ0gyXVtDSDJdNg==

>  <s_epik_cmdline>  (37) 
J2VwaWtfcHl0aG9uJywgJy1waHQnLCAnMi4wJywgJy1waCcsICc3LjAnLCAnLXRuJywgJzgnLCAnLW1hJywgJzIwMCcsICctaW1hZScsICc8aW5maWxlLm1hZT4nLCAnLW9tYWUnLCAnPG91dGZpbGUubWFlPic=

>  <r_lp_tautomer_probability>  (37) 
0.99995

>  <r_epik_Ionization_Penalty>  (37) 
0.00571523

>  <r_epik_Ionization_Penalty_Charging>  (37) 
0.00571356

>  <r_epik_Ionization_Penalty_Neutral>  (37) 
1.6721e-06

>  <r_epik_State_Penalty>  (37) 
0.00419167

>  <r_epik_Charging_Adjusted_Penalty>  (37) 
0.00990522

>  <i_epik_Tot_Q>  (37) 
-1

>  <i_epik_Tot_abs_Q>  (37) 
1

>  <s_lp_Force_Field>  (37) 
OPLS3e

>  <r_lp_Energy>  (37) 
98.3885

>  <b_lp_Chiralities_Consistent>  (37) 
1

>  <s_lp_Variant>  (37) 
12:0-1

>  <s_i_glide_gridfile>  (37) 
pfpi4k_grid

>  <i_i_glide_lignum>  (37) 
16

>  <i_i_glide_rotatable_bonds>  (37) 
2

>  <r_i_docking_score>  (37) 
-1.21048

>  <r_i_glide_ligand_efficiency>  (37) 
-0.0318547

>  <r_i_glide_ligand_efficiency_sa>  (37) 
-0.107095

>  <r_i_glide_ligand_efficiency_ln>  (37) 
-0.261014

>  <r_i_glide_gscore>  (37) 
-1.21048

>  <r_i_glide_lipo>  (37) 
-0.149869

>  <r_i_glide_hbond>  (37) 
0

>  <r_i_glide_metal>  (37) 
-0

>  <r_i_glide_rewards>  (37) 
-0.0581913

>  <r_i_glide_evdw>  (37) 
-23.7351

>  <r_i_glide_ecoul>  (37) 
1.22895

>  <r_i_glide_erotb>  (37) 
0

>  <r_i_glide_esite>  (37) 
-7.59312e-06

>  <r_i_glide_emodel>  (37) 
-25.6606

>  <r_i_glide_energy>  (37) 
-22.5061

>  <r_i_glide_einternal>  (37) 
0.0666324

>  <r_i_glide_intrahb_reward>  (37) 
-0

>  <i_i_glide_confnum>  (37) 
2

>  <i_i_glide_posenum>  (37) 
19

>  <r_i_glide_eff_state_penalty>  (37) 
0

>  <ligand_id>  (37) 
12

>  <original_smiles>  (37) 
CC1(C)CCC2(C(=O)O)CCC3C(=CC=C4C3(C)CCC3C4(C)C(=O)CC4C(C)(C)C(O)CCC34C)C2C1

>  <smiles>  (37) 
[H]OC1([H])C([H])([H])C([H])([H])C2(C([H])([H])[H])C3([H])C([H])([H])C([H])([H])C4(C([H])([H])[H])C(=C([H])C([H])=C5C4([H])C([H])([H])C([H])([H])C4(C(=O)[O-])C([H])([H])C([H])([H])C(C([H])([H])[H])(C([H])([H])[H])C([H])([H])C54[H])C3(C([H])([H])[H])C(=O)C([H])([H])C2([H])C1(C([H])([H])[H])C([H])([H])[H]

$$$$
13:0:0
     RDKit          3D

 22 22  0  0  1  0  0  0  0  0999 V2000
    7.7992   -3.7196    0.4623 C   0  0  0  0  0  0  0  0  0  0  0  0
    7.0142   -2.5027   -0.0151 C   0  0  0  0  0  0  0  0  0  0  0  0
    7.4922   -1.4150    0.2616 O   0  0  0  0  0  0  0  0  0  0  0  0
    5.7244   -2.6349   -0.8243 C   0  0  0  0  0  0  0  0  0  0  0  0
    5.4294   -1.6805   -1.6429 N   0  0  0  0  0  0  0  0  0  0  0  0
    4.2752   -1.7257   -2.4392 C   0  0  0  0  0  0  0  0  0  0  0  0
    4.0645   -0.5614   -3.3736 C   0  0  0  0  0  0  0  0  0  0  0  0
    3.4462   -2.7792   -2.3728 C   0  0  0  0  0  0  0  0  0  0  0  0
    2.1857   -3.0241   -3.1765 C   0  0  0  0  0  0  0  0  0  0  0  0
    3.7312   -3.8253   -1.5030 N   0  0  0  0  0  0  0  0  0  0  0  0
    4.8006   -3.8562   -0.6837 C   0  0  0  0  0  0  0  0  0  0  0  0
    5.0034   -4.7903    0.0979 O   0  0  0  0  0  0  0  0  0  0  0  0
    7.3754   -4.6539    0.1184 H   0  0  0  0  0  0  0  0  0  0  0  0
    7.8658   -3.7167    1.5543 H   0  0  0  0  0  0  0  0  0  0  0  0
    8.8062   -3.6474    0.0481 H   0  0  0  0  0  0  0  0  0  0  0  0
    3.1563   -0.5383   -3.9618 H   0  0  0  0  0  0  0  0  0  0  0  0
    4.8925   -0.5815   -4.0778 H   0  0  0  0  0  0  0  0  0  0  0  0
    4.0922    0.3627   -2.8133 H   0  0  0  0  0  0  0  0  0  0  0  0
    1.9330   -2.2322   -3.8782 H   0  0  0  0  0  0  0  0  0  0  0  0
    1.3474   -3.1055   -2.4835 H   0  0  0  0  0  0  0  0  0  0  0  0
    2.2455   -3.9527   -3.7481 H   0  0  0  0  0  0  0  0  0  0  0  0
    3.0898   -4.6075   -1.5485 H   0  0  0  0  0  0  0  0  0  0  0  0
  1  2  1  0
  1 13  1  0
  1 14  1  0
  1 15  1  0
  2  3  2  0
  2  4  1  0
  4 11  1  0
  4  5  2  0
  5  6  1  0
  6  7  1  0
  6  8  2  0
  7 16  1  0
  7 17  1  0
  7 18  1  0
  8  9  1  0
  8 10  1  0
  9 19  1  0
  9 20  1  0
  9 21  1  0
 10 11  1  0
 10 22  1  0
 11 12  2  0
M  END
>  <i_m_ct_stereo_status>  (38) 
1

>  <s_m_source_file>  (38) 
/var/tmp/pbs.5076255.sched01/tmpmjg_sug8/0d5zvyqle.sdf

>  <i_m_source_file_index>  (38) 
17

>  <i_lp_mmshare_version>  (38) 
48012

>  <i_f3d_flags>  (38) 
0

>  <s_epik_input>  (38) 
W0NIM11DKD1PKWMxbmMoW0NIM10pYyhbQ0gzXSluYzFbT0hd

>  <s_epik_cmdline>  (38) 
J2VwaWtfcHl0aG9uJywgJy1waHQnLCAnMi4wJywgJy1waCcsICc3LjAnLCAnLXRuJywgJzgnLCAnLW1hJywgJzIwMCcsICctaW1hZScsICc8aW5maWxlLm1hZT4nLCAnLW9tYWUnLCAnPG91dGZpbGUubWFlPic=

>  <r_lp_tautomer_probability>  (38) 
0.99995

>  <r_epik_Ionization_Penalty>  (38) 
0.166104

>  <r_epik_Ionization_Penalty_Charging>  (38) 
0.166104

>  <r_epik_Ionization_Penalty_Neutral>  (38) 
1.74766e-10

>  <r_epik_State_Penalty>  (38) 
0.15545

>  <r_epik_Charging_Adjusted_Penalty>  (38) 
0.321554

>  <i_epik_Tot_Q>  (38) 
0

>  <i_epik_Tot_abs_Q>  (38) 
0

>  <s_lp_Force_Field>  (38) 
OPLS3e

>  <r_lp_Energy>  (38) 
26.0791

>  <b_lp_Chiralities_Consistent>  (38) 
1

>  <s_lp_Variant>  (38) 
13:0-1

>  <s_i_glide_gridfile>  (38) 
pfpi4k_grid

>  <i_i_glide_lignum>  (38) 
17

>  <i_i_glide_rotatable_bonds>  (38) 
1

>  <r_i_docking_score>  (38) 
-4.79566

>  <r_i_glide_ligand_efficiency>  (38) 
-0.399638

>  <r_i_glide_ligand_efficiency_sa>  (38) 
-0.914943

>  <r_i_glide_ligand_efficiency_ln>  (38) 
-1.37612

>  <r_i_glide_gscore>  (38) 
-4.79566

>  <r_i_glide_lipo>  (38) 
-0.634581

>  <r_i_glide_hbond>  (38) 
-0.293647

>  <r_i_glide_metal>  (38) 
-0

>  <r_i_glide_rewards>  (38) 
-2.29385

>  <r_i_glide_evdw>  (38) 
-18.9968

>  <r_i_glide_ecoul>  (38) 
-4.01862

>  <r_i_glide_erotb>  (38) 
0

>  <r_i_glide_esite>  (38) 
-0.0209454

>  <r_i_glide_emodel>  (38) 
-30.1644

>  <r_i_glide_energy>  (38) 
-23.0154

>  <r_i_glide_einternal>  (38) 
2.01531

>  <r_i_glide_intrahb_reward>  (38) 
-0

>  <i_i_glide_confnum>  (38) 
1

>  <i_i_glide_posenum>  (38) 
3

>  <r_i_glide_eff_state_penalty>  (38) 
0

>  <ligand_id>  (38) 
13

>  <original_smiles>  (38) 
CC(=O)c1nc(C)c(C)nc1O

>  <smiles>  (38) 
[H]n1c(C([H])([H])[H])c(C([H])([H])[H])nc(C(=O)C([H])([H])[H])c1=O

$$$$
13:0:1
     RDKit          3D

 22 22  0  0  1  0  0  0  0  0999 V2000
   -2.3192    3.3995    7.2134 C   0  0  0  0  0  0  0  0  0  0  0  0
   -2.1214    2.0295    6.5768 C   0  0  0  0  0  0  0  0  0  0  0  0
   -2.5763    1.0515    7.1721 O   0  0  0  0  0  0  0  0  0  0  0  0
   -1.3495    1.8766    5.2775 C   0  0  0  0  0  0  0  0  0  0  0  0
   -0.7780    0.7446    5.0849 N   0  0  0  0  0  0  0  0  0  0  0  0
   -0.0106    0.4710    3.9477 C   0  0  0  0  0  0  0  0  0  0  0  0
    0.6133   -0.9114    3.9250 C   0  0  0  0  0  0  0  0  0  0  0  0
    0.1261    1.4175    2.9894 C   0  0  0  0  0  0  0  0  0  0  0  0
    0.9004    1.3181    1.6905 C   0  0  0  0  0  0  0  0  0  0  0  0
   -0.4948    2.6624    3.1447 N   0  0  0  0  0  0  0  0  0  0  0  0
   -1.2449    2.9939    4.2184 C   0  0  0  0  0  0  0  0  0  0  0  0
   -1.8016    4.0899    4.3199 O   0  0  0  0  0  0  0  0  0  0  0  0
   -1.8261    4.1948    6.6676 H   0  0  0  0  0  0  0  0  0  0  0  0
   -1.9034    3.3994    8.2194 H   0  0  0  0  0  0  0  0  0  0  0  0
   -3.3843    3.6207    7.2845 H   0  0  0  0  0  0  0  0  0  0  0  0
    1.2004   -1.1313    3.0380 H   0  0  0  0  0  0  0  0  0  0  0  0
   -0.1683   -1.6640    3.9997 H   0  0  0  0  0  0  0  0  0  0  0  0
    1.2638   -1.0326    4.7884 H   0  0  0  0  0  0  0  0  0  0  0  0
    1.3866    0.3595    1.5372 H   0  0  0  0  0  0  0  0  0  0  0  0
    1.6586    2.0979    1.6497 H   0  0  0  0  0  0  0  0  0  0  0  0
    0.2142    1.4700    0.8592 H   0  0  0  0  0  0  0  0  0  0  0  0
   -0.3692    3.3237    2.3797 H   0  0  0  0  0  0  0  0  0  0  0  0
  1  2  1  0
  1 13  1  0
  1 14  1  0
  1 15  1  0
  2  3  2  0
  2  4  1  0
  4 11  1  0
  4  5  2  0
  5  6  1  0
  6  7  1  0
  6  8  2  0
  7 16  1  0
  7 17  1  0
  7 18  1  0
  8  9  1  0
  8 10  1  0
  9 19  1  0
  9 20  1  0
  9 21  1  0
 10 11  1  0
 10 22  1  0
 11 12  2  0
M  END
>  <i_m_ct_stereo_status>  (39) 
1

>  <s_m_source_file>  (39) 
/var/tmp/pbs.5076255.sched01/tmpmjg_sug8/0d5zvyqle.sdf

>  <i_m_source_file_index>  (39) 
17

>  <i_lp_mmshare_version>  (39) 
48012

>  <i_f3d_flags>  (39) 
0

>  <s_epik_input>  (39) 
W0NIM11DKD1PKWMxbmMoW0NIM10pYyhbQ0gzXSluYzFbT0hd

>  <s_epik_cmdline>  (39) 
J2VwaWtfcHl0aG9uJywgJy1waHQnLCAnMi4wJywgJy1waCcsICc3LjAnLCAnLXRuJywgJzgnLCAnLW1hJywgJzIwMCcsICctaW1hZScsICc8aW5maWxlLm1hZT4nLCAnLW9tYWUnLCAnPG91dGZpbGUubWFlPic=

>  <r_lp_tautomer_probability>  (39) 
0.99995

>  <r_epik_Ionization_Penalty>  (39) 
0.166104

>  <r_epik_Ionization_Penalty_Charging>  (39) 
0.166104

>  <r_epik_Ionization_Penalty_Neutral>  (39) 
1.74766e-10

>  <r_epik_State_Penalty>  (39) 
0.15545

>  <r_epik_Charging_Adjusted_Penalty>  (39) 
0.321554

>  <i_epik_Tot_Q>  (39) 
0

>  <i_epik_Tot_abs_Q>  (39) 
0

>  <s_lp_Force_Field>  (39) 
OPLS3e

>  <r_lp_Energy>  (39) 
26.0791

>  <b_lp_Chiralities_Consistent>  (39) 
1

>  <s_lp_Variant>  (39) 
13:0-1

>  <s_i_glide_gridfile>  (39) 
pfpi4k_grid

>  <i_i_glide_lignum>  (39) 
17

>  <i_i_glide_rotatable_bonds>  (39) 
1

>  <r_i_docking_score>  (39) 
-4.66808

>  <r_i_glide_ligand_efficiency>  (39) 
-0.389007

>  <r_i_glide_ligand_efficiency_sa>  (39) 
-0.890603

>  <r_i_glide_ligand_efficiency_ln>  (39) 
-1.33951

>  <r_i_glide_gscore>  (39) 
-4.66808

>  <r_i_glide_lipo>  (39) 
-0.096388

>  <r_i_glide_hbond>  (39) 
-0.340838

>  <r_i_glide_metal>  (39) 
-0

>  <r_i_glide_rewards>  (39) 
-2.25

>  <r_i_glide_evdw>  (39) 
-14.4815

>  <r_i_glide_ecoul>  (39) 
-7.81971

>  <r_i_glide_erotb>  (39) 
0

>  <r_i_glide_esite>  (39) 
-0.0838234

>  <r_i_glide_emodel>  (39) 
-29.2625

>  <r_i_glide_energy>  (39) 
-22.3012

>  <r_i_glide_einternal>  (39) 
1.9889

>  <r_i_glide_intrahb_reward>  (39) 
-0

>  <i_i_glide_confnum>  (39) 
2

>  <i_i_glide_posenum>  (39) 
1

>  <r_i_glide_eff_state_penalty>  (39) 
0

>  <ligand_id>  (39) 
13

>  <original_smiles>  (39) 
CC(=O)c1nc(C)c(C)nc1O

>  <smiles>  (39) 
[H]n1c(C([H])([H])[H])c(C([H])([H])[H])nc(C(=O)C([H])([H])[H])c1=O

$$$$
13:0:2
     RDKit          3D

 22 22  0  0  1  0  0  0  0  0999 V2000
   -1.3924   -0.6626    4.6628 C   0  0  0  0  0  0  0  0  0  0  0  0
   -1.5929    0.6101    5.4757 C   0  0  0  0  0  0  0  0  0  0  0  0
   -2.1742    0.5123    6.5552 O   0  0  0  0  0  0  0  0  0  0  0  0
   -1.0723    1.9498    4.9890 C   0  0  0  0  0  0  0  0  0  0  0  0
   -0.8540    2.8466    5.8840 N   0  0  0  0  0  0  0  0  0  0  0  0
   -0.3526    4.1133    5.5803 C   0  0  0  0  0  0  0  0  0  0  0  0
   -0.1330    5.0100    6.7823 C   0  0  0  0  0  0  0  0  0  0  0  0
   -0.1028    4.4371    4.2869 C   0  0  0  0  0  0  0  0  0  0  0  0
    0.4277    5.7488    3.7449 C   0  0  0  0  0  0  0  0  0  0  0  0
   -0.3493    3.5060    3.2806 N   0  0  0  0  0  0  0  0  0  0  0  0
   -0.8265    2.2609    3.5032 C   0  0  0  0  0  0  0  0  0  0  0  0
   -1.0618    1.4760    2.5895 O   0  0  0  0  0  0  0  0  0  0  0  0
   -0.8245   -0.5112    3.7523 H   0  0  0  0  0  0  0  0  0  0  0  0
   -2.3655   -1.0768    4.4065 H   0  0  0  0  0  0  0  0  0  0  0  0
   -0.8381   -1.3844    5.2597 H   0  0  0  0  0  0  0  0  0  0  0  0
    0.2511    5.9990    6.5484 H   0  0  0  0  0  0  0  0  0  0  0  0
    0.5664    4.5332    7.4674 H   0  0  0  0  0  0  0  0  0  0  0  0
   -1.0715    5.1299    7.3187 H   0  0  0  0  0  0  0  0  0  0  0  0
    0.6233    6.4960    4.5101 H   0  0  0  0  0  0  0  0  0  0  0  0
   -0.2880    6.1704    3.0376 H   0  0  0  0  0  0  0  0  0  0  0  0
    1.3570    5.5809    3.1989 H   0  0  0  0  0  0  0  0  0  0  0  0
   -0.1784    3.8001    2.3087 H   0  0  0  0  0  0  0  0  0  0  0  0
  1  2  1  0
  1 13  1  0
  1 14  1  0
  1 15  1  0
  2  3  2  0
  2  4  1  0
  4 11  1  0
  4  5  2  0
  5  6  1  0
  6  7  1  0
  6  8  2  0
  7 16  1  0
  7 17  1  0
  7 18  1  0
  8  9  1  0
  8 10  1  0
  9 19  1  0
  9 20  1  0
  9 21  1  0
 10 11  1  0
 10 22  1  0
 11 12  2  0
M  END
>  <i_m_ct_stereo_status>  (40) 
1

>  <s_m_source_file>  (40) 
/var/tmp/pbs.5076255.sched01/tmpmjg_sug8/0d5zvyqle.sdf

>  <i_m_source_file_index>  (40) 
17

>  <i_lp_mmshare_version>  (40) 
48012

>  <i_f3d_flags>  (40) 
0

>  <s_epik_input>  (40) 
W0NIM11DKD1PKWMxbmMoW0NIM10pYyhbQ0gzXSluYzFbT0hd

>  <s_epik_cmdline>  (40) 
J2VwaWtfcHl0aG9uJywgJy1waHQnLCAnMi4wJywgJy1waCcsICc3LjAnLCAnLXRuJywgJzgnLCAnLW1hJywgJzIwMCcsICctaW1hZScsICc8aW5maWxlLm1hZT4nLCAnLW9tYWUnLCAnPG91dGZpbGUubWFlPic=

>  <r_lp_tautomer_probability>  (40) 
0.99995

>  <r_epik_Ionization_Penalty>  (40) 
0.166104

>  <r_epik_Ionization_Penalty_Charging>  (40) 
0.166104

>  <r_epik_Ionization_Penalty_Neutral>  (40) 
1.74766e-10

>  <r_epik_State_Penalty>  (40) 
0.15545

>  <r_epik_Charging_Adjusted_Penalty>  (40) 
0.321554

>  <i_epik_Tot_Q>  (40) 
0

>  <i_epik_Tot_abs_Q>  (40) 
0

>  <s_lp_Force_Field>  (40) 
OPLS3e

>  <r_lp_Energy>  (40) 
26.0791

>  <b_lp_Chiralities_Consistent>  (40) 
1

>  <s_lp_Variant>  (40) 
13:0-1

>  <s_i_glide_gridfile>  (40) 
pfpi4k_grid

>  <i_i_glide_lignum>  (40) 
17

>  <i_i_glide_rotatable_bonds>  (40) 
1

>  <r_i_docking_score>  (40) 
-4.52497

>  <r_i_glide_ligand_efficiency>  (40) 
-0.377081

>  <r_i_glide_ligand_efficiency_sa>  (40) 
-0.8633

>  <r_i_glide_ligand_efficiency_ln>  (40) 
-1.29845

>  <r_i_glide_gscore>  (40) 
-4.52497

>  <r_i_glide_lipo>  (40) 
0

>  <r_i_glide_hbond>  (40) 
-0.32

>  <r_i_glide_metal>  (40) 
-0

>  <r_i_glide_rewards>  (40) 
-2.25

>  <r_i_glide_evdw>  (40) 
-13.5526

>  <r_i_glide_ecoul>  (40) 
-7.56347

>  <r_i_glide_erotb>  (40) 
0

>  <r_i_glide_esite>  (40) 
-0.142822

>  <r_i_glide_emodel>  (40) 
-27.844

>  <r_i_glide_energy>  (40) 
-21.116

>  <r_i_glide_einternal>  (40) 
1.91815

>  <r_i_glide_intrahb_reward>  (40) 
-0

>  <i_i_glide_confnum>  (40) 
2

>  <i_i_glide_posenum>  (40) 
14

>  <r_i_glide_eff_state_penalty>  (40) 
0

>  <ligand_id>  (40) 
13

>  <original_smiles>  (40) 
CC(=O)c1nc(C)c(C)nc1O

>  <smiles>  (40) 
[H]n1c(C([H])([H])[H])c(C([H])([H])[H])nc(C(=O)C([H])([H])[H])c1=O

$$$$
13:1:0
     RDKit          3D

 21 21  0  0  1  0  0  0  0  0999 V2000
    0.9818  -10.6730    3.3513 C   0  0  0  0  0  0  0  0  0  0  0  0
    0.1817   -9.4465    2.8939 C   0  0  0  0  0  0  0  0  0  0  0  0
   -1.0376   -9.4471    3.0376 O   0  0  0  0  0  0  0  0  0  0  0  0
    0.9577   -8.2950    2.2651 C   0  0  0  0  0  0  0  0  0  0  0  0
    2.2127   -8.4290    2.0582 N   0  0  0  0  0  0  0  0  0  0  0  0
    2.9840   -7.4197    1.4714 C   0  0  0  0  0  0  0  0  0  0  0  0
    4.4403   -7.8026    1.2832 C   0  0  0  0  0  0  0  0  0  0  0  0
    2.3735   -6.2162    1.0957 C   0  0  0  0  0  0  0  0  0  0  0  0
    3.1100   -5.0466    0.4670 C   0  0  0  0  0  0  0  0  0  0  0  0
    1.0379   -6.0091    1.2627 N   0  0  0  0  0  0  0  0  0  0  0  0
    0.2825   -6.9741    1.8577 C   0  0  0  0  0  0  0  0  0  0  0  0
   -0.9134   -6.8084    2.0978 O   0  0  0  0  0  0  0  0  0  0  0  0
    2.0438  -10.5726    3.1572 H   0  0  0  0  0  0  0  0  0  0  0  0
    0.6414  -11.5586    2.8237 H   0  0  0  0  0  0  0  0  0  0  0  0
    0.8637  -10.8273    4.4202 H   0  0  0  0  0  0  0  0  0  0  0  0
    5.0710   -7.0469    0.8255 H   0  0  0  0  0  0  0  0  0  0  0  0
    4.4886   -8.7009    0.6675 H   0  0  0  0  0  0  0  0  0  0  0  0
    4.8609   -8.0611    2.2531 H   0  0  0  0  0  0  0  0  0  0  0  0
    4.1617   -5.2478    0.3039 H   0  0  0  0  0  0  0  0  0  0  0  0
    3.0357   -4.1580    1.0932 H   0  0  0  0  0  0  0  0  0  0  0  0
    2.6752   -4.8046   -0.5016 H   0  0  0  0  0  0  0  0  0  0  0  0
  1  2  1  0
  1 13  1  0
  1 14  1  0
  1 15  1  0
  2  3  2  0
  2  4  1  0
  4 11  1  0
  4  5  2  0
  5  6  1  0
  6  7  1  0
  6  8  2  0
  7 16  1  0
  7 17  1  0
  7 18  1  0
  8  9  1  0
  8 10  1  0
  9 19  1  0
  9 20  1  0
  9 21  1  0
 10 11  1  0
 11 12  2  0
M  CHG  1  10  -1
M  END
>  <i_m_ct_stereo_status>  (41) 
1

>  <s_m_source_file>  (41) 
/var/tmp/pbs.5076255.sched01/tmpmjg_sug8/0d5zvyqle.sdf

>  <i_m_source_file_index>  (41) 
18

>  <i_lp_mmshare_version>  (41) 
48012

>  <i_f3d_flags>  (41) 
0

>  <s_epik_input>  (41) 
W0NIM11DKD1PKWMxbmMoW0NIM10pYyhbQ0gzXSluYzFbT0hd

>  <s_epik_cmdline>  (41) 
J2VwaWtfcHl0aG9uJywgJy1waHQnLCAnMi4wJywgJy1waCcsICc3LjAnLCAnLXRuJywgJzgnLCAnLW1hJywgJzIwMCcsICctaW1hZScsICc8aW5maWxlLm1hZT4nLCAnLW9tYWUnLCAnPG91dGZpbGUubWFlPic=

>  <r_lp_tautomer_probability>  (41) 
0.99995

>  <r_epik_Ionization_Penalty>  (41) 
0.835214

>  <r_epik_Ionization_Penalty_Charging>  (41) 
0.000628354

>  <r_epik_Ionization_Penalty_Neutral>  (41) 
0.834586

>  <r_epik_State_Penalty>  (41) 
0.868774

>  <r_epik_Charging_Adjusted_Penalty>  (41) 
0.869402

>  <i_epik_Tot_Q>  (41) 
-1

>  <i_epik_Tot_abs_Q>  (41) 
1

>  <s_lp_Force_Field>  (41) 
OPLS3e

>  <r_lp_Energy>  (41) 
40.0039

>  <b_lp_Chiralities_Consistent>  (41) 
1

>  <s_lp_Variant>  (41) 
13:0-2

>  <s_i_glide_gridfile>  (41) 
pfpi4k_grid

>  <i_i_glide_lignum>  (41) 
18

>  <i_i_glide_rotatable_bonds>  (41) 
1

>  <r_i_docking_score>  (41) 
-4.58747

>  <r_i_glide_ligand_efficiency>  (41) 
-0.382289

>  <r_i_glide_ligand_efficiency_sa>  (41) 
-0.875223

>  <r_i_glide_ligand_efficiency_ln>  (41) 
-1.31638

>  <r_i_glide_gscore>  (41) 
-4.58747

>  <r_i_glide_lipo>  (41) 
-0.23198

>  <r_i_glide_hbond>  (41) 
-0.36

>  <r_i_glide_metal>  (41) 
-0

>  <r_i_glide_rewards>  (41) 
-2.25

>  <r_i_glide_evdw>  (41) 
-15.3706

>  <r_i_glide_ecoul>  (41) 
-6.33367

>  <r_i_glide_erotb>  (41) 
0

>  <r_i_glide_esite>  (41) 
-0.0269066

>  <r_i_glide_emodel>  (41) 
-30.4406

>  <r_i_glide_energy>  (41) 
-21.7043

>  <r_i_glide_einternal>  (41) 
0.0407723

>  <r_i_glide_intrahb_reward>  (41) 
-0

>  <i_i_glide_confnum>  (41) 
1

>  <i_i_glide_posenum>  (41) 
39

>  <r_i_glide_eff_state_penalty>  (41) 
0

>  <ligand_id>  (41) 
13

>  <original_smiles>  (41) 
CC(=O)c1nc(C)c(C)nc1O

>  <smiles>  (41) 
[H]C([H])([H])C(=O)c1nc(C([H])([H])[H])c(C([H])([H])[H])[n-]c1=O

$$$$
13:1:1
     RDKit          3D

 21 21  0  0  1  0  0  0  0  0999 V2000
    0.0999   -9.8876    2.9038 C   0  0  0  0  0  0  0  0  0  0  0  0
    1.4347   -9.1850    3.0283 C   0  0  0  0  0  0  0  0  0  0  0  0
    2.2797   -9.6665    3.7814 O   0  0  0  0  0  0  0  0  0  0  0  0
    1.7338   -7.9313    2.2073 C   0  0  0  0  0  0  0  0  0  0  0  0
    2.9631   -7.6506    1.9517 N   0  0  0  0  0  0  0  0  0  0  0  0
    3.3378   -6.5177    1.2087 C   0  0  0  0  0  0  0  0  0  0  0  0
    4.8438   -6.3898    1.0074 C   0  0  0  0  0  0  0  0  0  0  0  0
    2.3502   -5.6574    0.7145 C   0  0  0  0  0  0  0  0  0  0  0  0
    2.6436   -4.3791   -0.0531 C   0  0  0  0  0  0  0  0  0  0  0  0
    1.0281   -5.8958    0.8888 N   0  0  0  0  0  0  0  0  0  0  0  0
    0.6507   -6.9579    1.6865 C   0  0  0  0  0  0  0  0  0  0  0  0
   -0.5246   -7.0843    2.0330 O   0  0  0  0  0  0  0  0  0  0  0  0
   -0.5645   -9.4366    2.1813 H   0  0  0  0  0  0  0  0  0  0  0  0
   -0.3868   -9.9129    3.8744 H   0  0  0  0  0  0  0  0  0  0  0  0
    0.2781  -10.9039    2.5679 H   0  0  0  0  0  0  0  0  0  0  0  0
    5.1599   -5.5296    0.4323 H   0  0  0  0  0  0  0  0  0  0  0  0
    5.1951   -7.2790    0.4872 H   0  0  0  0  0  0  0  0  0  0  0  0
    5.3444   -6.3616    1.9732 H   0  0  0  0  0  0  0  0  0  0  0  0
    3.6974   -4.2209   -0.2462 H   0  0  0  0  0  0  0  0  0  0  0  0
    2.2728   -3.5072    0.4830 H   0  0  0  0  0  0  0  0  0  0  0  0
    2.1398   -4.4055   -1.0163 H   0  0  0  0  0  0  0  0  0  0  0  0
  1  2  1  0
  1 13  1  0
  1 14  1  0
  1 15  1  0
  2  3  2  0
  2  4  1  0
  4 11  1  0
  4  5  2  0
  5  6  1  0
  6  7  1  0
  6  8  2  0
  7 16  1  0
  7 17  1  0
  7 18  1  0
  8  9  1  0
  8 10  1  0
  9 19  1  0
  9 20  1  0
  9 21  1  0
 10 11  1  0
 11 12  2  0
M  CHG  1  10  -1
M  END
>  <i_m_ct_stereo_status>  (42) 
1

>  <s_m_source_file>  (42) 
/var/tmp/pbs.5076255.sched01/tmpmjg_sug8/0d5zvyqle.sdf

>  <i_m_source_file_index>  (42) 
18

>  <i_lp_mmshare_version>  (42) 
48012

>  <i_f3d_flags>  (42) 
0

>  <s_epik_input>  (42) 
W0NIM11DKD1PKWMxbmMoW0NIM10pYyhbQ0gzXSluYzFbT0hd

>  <s_epik_cmdline>  (42) 
J2VwaWtfcHl0aG9uJywgJy1waHQnLCAnMi4wJywgJy1waCcsICc3LjAnLCAnLXRuJywgJzgnLCAnLW1hJywgJzIwMCcsICctaW1hZScsICc8aW5maWxlLm1hZT4nLCAnLW9tYWUnLCAnPG91dGZpbGUubWFlPic=

>  <r_lp_tautomer_probability>  (42) 
0.99995

>  <r_epik_Ionization_Penalty>  (42) 
0.835214

>  <r_epik_Ionization_Penalty_Charging>  (42) 
0.000628354

>  <r_epik_Ionization_Penalty_Neutral>  (42) 
0.834586

>  <r_epik_State_Penalty>  (42) 
0.868774

>  <r_epik_Charging_Adjusted_Penalty>  (42) 
0.869402

>  <i_epik_Tot_Q>  (42) 
-1

>  <i_epik_Tot_abs_Q>  (42) 
1

>  <s_lp_Force_Field>  (42) 
OPLS3e

>  <r_lp_Energy>  (42) 
40.0039

>  <b_lp_Chiralities_Consistent>  (42) 
1

>  <s_lp_Variant>  (42) 
13:0-2

>  <s_i_glide_gridfile>  (42) 
pfpi4k_grid

>  <i_i_glide_lignum>  (42) 
18

>  <i_i_glide_rotatable_bonds>  (42) 
1

>  <r_i_docking_score>  (42) 
-4.40072

>  <r_i_glide_ligand_efficiency>  (42) 
-0.366726

>  <r_i_glide_ligand_efficiency_sa>  (42) 
-0.839594

>  <r_i_glide_ligand_efficiency_ln>  (42) 
-1.26279

>  <r_i_glide_gscore>  (42) 
-4.40072

>  <r_i_glide_lipo>  (42) 
-0.156825

>  <r_i_glide_hbond>  (42) 
-0.313428

>  <r_i_glide_metal>  (42) 
-0

>  <r_i_glide_rewards>  (42) 
-2.25

>  <r_i_glide_evdw>  (42) 
-14.9427

>  <r_i_glide_ecoul>  (42) 
-6.20917

>  <r_i_glide_erotb>  (42) 
0

>  <r_i_glide_esite>  (42) 
-0.00194971

>  <r_i_glide_emodel>  (42) 
-28.2915

>  <r_i_glide_energy>  (42) 
-21.1519

>  <r_i_glide_einternal>  (42) 
2.17375

>  <r_i_glide_intrahb_reward>  (42) 
-0

>  <i_i_glide_confnum>  (42) 
1

>  <i_i_glide_posenum>  (42) 
7

>  <r_i_glide_eff_state_penalty>  (42) 
0

>  <ligand_id>  (42) 
13

>  <original_smiles>  (42) 
CC(=O)c1nc(C)c(C)nc1O

>  <smiles>  (42) 
[H]C([H])([H])C(=O)c1nc(C([H])([H])[H])c(C([H])([H])[H])[n-]c1=O

$$$$
13:1:2
     RDKit          3D

 21 21  0  0  1  0  0  0  0  0999 V2000
    4.4863   -8.6460    1.7006 C   0  0  0  0  0  0  0  0  0  0  0  0
    3.5254   -7.5147    1.3236 C   0  0  0  0  0  0  0  0  0  0  0  0
    3.9366   -6.6352    0.5650 O   0  0  0  0  0  0  0  0  0  0  0  0
    2.1276   -7.5455    1.9377 C   0  0  0  0  0  0  0  0  0  0  0  0
    1.9016   -8.3462    2.9085 N   0  0  0  0  0  0  0  0  0  0  0  0
    0.6508   -8.4353    3.5267 C   0  0  0  0  0  0  0  0  0  0  0  0
    0.6013   -9.4566    4.6507 C   0  0  0  0  0  0  0  0  0  0  0  0
   -0.3987   -7.6169    3.0846 C   0  0  0  0  0  0  0  0  0  0  0  0
   -1.7961   -7.6474    3.6696 C   0  0  0  0  0  0  0  0  0  0  0  0
   -0.2297   -6.6975    2.0922 N   0  0  0  0  0  0  0  0  0  0  0  0
    0.9725   -6.6492    1.4446 C   0  0  0  0  0  0  0  0  0  0  0  0
    1.1664   -5.9066    0.4831 O   0  0  0  0  0  0  0  0  0  0  0  0
    4.0358   -9.3712    2.3731 H   0  0  0  0  0  0  0  0  0  0  0  0
    5.3657   -8.2393    2.1927 H   0  0  0  0  0  0  0  0  0  0  0  0
    4.7896   -9.1849    0.8068 H   0  0  0  0  0  0  0  0  0  0  0  0
   -0.3527   -9.5460    5.1570 H   0  0  0  0  0  0  0  0  0  0  0  0
    1.3500   -9.1974    5.3978 H   0  0  0  0  0  0  0  0  0  0  0  0
    0.8686  -10.4365    4.2587 H   0  0  0  0  0  0  0  0  0  0  0  0
   -1.9082   -8.3614    4.4774 H   0  0  0  0  0  0  0  0  0  0  0  0
   -2.5290   -7.9099    2.9057 H   0  0  0  0  0  0  0  0  0  0  0  0
   -2.0631   -6.6663    4.0598 H   0  0  0  0  0  0  0  0  0  0  0  0
  1  2  1  0
  1 13  1  0
  1 14  1  0
  1 15  1  0
  2  3  2  0
  2  4  1  0
  4 11  1  0
  4  5  2  0
  5  6  1  0
  6  7  1  0
  6  8  2  0
  7 16  1  0
  7 17  1  0
  7 18  1  0
  8  9  1  0
  8 10  1  0
  9 19  1  0
  9 20  1  0
  9 21  1  0
 10 11  1  0
 11 12  2  0
M  CHG  1  10  -1
M  END
>  <i_m_ct_stereo_status>  (43) 
1

>  <s_m_source_file>  (43) 
/var/tmp/pbs.5076255.sched01/tmpmjg_sug8/0d5zvyqle.sdf

>  <i_m_source_file_index>  (43) 
18

>  <i_lp_mmshare_version>  (43) 
48012

>  <i_f3d_flags>  (43) 
0

>  <s_epik_input>  (43) 
W0NIM11DKD1PKWMxbmMoW0NIM10pYyhbQ0gzXSluYzFbT0hd

>  <s_epik_cmdline>  (43) 
J2VwaWtfcHl0aG9uJywgJy1waHQnLCAnMi4wJywgJy1waCcsICc3LjAnLCAnLXRuJywgJzgnLCAnLW1hJywgJzIwMCcsICctaW1hZScsICc8aW5maWxlLm1hZT4nLCAnLW9tYWUnLCAnPG91dGZpbGUubWFlPic=

>  <r_lp_tautomer_probability>  (43) 
0.99995

>  <r_epik_Ionization_Penalty>  (43) 
0.835214

>  <r_epik_Ionization_Penalty_Charging>  (43) 
0.000628354

>  <r_epik_Ionization_Penalty_Neutral>  (43) 
0.834586

>  <r_epik_State_Penalty>  (43) 
0.868774

>  <r_epik_Charging_Adjusted_Penalty>  (43) 
0.869402

>  <i_epik_Tot_Q>  (43) 
-1

>  <i_epik_Tot_abs_Q>  (43) 
1

>  <s_lp_Force_Field>  (43) 
OPLS3e

>  <r_lp_Energy>  (43) 
40.0039

>  <b_lp_Chiralities_Consistent>  (43) 
1

>  <s_lp_Variant>  (43) 
13:0-2

>  <s_i_glide_gridfile>  (43) 
pfpi4k_grid

>  <i_i_glide_lignum>  (43) 
18

>  <i_i_glide_rotatable_bonds>  (43) 
1

>  <r_i_docking_score>  (43) 
-3.94024

>  <r_i_glide_ligand_efficiency>  (43) 
-0.328353

>  <r_i_glide_ligand_efficiency_sa>  (43) 
-0.751741

>  <r_i_glide_ligand_efficiency_ln>  (43) 
-1.13066

>  <r_i_glide_gscore>  (43) 
-3.94024

>  <r_i_glide_lipo>  (43) 
0

>  <r_i_glide_hbond>  (43) 
-0.36

>  <r_i_glide_metal>  (43) 
-0

>  <r_i_glide_rewards>  (43) 
-2.32759

>  <r_i_glide_evdw>  (43) 
-15.7812

>  <r_i_glide_ecoul>  (43) 
-3.09061

>  <r_i_glide_erotb>  (43) 
0

>  <r_i_glide_esite>  (43) 
0

>  <r_i_glide_emodel>  (43) 
-26.1882

>  <r_i_glide_energy>  (43) 
-18.8718

>  <r_i_glide_einternal>  (43) 
0.271386

>  <r_i_glide_intrahb_reward>  (43) 
-0

>  <i_i_glide_confnum>  (43) 
2

>  <i_i_glide_posenum>  (43) 
15

>  <r_i_glide_eff_state_penalty>  (43) 
0

>  <ligand_id>  (43) 
13

>  <original_smiles>  (43) 
CC(=O)c1nc(C)c(C)nc1O

>  <smiles>  (43) 
[H]C([H])([H])C(=O)c1nc(C([H])([H])[H])c(C([H])([H])[H])[n-]c1=O

$$$$
15:0:0
     RDKit          3D

 72 77  0  0  1  0  0  0  0  0999 V2000
    2.6764    1.9151    7.6862 C   0  0  0  0  0  0  0  0  0  0  0  0
    3.8160    0.9121    7.8385 C   0  0  0  0  0  0  0  0  0  0  0  0
    4.9622    1.2914    8.0694 O   0  0  0  0  0  0  0  0  0  0  0  0
    3.4928   -0.4122    7.7219 O   0  0  0  0  0  0  0  0  0  0  0  0
    2.1774   -0.8944    7.4269 C   0  0  2  0  0  0  0  0  0  0  0  0
    1.3734   -1.2105    8.7635 C   0  0  1  0  0  0  0  0  0  0  0  0
    2.1804   -0.9330   10.0629 C   0  0  0  0  0  0  0  0  0  0  0  0
    0.2793   -0.3169    8.7970 O   0  0  0  0  0  0  0  0  0  0  0  0
    0.7562   -2.6373    8.8082 C   0  0  1  0  0  0  0  0  0  0  0  0
   -0.1832   -2.9116   10.0195 C   0  0  0  0  0  0  0  0  0  0  0  0
   -0.7971   -4.3116    9.9321 C   0  0  0  0  0  0  0  0  0  0  0  0
   -1.6009   -4.4954    8.6356 C   0  0  0  0  0  0  0  0  0  0  0  0
   -0.9357   -3.8818    7.4282 C   0  0  0  0  0  0  0  0  0  0  0  0
    0.1133   -3.0415    7.4761 C   0  0  0  0  0  0  0  0  0  0  0  0
    0.7108   -2.4934    6.1867 C   0  0  1  0  0  0  0  0  0  0  0  0
   -0.2312   -1.3945    5.6258 C   0  0  0  0  0  0  0  0  0  0  0  0
    0.2267   -0.9089    4.2556 C   0  0  0  0  0  0  0  0  0  0  0  0
    1.6816   -0.4011    4.2810 C   0  0  2  0  0  0  0  0  0  0  0  0
    2.0492    0.1527    2.9049 C   0  0  1  0  0  0  0  0  0  0  0  0
    1.3232    1.3338    2.3124 C   0  0  0  0  0  0  0  0  0  0  0  0
    2.5879    1.4740    2.9660 O   0  0  0  0  0  0  0  0  0  0  0  0
    2.8215   -0.7631    2.0046 C   0  0  0  0  0  0  0  0  0  0  0  0
    3.7161   -0.3213    1.0875 C   0  0  0  0  0  0  0  0  0  0  0  0
    4.5448   -1.2096    0.1819 C   0  0  1  0  0  0  0  0  0  0  0  0
    6.0442   -0.9122    0.3276 C   0  0  0  0  0  0  0  0  0  0  0  0
    4.2741   -2.6797    0.4326 C   0  0  0  0  0  0  0  0  0  0  0  0
    3.3983   -3.1345    1.3495 C   0  0  0  0  0  0  0  0  0  0  0  0
    2.5685   -2.2392    2.2602 C   0  0  1  0  0  0  0  0  0  0  0  0
    2.7525   -2.6098    3.7466 C   0  0  0  0  0  0  0  0  0  0  0  0
    2.8996   -3.7905    4.0460 O   0  0  0  0  0  0  0  0  0  0  0  0
    2.6810   -1.4808    4.8422 C   0  0  1  0  0  0  0  0  0  0  0  0
    4.1086   -0.8531    4.9007 C   0  0  0  0  0  0  0  0  0  0  0  0
    2.2027   -2.0098    6.3089 C   0  0  1  0  0  0  0  0  0  0  0  0
    3.1111   -3.1759    6.8113 C   0  0  0  0  0  0  0  0  0  0  0  0
    2.2573    1.8901    6.6844 H   0  0  0  0  0  0  0  0  0  0  0  0
    3.0163    2.9468    7.8725 H   0  0  0  0  0  0  0  0  0  0  0  0
    1.8928    1.7171    8.4158 H   0  0  0  0  0  0  0  0  0  0  0  0
    1.6236   -0.0958    6.9430 H   0  0  0  0  0  0  0  0  0  0  0  0
    3.0454   -1.5894   10.1459 H   0  0  0  0  0  0  0  0  0  0  0  0
    1.5810   -1.0636   10.9636 H   0  0  0  0  0  0  0  0  0  0  0  0
    2.5425    0.0930   10.1222 H   0  0  0  0  0  0  0  0  0  0  0  0
    0.6285    0.5549    8.9675 H   0  0  0  0  0  0  0  0  0  0  0  0
    1.5723   -3.3366    8.9379 H   0  0  0  0  0  0  0  0  0  0  0  0
    0.3696   -2.8520   10.9568 H   0  0  0  0  0  0  0  0  0  0  0  0
   -0.9804   -2.1766   10.0929 H   0  0  0  0  0  0  0  0  0  0  0  0
    0.0012   -5.0586    9.9723 H   0  0  0  0  0  0  0  0  0  0  0  0
   -1.4374   -4.5080   10.7903 H   0  0  0  0  0  0  0  0  0  0  0  0
   -1.7164   -5.5515    8.4323 H   0  0  0  0  0  0  0  0  0  0  0  0
   -2.5984   -4.0727    8.7421 H   0  0  0  0  0  0  0  0  0  0  0  0
   -1.3622   -4.1651    6.4720 H   0  0  0  0  0  0  0  0  0  0  0  0
    0.6786   -3.3215    5.4778 H   0  0  0  0  0  0  0  0  0  0  0  0
   -1.2469   -1.7787    5.5342 H   0  0  0  0  0  0  0  0  0  0  0  0
   -0.3123   -0.5375    6.2937 H   0  0  0  0  0  0  0  0  0  0  0  0
    0.1121   -1.7243    3.5388 H   0  0  0  0  0  0  0  0  0  0  0  0
   -0.4465   -0.1167    3.9190 H   0  0  0  0  0  0  0  0  0  0  0  0
    1.6926    0.4704    4.9371 H   0  0  0  0  0  0  0  0  0  0  0  0
    1.3420    1.4559    1.2395 H   0  0  0  0  0  0  0  0  0  0  0  0
    0.4901    1.7780    2.8467 H   0  0  0  0  0  0  0  0  0  0  0  0
    3.8710    0.7427    0.9429 H   0  0  0  0  0  0  0  0  0  0  0  0
    4.2413   -0.9946   -0.8397 H   0  0  0  0  0  0  0  0  0  0  0  0
    6.3918   -1.1048    1.3424 H   0  0  0  0  0  0  0  0  0  0  0  0
    6.2517    0.1369    0.0935 H   0  0  0  0  0  0  0  0  0  0  0  0
    6.6344   -1.5304   -0.3554 H   0  0  0  0  0  0  0  0  0  0  0  0
    4.8108   -3.3720   -0.1984 H   0  0  0  0  0  0  0  0  0  0  0  0
    3.2552   -4.1965    1.4731 H   0  0  0  0  0  0  0  0  0  0  0  0
    1.5271   -2.4194    1.9942 H   0  0  0  0  0  0  0  0  0  0  0  0
    4.0749    0.2015    5.1667 H   0  0  0  0  0  0  0  0  0  0  0  0
    4.6348   -0.8948    3.9454 H   0  0  0  0  0  0  0  0  0  0  0  0
    4.7668   -1.3474    5.6107 H   0  0  0  0  0  0  0  0  0  0  0  0
    2.6135   -4.1416    6.7292 H   0  0  0  0  0  0  0  0  0  0  0  0
    3.4033   -3.0522    7.8513 H   0  0  0  0  0  0  0  0  0  0  0  0
    4.0512   -3.2670    6.2707 H   0  0  0  0  0  0  0  0  0  0  0  0
  1  2  1  0
  1 35  1  0
  1 36  1  0
  1 37  1  0
  2  3  2  0
  2  4  1  0
  4  5  1  0
  5 33  1  0
  5  6  1  0
  5 38  1  6
  6  7  1  0
  6  8  1  1
  6  9  1  0
  7 39  1  0
  7 40  1  0
  7 41  1  0
  8 42  1  0
  9 14  1  0
  9 10  1  0
  9 43  1  1
 10 11  1  0
 10 44  1  0
 10 45  1  0
 11 12  1  0
 11 46  1  0
 11 47  1  0
 12 13  1  0
 12 48  1  0
 12 49  1  0
 13 14  2  0
 13 50  1  0
 14 15  1  0
 15 33  1  0
 15 16  1  0
 15 51  1  6
 16 17  1  0
 16 52  1  0
 16 53  1  0
 17 18  1  0
 17 54  1  0
 17 55  1  0
 18 31  1  0
 18 19  1  0
 18 56  1  1
 19 21  1  1
 19 20  1  0
 19 22  1  0
 20 21  1  0
 20 57  1  0
 20 58  1  0
 22 28  1  0
 22 23  2  0
 23 24  1  0
 23 59  1  0
 24 25  1  0
 24 26  1  0
 24 60  1  6
 25 61  1  0
 25 62  1  0
 25 63  1  0
 26 27  2  0
 26 64  1  0
 27 28  1  0
 27 65  1  0
 28 29  1  0
 28 66  1  6
 29 30  2  0
 29 31  1  0
 31 32  1  1
 31 33  1  0
 32 67  1  0
 32 68  1  0
 32 69  1  0
 33 34  1  1
 34 70  1  0
 34 71  1  0
 34 72  1  0
M  END
>  <i_m_ct_stereo_status>  (44) 
1

>  <s_m_source_file>  (44) 
/var/tmp/pbs.5076255.sched01/tmpmjg_sug8/0d5zvyqle.sdf

>  <i_m_source_file_index>  (44) 
20

>  <i_lp_mmshare_version>  (44) 
48012

>  <i_f3d_flags>  (44) 
0

>  <s_epik_input>  (44) 
W0NIM11DKD1PKU9bQ0BASF0xW0NAQF0oW0NIM10pKFtPSF0pW0NAQEhdKFtDSDJdW0NIMl1bQ0gyXVtDSF09MilDMltDQEBIXShbQ0gyXVtDSDJdMylbQ0BAXTEoW0NIM10pW0NAXShbQ0gzXSkoW0NASF0zW0NAQF00NVtDSDJdTzQpQyg9TylbQ0BIXTZDNT1bQ0hdW0NAQEhdKFtDSDNdKVtDSF09W0NIXTY=

>  <s_epik_cmdline>  (44) 
J2VwaWtfcHl0aG9uJywgJy1waHQnLCAnMi4wJywgJy1waCcsICc3LjAnLCAnLXRuJywgJzgnLCAnLW1hJywgJzIwMCcsICctaW1hZScsICc8aW5maWxlLm1hZT4nLCAnLW9tYWUnLCAnPG91dGZpbGUubWFlPic=

>  <r_lp_tautomer_probability>  (44) 
1

>  <r_epik_Ionization_Penalty>  (44) 
3.30596e-08

>  <r_epik_Ionization_Penalty_Charging>  (44) 
0

>  <r_epik_Ionization_Penalty_Neutral>  (44) 
3.30596e-08

>  <r_epik_State_Penalty>  (44) 
-0

>  <r_epik_Charging_Adjusted_Penalty>  (44) 
0

>  <i_epik_Tot_Q>  (44) 
0

>  <i_epik_Tot_abs_Q>  (44) 
0

>  <s_epik_Chemistry_Notes>  (44) 
This compound has an ester and may undergo hydrolysis at high or low pH.

>  <s_lp_Force_Field>  (44) 
OPLS3e

>  <r_lp_Energy>  (44) 
52.4933

>  <b_lp_Chiralities_Consistent>  (44) 
1

>  <s_lp_Variant>  (44) 
15:0-1

>  <s_i_glide_gridfile>  (44) 
pfpi4k_grid

>  <i_i_glide_lignum>  (44) 
20

>  <i_i_glide_rotatable_bonds>  (44) 
3

>  <r_i_docking_score>  (44) 
-1.88976

>  <r_i_glide_ligand_efficiency>  (44) 
-0.0555811

>  <r_i_glide_ligand_efficiency_sa>  (44) 
-0.180061

>  <r_i_glide_ligand_efficiency_ln>  (44) 
-0.417501

>  <r_i_glide_gscore>  (44) 
-1.88976

>  <r_i_glide_lipo>  (44) 
-0.104869

>  <r_i_glide_hbond>  (44) 
0

>  <r_i_glide_metal>  (44) 
-0

>  <r_i_glide_rewards>  (44) 
-0.227998

>  <r_i_glide_evdw>  (44) 
-25.7083

>  <r_i_glide_ecoul>  (44) 
-2.42764

>  <r_i_glide_erotb>  (44) 
0.0926679

>  <r_i_glide_esite>  (44) 
0

>  <r_i_glide_emodel>  (44) 
-28.7282

>  <r_i_glide_energy>  (44) 
-28.1359

>  <r_i_glide_einternal>  (44) 
4.93885

>  <r_i_glide_intrahb_reward>  (44) 
-0

>  <i_i_glide_confnum>  (44) 
4

>  <i_i_glide_posenum>  (44) 
28

>  <r_i_glide_eff_state_penalty>  (44) 
0

>  <ligand_id>  (44) 
15

>  <original_smiles>  (44) 
CC(=O)OC1C(C)(O)C2CCCC=C2C2CCC3C4(CO4)C4=CC(C)C=CC4C(=O)C3(C)C21C

>  <smiles>  (44) 
[H]OC1(C([H])([H])[H])C([H])(OC(=O)C([H])([H])[H])C2(C([H])([H])[H])C([H])(C3=C([H])C([H])([H])C([H])([H])C([H])([H])C31[H])C([H])([H])C([H])([H])C1([H])C3(OC3([H])[H])C3=C([H])C([H])(C([H])([H])[H])C([H])=C([H])C3([H])C(=O)C12C([H])([H])[H]

$$$$
15:0:1
     RDKit          3D

 72 77  0  0  1  0  0  0  0  0999 V2000
    0.8951   -5.9974   10.5507 C   0  0  0  0  0  0  0  0  0  0  0  0
    0.5905   -4.9958    9.4696 C   0  0  0  0  0  0  0  0  0  0  0  0
   -0.4815   -4.4070    9.4924 O   0  0  0  0  0  0  0  0  0  0  0  0
    1.6154   -4.8680    8.5774 O   0  0  0  0  0  0  0  0  0  0  0  0
    1.6388   -4.0190    7.4133 C   0  0  2  0  0  0  0  0  0  0  0  0
    1.5295   -2.4487    7.7430 C   0  0  1  0  0  0  0  0  0  0  0  0
    1.4247   -2.0915    9.2584 C   0  0  0  0  0  0  0  0  0  0  0  0
    2.7718   -1.8491    7.3593 O   0  0  0  0  0  0  0  0  0  0  0  0
    0.4013   -1.7369    6.9174 C   0  0  1  0  0  0  0  0  0  0  0  0
    0.2841   -0.2009    7.1315 C   0  0  0  0  0  0  0  0  0  0  0  0
   -0.8204    0.4211    6.2633 C   0  0  0  0  0  0  0  0  0  0  0  0
   -0.5850    0.1649    4.7737 C   0  0  0  0  0  0  0  0  0  0  0  0
   -0.0693   -1.2409    4.4985 C   0  0  0  0  0  0  0  0  0  0  0  0
    0.3805   -2.0979    5.4256 C   0  0  0  0  0  0  0  0  0  0  0  0
    0.8797   -3.4977    5.0247 C   0  0  1  0  0  0  0  0  0  0  0  0
    2.2839   -3.3845    4.3817 C   0  0  0  0  0  0  0  0  0  0  0  0
    2.7390   -4.7143    3.7979 C   0  0  0  0  0  0  0  0  0  0  0  0
    2.7331   -5.8260    4.8705 C   0  0  2  0  0  0  0  0  0  0  0  0
    3.2974   -7.1268    4.2766 C   0  0  1  0  0  0  0  0  0  0  0  0
    4.7038   -7.1933    3.7491 C   0  0  0  0  0  0  0  0  0  0  0  0
    4.3663   -7.6971    5.0471 O   0  0  0  0  0  0  0  0  0  0  0  0
    2.2999   -8.1456    3.7989 C   0  0  0  0  0  0  0  0  0  0  0  0
    2.5254   -9.4688    3.8001 C   0  0  0  0  0  0  0  0  0  0  0  0
    1.5171  -10.5370    3.3647 C   0  0  1  0  0  0  0  0  0  0  0  0
    1.2913  -11.5602    4.4798 C   0  0  0  0  0  0  0  0  0  0  0  0
    0.2154   -9.9084    2.9233 C   0  0  0  0  0  0  0  0  0  0  0  0
   -0.0450   -8.5941    2.9338 C   0  0  0  0  0  0  0  0  0  0  0  0
    0.9774   -7.5397    3.3709 C   0  0  1  0  0  0  0  0  0  0  0  0
    0.3580   -6.6026    4.4498 C   0  0  0  0  0  0  0  0  0  0  0  0
   -0.8044   -6.3174    4.3669 O   0  0  0  0  0  0  0  0  0  0  0  0
    1.3212   -5.9975    5.5538 C   0  0  1  0  0  0  0  0  0  0  0  0
    1.4200   -7.0891    6.6635 C   0  0  0  0  0  0  0  0  0  0  0  0
    0.7880   -4.5737    6.1819 C   0  0  1  0  0  0  0  0  0  0  0  0
   -0.6729   -4.6970    6.6382 C   0  0  0  0  0  0  0  0  0  0  0  0
    0.9876   -7.0160   10.1203 H   0  0  0  0  0  0  0  0  0  0  0  0
    0.0201   -5.9670   11.2333 H   0  0  0  0  0  0  0  0  0  0  0  0
    1.7960   -5.6830   11.1149 H   0  0  0  0  0  0  0  0  0  0  0  0
    2.6705   -4.1101    7.0648 H   0  0  0  0  0  0  0  0  0  0  0  0
    0.4702   -2.4032    9.6635 H   0  0  0  0  0  0  0  0  0  0  0  0
    1.4897   -1.0245    9.4495 H   0  0  0  0  0  0  0  0  0  0  0  0
    2.2334   -2.5757    9.8159 H   0  0  0  0  0  0  0  0  0  0  0  0
    3.4406   -2.2069    7.9103 H   0  0  0  0  0  0  0  0  0  0  0  0
   -0.5404   -2.1035    7.3153 H   0  0  0  0  0  0  0  0  0  0  0  0
    0.0604    0.0310    8.1732 H   0  0  0  0  0  0  0  0  0  0  0  0
    1.2372    0.2765    6.9022 H   0  0  0  0  0  0  0  0  0  0  0  0
   -1.7861    0.0039    6.5392 H   0  0  0  0  0  0  0  0  0  0  0  0
   -0.8874    1.4930    6.4510 H   0  0  0  0  0  0  0  0  0  0  0  0
   -1.5065    0.3333    4.2169 H   0  0  0  0  0  0  0  0  0  0  0  0
    0.1445    0.8714    4.3822 H   0  0  0  0  0  0  0  0  0  0  0  0
   -0.0472   -1.5275    3.4599 H   0  0  0  0  0  0  0  0  0  0  0  0
    0.2052   -3.8035    4.2175 H   0  0  0  0  0  0  0  0  0  0  0  0
    2.2794   -2.6330    3.5931 H   0  0  0  0  0  0  0  0  0  0  0  0
    3.0207   -3.0438    5.1053 H   0  0  0  0  0  0  0  0  0  0  0  0
    2.1052   -4.9757    2.9525 H   0  0  0  0  0  0  0  0  0  0  0  0
    3.7368   -4.5944    3.3932 H   0  0  0  0  0  0  0  0  0  0  0  0
    3.4447   -5.5239    5.6431 H   0  0  0  0  0  0  0  0  0  0  0  0
    4.9552   -7.9481    3.0061 H   0  0  0  0  0  0  0  0  0  0  0  0
    5.3236   -6.2965    3.7602 H   0  0  0  0  0  0  0  0  0  0  0  0
    3.4821   -9.8537    4.1132 H   0  0  0  0  0  0  0  0  0  0  0  0
    1.9461  -11.0483    2.5028 H   0  0  0  0  0  0  0  0  0  0  0  0
    0.8659  -11.0899    5.3658 H   0  0  0  0  0  0  0  0  0  0  0  0
    2.2188  -12.0495    4.7754 H   0  0  0  0  0  0  0  0  0  0  0  0
    0.6042  -12.3446    4.1633 H   0  0  0  0  0  0  0  0  0  0  0  0
   -0.5505  -10.5923    2.5736 H   0  0  0  0  0  0  0  0  0  0  0  0
   -1.0107   -8.2455    2.6048 H   0  0  0  0  0  0  0  0  0  0  0  0
    1.1568   -6.9151    2.5023 H   0  0  0  0  0  0  0  0  0  0  0  0
    2.3786   -7.0500    7.1846 H   0  0  0  0  0  0  0  0  0  0  0  0
    1.3274   -8.1070    6.2771 H   0  0  0  0  0  0  0  0  0  0  0  0
    0.6407   -7.0154    7.4177 H   0  0  0  0  0  0  0  0  0  0  0  0
   -1.3502   -4.2480    5.9180 H   0  0  0  0  0  0  0  0  0  0  0  0
   -0.9038   -4.0702    7.4728 H   0  0  0  0  0  0  0  0  0  0  0  0
   -0.9921   -5.7049    6.8602 H   0  0  0  0  0  0  0  0  0  0  0  0
  1  2  1  0
  1 35  1  0
  1 36  1  0
  1 37  1  0
  2  3  2  0
  2  4  1  0
  4  5  1  0
  5 33  1  0
  5  6  1  0
  5 38  1  6
  6  7  1  0
  6  8  1  6
  6  9  1  0
  7 39  1  0
  7 40  1  0
  7 41  1  0
  8 42  1  0
  9 14  1  0
  9 10  1  0
  9 43  1  1
 10 11  1  0
 10 44  1  0
 10 45  1  0
 11 12  1  0
 11 46  1  0
 11 47  1  0
 12 13  1  0
 12 48  1  0
 12 49  1  0
 13 14  2  0
 13 50  1  0
 14 15  1  0
 15 33  1  0
 15 16  1  0
 15 51  1  6
 16 17  1  0
 16 52  1  0
 16 53  1  0
 17 18  1  0
 17 54  1  0
 17 55  1  0
 18 31  1  0
 18 19  1  0
 18 56  1  1
 19 21  1  1
 19 20  1  0
 19 22  1  0
 20 21  1  0
 20 57  1  0
 20 58  1  0
 22 28  1  0
 22 23  2  0
 23 24  1  0
 23 59  1  0
 24 25  1  0
 24 26  1  0
 24 60  1  6
 25 61  1  0
 25 62  1  0
 25 63  1  0
 26 27  2  0
 26 64  1  0
 27 28  1  0
 27 65  1  0
 28 29  1  0
 28 66  1  6
 29 30  2  0
 29 31  1  0
 31 32  1  1
 31 33  1  0
 32 67  1  0
 32 68  1  0
 32 69  1  0
 33 34  1  1
 34 70  1  0
 34 71  1  0
 34 72  1  0
M  END
>  <i_m_ct_stereo_status>  (45) 
1

>  <s_m_source_file>  (45) 
/var/tmp/pbs.5076255.sched01/tmpmjg_sug8/0d5zvyqle.sdf

>  <i_m_source_file_index>  (45) 
20

>  <i_lp_mmshare_version>  (45) 
48012

>  <i_f3d_flags>  (45) 
0

>  <s_epik_input>  (45) 
W0NIM11DKD1PKU9bQ0BASF0xW0NAQF0oW0NIM10pKFtPSF0pW0NAQEhdKFtDSDJdW0NIMl1bQ0gyXVtDSF09MilDMltDQEBIXShbQ0gyXVtDSDJdMylbQ0BAXTEoW0NIM10pW0NAXShbQ0gzXSkoW0NASF0zW0NAQF00NVtDSDJdTzQpQyg9TylbQ0BIXTZDNT1bQ0hdW0NAQEhdKFtDSDNdKVtDSF09W0NIXTY=

>  <s_epik_cmdline>  (45) 
J2VwaWtfcHl0aG9uJywgJy1waHQnLCAnMi4wJywgJy1waCcsICc3LjAnLCAnLXRuJywgJzgnLCAnLW1hJywgJzIwMCcsICctaW1hZScsICc8aW5maWxlLm1hZT4nLCAnLW9tYWUnLCAnPG91dGZpbGUubWFlPic=

>  <r_lp_tautomer_probability>  (45) 
1

>  <r_epik_Ionization_Penalty>  (45) 
3.30596e-08

>  <r_epik_Ionization_Penalty_Charging>  (45) 
0

>  <r_epik_Ionization_Penalty_Neutral>  (45) 
3.30596e-08

>  <r_epik_State_Penalty>  (45) 
-0

>  <r_epik_Charging_Adjusted_Penalty>  (45) 
0

>  <i_epik_Tot_Q>  (45) 
0

>  <i_epik_Tot_abs_Q>  (45) 
0

>  <s_epik_Chemistry_Notes>  (45) 
This compound has an ester and may undergo hydrolysis at high or low pH.

>  <s_lp_Force_Field>  (45) 
OPLS3e

>  <r_lp_Energy>  (45) 
52.4933

>  <b_lp_Chiralities_Consistent>  (45) 
1

>  <s_lp_Variant>  (45) 
15:0-1

>  <s_i_glide_gridfile>  (45) 
pfpi4k_grid

>  <i_i_glide_lignum>  (45) 
20

>  <i_i_glide_rotatable_bonds>  (45) 
3

>  <r_i_docking_score>  (45) 
-1.76051

>  <r_i_glide_ligand_efficiency>  (45) 
-0.0517798

>  <r_i_glide_ligand_efficiency_sa>  (45) 
-0.167746

>  <r_i_glide_ligand_efficiency_ln>  (45) 
-0.388946

>  <r_i_glide_gscore>  (45) 
-1.76051

>  <r_i_glide_lipo>  (45) 
-0.149408

>  <r_i_glide_hbond>  (45) 
-0.0150405

>  <r_i_glide_metal>  (45) 
-0

>  <r_i_glide_rewards>  (45) 
-0.227666

>  <r_i_glide_evdw>  (45) 
-24.8099

>  <r_i_glide_ecoul>  (45) 
-1.30607

>  <r_i_glide_erotb>  (45) 
0.0926679

>  <r_i_glide_esite>  (45) 
-0.0246599

>  <r_i_glide_emodel>  (45) 
-23.9021

>  <r_i_glide_energy>  (45) 
-26.116

>  <r_i_glide_einternal>  (45) 
7.98603

>  <r_i_glide_intrahb_reward>  (45) 
-0

>  <i_i_glide_confnum>  (45) 
2

>  <i_i_glide_posenum>  (45) 
13

>  <r_i_glide_eff_state_penalty>  (45) 
0

>  <ligand_id>  (45) 
15

>  <original_smiles>  (45) 
CC(=O)OC1C(C)(O)C2CCCC=C2C2CCC3C4(CO4)C4=CC(C)C=CC4C(=O)C3(C)C21C

>  <smiles>  (45) 
[H]OC1(C([H])([H])[H])C([H])(OC(=O)C([H])([H])[H])C2(C([H])([H])[H])C([H])(C3=C([H])C([H])([H])C([H])([H])C([H])([H])C31[H])C([H])([H])C([H])([H])C1([H])C3(OC3([H])[H])C3=C([H])C([H])(C([H])([H])[H])C([H])=C([H])C3([H])C(=O)C12C([H])([H])[H]

$$$$
15:0:2
     RDKit          3D

 72 77  0  0  1  0  0  0  0  0999 V2000
    6.8467   -6.8361    6.1610 C   0  0  0  0  0  0  0  0  0  0  0  0
    5.5539   -7.2642    5.5260 C   0  0  0  0  0  0  0  0  0  0  0  0
    5.5878   -7.9484    4.4759 O   0  0  0  0  0  0  0  0  0  0  0  0
    4.4565   -6.8582    6.1910 O   0  0  0  0  0  0  0  0  0  0  0  0
    3.0708   -7.0724    5.8236 C   0  0  2  0  0  0  0  0  0  0  0  0
    2.6366   -8.6209    5.7723 C   0  0  1  0  0  0  0  0  0  0  0  0
    3.7783   -9.6360    6.1332 C   0  0  0  0  0  0  0  0  0  0  0  0
    1.6665   -8.8579    6.7962 O   0  0  0  0  0  0  0  0  0  0  0  0
    1.9532   -9.0144    4.4187 C   0  0  1  0  0  0  0  0  0  0  0  0
    1.4384  -10.4789    4.3341 C   0  0  0  0  0  0  0  0  0  0  0  0
    0.7501  -10.7586    2.9946 C   0  0  0  0  0  0  0  0  0  0  0  0
   -0.4291   -9.8197    2.7472 C   0  0  0  0  0  0  0  0  0  0  0  0
   -0.1624   -8.4012    3.2023 C   0  0  0  0  0  0  0  0  0  0  0  0
    0.8886   -8.0108    3.9489 C   0  0  0  0  0  0  0  0  0  0  0  0
    1.0577   -6.5387    4.3392 C   0  0  1  0  0  0  0  0  0  0  0  0
    0.0680   -6.1694    5.4670 C   0  0  0  0  0  0  0  0  0  0  0  0
    0.0826   -4.6786    5.7546 C   0  0  0  0  0  0  0  0  0  0  0  0
    1.4977   -4.1877    6.1236 C   0  0  2  0  0  0  0  0  0  0  0  0
    1.4580   -2.7015    6.5040 C   0  0  1  0  0  0  0  0  0  0  0  0
    0.6332   -2.2322    7.6765 C   0  0  0  0  0  0  0  0  0  0  0  0
    2.0547   -2.4163    7.7779 O   0  0  0  0  0  0  0  0  0  0  0  0
    1.8223   -1.7169    5.4431 C   0  0  0  0  0  0  0  0  0  0  0  0
    2.3857   -0.5090    5.6940 C   0  0  0  0  0  0  0  0  0  0  0  0
    2.8188    0.5009    4.6425 C   0  0  1  0  0  0  0  0  0  0  0  0
    4.2973    0.8756    4.8066 C   0  0  0  0  0  0  0  0  0  0  0  0
    2.5368   -0.0073    3.2372 C   0  0  0  0  0  0  0  0  0  0  0  0
    1.9995   -1.2060    2.9630 C   0  0  0  0  0  0  0  0  0  0  0  0
    1.5703   -2.2123    4.0225 C   0  0  1  0  0  0  0  0  0  0  0  0
    2.1932   -3.5964    3.7709 C   0  0  0  0  0  0  0  0  0  0  0  0
    2.3185   -3.9714    2.6019 O   0  0  0  0  0  0  0  0  0  0  0  0
    2.5539   -4.5191    4.9906 C   0  0  1  0  0  0  0  0  0  0  0  0
    3.9669   -4.0514    5.4728 C   0  0  0  0  0  0  0  0  0  0  0  0
    2.5539   -6.1228    4.6387 C   0  0  1  0  0  0  0  0  0  0  0  0
    3.4140   -6.4247    3.3554 C   0  0  0  0  0  0  0  0  0  0  0  0
    6.9258   -5.7183    6.1300 H   0  0  0  0  0  0  0  0  0  0  0  0
    7.6379   -7.2828    5.5383 H   0  0  0  0  0  0  0  0  0  0  0  0
    6.9026   -7.2588    7.1955 H   0  0  0  0  0  0  0  0  0  0  0  0
    2.5235   -6.7183    6.6976 H   0  0  0  0  0  0  0  0  0  0  0  0
    4.5343   -9.6514    5.3533 H   0  0  0  0  0  0  0  0  0  0  0  0
    3.4162  -10.6743    6.2141 H   0  0  0  0  0  0  0  0  0  0  0  0
    4.2318   -9.3610    7.1038 H   0  0  0  0  0  0  0  0  0  0  0  0
    1.5457   -9.7989    6.8494 H   0  0  0  0  0  0  0  0  0  0  0  0
    2.7330   -8.9897    3.6646 H   0  0  0  0  0  0  0  0  0  0  0  0
    2.2633  -11.1858    4.4344 H   0  0  0  0  0  0  0  0  0  0  0  0
    0.7423  -10.6855    5.1462 H   0  0  0  0  0  0  0  0  0  0  0  0
    1.4716  -10.6360    2.1864 H   0  0  0  0  0  0  0  0  0  0  0  0
    0.4287  -11.7982    2.9531 H   0  0  0  0  0  0  0  0  0  0  0  0
   -0.7198   -9.8383    1.7064 H   0  0  0  0  0  0  0  0  0  0  0  0
   -1.3229  -10.1842    3.2165 H   0  0  0  0  0  0  0  0  0  0  0  0
   -0.8973   -7.6745    2.9017 H   0  0  0  0  0  0  0  0  0  0  0  0
    0.7407   -5.9853    3.4506 H   0  0  0  0  0  0  0  0  0  0  0  0
   -0.9361   -6.4740    5.1925 H   0  0  0  0  0  0  0  0  0  0  0  0
    0.2983   -6.7106    6.3767 H   0  0  0  0  0  0  0  0  0  0  0  0
   -0.3076   -4.1343    4.8976 H   0  0  0  0  0  0  0  0  0  0  0  0
   -0.6031   -4.4757    6.5708 H   0  0  0  0  0  0  0  0  0  0  0  0
    1.7927   -4.7206    7.0280 H   0  0  0  0  0  0  0  0  0  0  0  0
    0.3001   -1.1957    7.7070 H   0  0  0  0  0  0  0  0  0  0  0  0
    0.0492   -2.9519    8.2451 H   0  0  0  0  0  0  0  0  0  0  0  0
    2.5447   -0.2015    6.7169 H   0  0  0  0  0  0  0  0  0  0  0  0
    2.2224    1.4016    4.7833 H   0  0  0  0  0  0  0  0  0  0  0  0
    4.9327    0.0010    4.6678 H   0  0  0  0  0  0  0  0  0  0  0  0
    4.4990    1.2805    5.8001 H   0  0  0  0  0  0  0  0  0  0  0  0
    4.5979    1.6250    4.0729 H   0  0  0  0  0  0  0  0  0  0  0  0
    2.7894    0.6615    2.4244 H   0  0  0  0  0  0  0  0  0  0  0  0
    1.8359   -1.4806    1.9256 H   0  0  0  0  0  0  0  0  0  0  0  0
    0.4989   -2.3409    3.9081 H   0  0  0  0  0  0  0  0  0  0  0  0
    4.1046   -4.2086    6.5432 H   0  0  0  0  0  0  0  0  0  0  0  0
    4.1499   -2.9929    5.2946 H   0  0  0  0  0  0  0  0  0  0  0  0
    4.7872   -4.5576    4.9656 H   0  0  0  0  0  0  0  0  0  0  0  0
    2.7940   -6.5023    2.4517 H   0  0  0  0  0  0  0  0  0  0  0  0
    3.8853   -7.3711    3.4259 H   0  0  0  0  0  0  0  0  0  0  0  0
    4.1829   -5.6588    3.2045 H   0  0  0  0  0  0  0  0  0  0  0  0
  1  2  1  0
  1 35  1  0
  1 36  1  0
  1 37  1  0
  2  3  2  0
  2  4  1  0
  4  5  1  0
  5 33  1  0
  5  6  1  0
  5 38  1  1
  6  7  1  0
  6  8  1  1
  6  9  1  0
  7 39  1  0
  7 40  1  0
  7 41  1  0
  8 42  1  0
  9 14  1  0
  9 10  1  0
  9 43  1  6
 10 11  1  0
 10 44  1  0
 10 45  1  0
 11 12  1  0
 11 46  1  0
 11 47  1  0
 12 13  1  0
 12 48  1  0
 12 49  1  0
 13 14  2  0
 13 50  1  0
 14 15  1  0
 15 33  1  0
 15 16  1  0
 15 51  1  6
 16 17  1  0
 16 52  1  0
 16 53  1  0
 17 18  1  0
 17 54  1  0
 17 55  1  0
 18 31  1  0
 18 19  1  0
 18 56  1  1
 19 21  1  1
 19 20  1  0
 19 22  1  0
 20 21  1  0
 20 57  1  0
 20 58  1  0
 22 28  1  0
 22 23  2  0
 23 24  1  0
 23 59  1  0
 24 25  1  0
 24 26  1  0
 24 60  1  1
 25 61  1  0
 25 62  1  0
 25 63  1  0
 26 27  2  0
 26 64  1  0
 27 28  1  0
 27 65  1  0
 28 29  1  0
 28 66  1  1
 29 30  2  0
 29 31  1  0
 31 32  1  1
 31 33  1  0
 32 67  1  0
 32 68  1  0
 32 69  1  0
 33 34  1  6
 34 70  1  0
 34 71  1  0
 34 72  1  0
M  END
>  <i_m_ct_stereo_status>  (46) 
1

>  <s_m_source_file>  (46) 
/var/tmp/pbs.5076255.sched01/tmpmjg_sug8/0d5zvyqle.sdf

>  <i_m_source_file_index>  (46) 
20

>  <i_lp_mmshare_version>  (46) 
48012

>  <i_f3d_flags>  (46) 
0

>  <s_epik_input>  (46) 
W0NIM11DKD1PKU9bQ0BASF0xW0NAQF0oW0NIM10pKFtPSF0pW0NAQEhdKFtDSDJdW0NIMl1bQ0gyXVtDSF09MilDMltDQEBIXShbQ0gyXVtDSDJdMylbQ0BAXTEoW0NIM10pW0NAXShbQ0gzXSkoW0NASF0zW0NAQF00NVtDSDJdTzQpQyg9TylbQ0BIXTZDNT1bQ0hdW0NAQEhdKFtDSDNdKVtDSF09W0NIXTY=

>  <s_epik_cmdline>  (46) 
J2VwaWtfcHl0aG9uJywgJy1waHQnLCAnMi4wJywgJy1waCcsICc3LjAnLCAnLXRuJywgJzgnLCAnLW1hJywgJzIwMCcsICctaW1hZScsICc8aW5maWxlLm1hZT4nLCAnLW9tYWUnLCAnPG91dGZpbGUubWFlPic=

>  <r_lp_tautomer_probability>  (46) 
1

>  <r_epik_Ionization_Penalty>  (46) 
3.30596e-08

>  <r_epik_Ionization_Penalty_Charging>  (46) 
0

>  <r_epik_Ionization_Penalty_Neutral>  (46) 
3.30596e-08

>  <r_epik_State_Penalty>  (46) 
-0

>  <r_epik_Charging_Adjusted_Penalty>  (46) 
0

>  <i_epik_Tot_Q>  (46) 
0

>  <i_epik_Tot_abs_Q>  (46) 
0

>  <s_epik_Chemistry_Notes>  (46) 
This compound has an ester and may undergo hydrolysis at high or low pH.

>  <s_lp_Force_Field>  (46) 
OPLS3e

>  <r_lp_Energy>  (46) 
52.4933

>  <b_lp_Chiralities_Consistent>  (46) 
1

>  <s_lp_Variant>  (46) 
15:0-1

>  <s_i_glide_gridfile>  (46) 
pfpi4k_grid

>  <i_i_glide_lignum>  (46) 
20

>  <i_i_glide_rotatable_bonds>  (46) 
3

>  <r_i_docking_score>  (46) 
-1.55753

>  <r_i_glide_ligand_efficiency>  (46) 
-0.0458097

>  <r_i_glide_ligand_efficiency_sa>  (46) 
-0.148406

>  <r_i_glide_ligand_efficiency_ln>  (46) 
-0.344102

>  <r_i_glide_gscore>  (46) 
-1.55753

>  <r_i_glide_lipo>  (46) 
-0.129283

>  <r_i_glide_hbond>  (46) 
0

>  <r_i_glide_metal>  (46) 
-0

>  <r_i_glide_rewards>  (46) 
-0.2301

>  <r_i_glide_evdw>  (46) 
-23.0596

>  <r_i_glide_ecoul>  (46) 
-0.918877

>  <r_i_glide_erotb>  (46) 
0.0926679

>  <r_i_glide_esite>  (46) 
0

>  <r_i_glide_emodel>  (46) 
-21.1765

>  <r_i_glide_energy>  (46) 
-23.9785

>  <r_i_glide_einternal>  (46) 
7.97892

>  <r_i_glide_intrahb_reward>  (46) 
-0

>  <i_i_glide_confnum>  (46) 
4

>  <i_i_glide_posenum>  (46) 
37

>  <r_i_glide_eff_state_penalty>  (46) 
0

>  <ligand_id>  (46) 
15

>  <original_smiles>  (46) 
CC(=O)OC1C(C)(O)C2CCCC=C2C2CCC3C4(CO4)C4=CC(C)C=CC4C(=O)C3(C)C21C

>  <smiles>  (46) 
[H]OC1(C([H])([H])[H])C([H])(OC(=O)C([H])([H])[H])C2(C([H])([H])[H])C([H])(C3=C([H])C([H])([H])C([H])([H])C([H])([H])C31[H])C([H])([H])C([H])([H])C1([H])C3(OC3([H])[H])C3=C([H])C([H])(C([H])([H])[H])C([H])=C([H])C3([H])C(=O)C12C([H])([H])[H]

$$$$
16:0:0
     RDKit          3D

 64 68  0  0  1  0  0  0  0  0999 V2000
    2.2563   -2.6595   -3.5006 C   0  0  0  0  0  0  0  0  0  0  0  0
    3.6140   -3.0447   -3.7421 O   0  0  0  0  0  0  0  0  0  0  0  0
    4.6160   -2.8525   -2.8256 C   0  0  0  0  0  0  0  0  0  0  0  0
    5.7955   -3.1462   -3.0389 O   0  0  0  0  0  0  0  0  0  0  0  0
    4.1997   -2.2043   -1.4849 C   0  0  2  0  0  0  0  0  0  0  0  0
    5.3161   -1.3504   -0.8564 C   0  0  0  0  0  0  0  0  0  0  0  0
    4.9487   -1.3528    0.6361 C   0  0  0  0  0  0  0  0  0  0  0  0
    5.5437   -0.6737    1.4728 O   0  0  0  0  0  0  0  0  0  0  0  0
    3.7376   -2.2538    0.8832 C   0  0  2  0  0  0  0  0  0  0  0  0
    2.5533   -1.3876    0.9274 O   0  0  0  0  0  0  0  0  0  0  0  0
    3.7888   -3.0155    2.2398 C   0  0  0  0  0  0  0  0  0  0  0  0
    3.9938   -4.3542    2.2988 C   0  0  0  0  0  0  0  0  0  0  0  0
    4.3003   -5.2023    1.0646 C   0  0  0  0  0  0  0  0  0  0  0  0
    4.7073   -4.3500   -0.1391 C   0  0  0  0  0  0  0  0  0  0  0  0
    3.7089   -3.1642   -0.3460 C   0  0  2  0  0  0  0  0  0  0  0  0
    2.3102   -3.7763   -0.5708 C   0  0  0  0  0  0  0  0  0  0  0  0
    3.9513   -5.1149    3.6724 C   0  0  2  0  0  0  0  0  0  0  0  0
    5.4078   -5.0574    4.1974 C   0  0  0  0  0  0  0  0  0  0  0  0
    3.5188   -6.6286    3.5362 C   0  0  1  0  0  0  0  0  0  0  0  0
    3.8294   -7.3664    4.7106 O   0  0  0  0  0  0  0  0  0  0  0  0
    2.0034   -6.7243    3.3179 C   0  0  1  0  0  0  0  0  0  0  0  0
    1.4395   -8.0053    3.1390 O   0  0  0  0  0  0  0  0  0  0  0  0
    0.1194   -7.8672    3.5485 C   0  0  0  0  0  0  0  0  0  0  0  0
   -0.8080   -7.9249    2.3246 C   0  0  0  0  0  0  0  0  0  0  0  0
   -0.1841   -8.9797    4.5644 C   0  0  0  0  0  0  0  0  0  0  0  0
   -0.0649   -6.6156    4.1385 O   0  0  0  0  0  0  0  0  0  0  0  0
    1.2327   -6.1718    4.4952 C   0  0  2  0  0  0  0  0  0  0  0  0
    1.4622   -4.6570    4.5217 C   0  0  1  0  0  0  0  0  0  0  0  0
    0.7426   -4.1068    5.6194 O   0  0  0  0  0  0  0  0  0  0  0  0
    2.9930   -4.3530    4.6827 C   0  0  2  0  0  0  0  0  0  0  0  0
    3.2088   -2.8566    4.5967 C   0  0  0  0  0  0  0  0  0  0  0  0
    3.5836   -2.2602    3.4515 C   0  0  0  0  0  0  0  0  0  0  0  0
    1.6152   -2.8357   -4.3551 H   0  0  0  0  0  0  0  0  0  0  0  0
    2.2177   -1.6040   -3.2204 H   0  0  0  0  0  0  0  0  0  0  0  0
    1.8246   -3.2468   -2.7286 H   0  0  0  0  0  0  0  0  0  0  0  0
    3.4056   -1.4771   -1.6668 H   0  0  0  0  0  0  0  0  0  0  0  0
    6.3123   -1.7767   -0.9878 H   0  0  0  0  0  0  0  0  0  0  0  0
    5.3099   -0.3308   -1.2582 H   0  0  0  0  0  0  0  0  0  0  0  0
    2.1005   -1.4272    0.1030 H   0  0  0  0  0  0  0  0  0  0  0  0
    5.1106   -5.8946    1.2645 H   0  0  0  0  0  0  0  0  0  0  0  0
    3.4328   -5.8072    0.8017 H   0  0  0  0  0  0  0  0  0  0  0  0
    5.7187   -3.9743    0.0239 H   0  0  0  0  0  0  0  0  0  0  0  0
    4.7647   -4.9799   -1.0280 H   0  0  0  0  0  0  0  0  0  0  0  0
    1.8853   -4.2591    0.2902 H   0  0  0  0  0  0  0  0  0  0  0  0
    2.3275   -4.5089   -1.3744 H   0  0  0  0  0  0  0  0  0  0  0  0
    1.6009   -3.0097   -0.8814 H   0  0  0  0  0  0  0  0  0  0  0  0
    5.4965   -5.4443    5.2125 H   0  0  0  0  0  0  0  0  0  0  0  0
    5.7932   -4.0363    4.2200 H   0  0  0  0  0  0  0  0  0  0  0  0
    6.0847   -5.6353    3.5686 H   0  0  0  0  0  0  0  0  0  0  0  0
    4.0466   -7.1414    2.7373 H   0  0  0  0  0  0  0  0  0  0  0  0
    3.6066   -8.2658    4.5560 H   0  0  0  0  0  0  0  0  0  0  0  0
    1.7505   -6.1671    2.4161 H   0  0  0  0  0  0  0  0  0  0  0  0
   -0.5647   -7.1131    1.6409 H   0  0  0  0  0  0  0  0  0  0  0  0
   -1.8447   -7.8268    2.6379 H   0  0  0  0  0  0  0  0  0  0  0  0
   -0.6838   -8.8748    1.8072 H   0  0  0  0  0  0  0  0  0  0  0  0
    0.5005   -8.9234    5.4130 H   0  0  0  0  0  0  0  0  0  0  0  0
   -0.0599   -9.9557    4.0938 H   0  0  0  0  0  0  0  0  0  0  0  0
   -1.2041   -8.9038    4.9283 H   0  0  0  0  0  0  0  0  0  0  0  0
    1.5216   -6.6358    5.4364 H   0  0  0  0  0  0  0  0  0  0  0  0
    1.0871   -4.2105    3.6045 H   0  0  0  0  0  0  0  0  0  0  0  0
    1.0259   -4.5116    6.4067 H   0  0  0  0  0  0  0  0  0  0  0  0
    3.2824   -4.6553    5.6900 H   0  0  0  0  0  0  0  0  0  0  0  0
    3.0612   -2.2652    5.4887 H   0  0  0  0  0  0  0  0  0  0  0  0
    3.7311   -1.1906    3.4461 H   0  0  0  0  0  0  0  0  0  0  0  0
  1  2  1  0
  1 33  1  0
  1 34  1  0
  1 35  1  0
  2  3  1  0
  3  4  2  0
  3  5  1  0
  5 15  1  0
  5  6  1  0
  5 36  1  6
  6  7  1  0
  6 37  1  0
  6 38  1  0
  7  8  2  0
  7  9  1  0
  9 15  1  0
  9 10  1  1
  9 11  1  0
 10 39  1  0
 11 32  1  0
 11 12  2  0
 12 13  1  0
 12 17  1  0
 13 14  1  0
 13 40  1  0
 13 41  1  0
 14 15  1  0
 14 42  1  0
 14 43  1  0
 15 16  1  6
 16 44  1  0
 16 45  1  0
 16 46  1  0
 17 30  1  0
 17 18  1  1
 17 19  1  0
 18 47  1  0
 18 48  1  0
 18 49  1  0
 19 20  1  0
 19 21  1  0
 19 50  1  6
 20 51  1  0
 21 27  1  0
 21 22  1  0
 21 52  1  6
 22 23  1  0
 23 24  1  0
 23 25  1  0
 23 26  1  0
 24 53  1  0
 24 54  1  0
 24 55  1  0
 25 56  1  0
 25 57  1  0
 25 58  1  0
 26 27  1  0
 27 28  1  0
 27 59  1  1
 28 29  1  0
 28 30  1  0
 28 60  1  6
 29 61  1  0
 30 31  1  0
 30 62  1  1
 31 32  2  0
 31 63  1  0
 32 64  1  0
M  END
>  <i_m_ct_stereo_status>  (47) 
1

>  <s_m_source_file>  (47) 
/var/tmp/pbs.5076255.sched01/tmpmjg_sug8/0d5zvyqle.sdf

>  <i_m_source_file_index>  (47) 
21

>  <i_lp_mmshare_version>  (47) 
48012

>  <i_f3d_flags>  (47) 
0

>  <s_epik_input>  (47) 
W0NIM11PQyg9TylbQ0BIXShbQ0gyXUMxPU8pW0NAQF0yKFtDSDNdKVtDSDJdW0NIMl1DKD1DM1tDQEBdMTJbT0hdKVtDQEBdNChbQ0gzXSlbQ0BASF0oW0NIXT1bQ0hdMylbQ0BIXShbT0hdKVtDQEBIXTVbQ0BASF0oW0NAQEhdNFtPSF0pT0MoTzUpKFtDSDNdKVtDSDNd

>  <s_epik_cmdline>  (47) 
J2VwaWtfcHl0aG9uJywgJy1waHQnLCAnMi4wJywgJy1waCcsICc3LjAnLCAnLXRuJywgJzgnLCAnLW1hJywgJzIwMCcsICctaW1hZScsICc8aW5maWxlLm1hZT4nLCAnLW9tYWUnLCAnPG91dGZpbGUubWFlPic=

>  <r_lp_tautomer_probability>  (47) 
1

>  <r_epik_Ionization_Penalty>  (47) 
4.94995e-07

>  <r_epik_Ionization_Penalty_Charging>  (47) 
0

>  <r_epik_Ionization_Penalty_Neutral>  (47) 
4.94995e-07

>  <r_epik_State_Penalty>  (47) 
-0

>  <r_epik_Charging_Adjusted_Penalty>  (47) 
0

>  <i_epik_Tot_Q>  (47) 
0

>  <i_epik_Tot_abs_Q>  (47) 
0

>  <s_epik_Chemistry_Notes>  (47) 
This compound has an ester and may undergo hydrolysis at high or low pH.

>  <s_lp_Force_Field>  (47) 
OPLS3e

>  <r_lp_Energy>  (47) 
39.5991

>  <b_lp_Chiralities_Consistent>  (47) 
1

>  <s_lp_Variant>  (47) 
16:0-1

>  <s_i_glide_gridfile>  (47) 
pfpi4k_grid

>  <i_i_glide_lignum>  (47) 
21

>  <i_i_glide_rotatable_bonds>  (47) 
5

>  <r_i_docking_score>  (47) 
-3.26809

>  <r_i_glide_ligand_efficiency>  (47) 
-0.102128

>  <r_i_glide_ligand_efficiency_sa>  (47) 
-0.324236

>  <r_i_glide_ligand_efficiency_ln>  (47) 
-0.731815

>  <r_i_glide_gscore>  (47) 
-3.26809

>  <r_i_glide_lipo>  (47) 
-0.312989

>  <r_i_glide_hbond>  (47) 
0

>  <r_i_glide_metal>  (47) 
-0

>  <r_i_glide_rewards>  (47) 
-0.565055

>  <r_i_glide_evdw>  (47) 
-31.3468

>  <r_i_glide_ecoul>  (47) 
-5.91558

>  <r_i_glide_erotb>  (47) 
0.0995901

>  <r_i_glide_esite>  (47) 
-0.0349615

>  <r_i_glide_emodel>  (47) 
-39.8697

>  <r_i_glide_energy>  (47) 
-37.2624

>  <r_i_glide_einternal>  (47) 
8.44769

>  <r_i_glide_intrahb_reward>  (47) 
-0

>  <i_i_glide_confnum>  (47) 
6

>  <i_i_glide_posenum>  (47) 
32

>  <r_i_glide_eff_state_penalty>  (47) 
0

>  <ligand_id>  (47) 
16

>  <original_smiles>  (47) 
COC(=O)C1CC(=O)C2(O)C3=C(CCC12C)C1(C)C(O)C2OC(C)(C)OC2C(O)C1C=C3

>  <smiles>  (47) 
[H]OC12C(=O)C([H])([H])C([H])(C(=O)OC([H])([H])[H])C1(C([H])([H])[H])C([H])([H])C([H])([H])C1=C2C([H])=C([H])C2([H])C([H])(O[H])C3([H])OC(C([H])([H])[H])(C([H])([H])[H])OC3([H])C([H])(O[H])C12C([H])([H])[H]

$$$$
16:0:1
     RDKit          3D

 64 68  0  0  1  0  0  0  0  0999 V2000
    4.6609   -3.8595   -3.6642 C   0  0  0  0  0  0  0  0  0  0  0  0
    4.3020   -2.9921   -2.6143 O   0  0  0  0  0  0  0  0  0  0  0  0
    5.2315   -2.5562   -1.7535 C   0  0  0  0  0  0  0  0  0  0  0  0
    6.4507   -2.6716   -1.8873 O   0  0  0  0  0  0  0  0  0  0  0  0
    4.5999   -1.8639   -0.5350 C   0  0  2  0  0  0  0  0  0  0  0  0
    5.5685   -0.9868    0.2713 C   0  0  0  0  0  0  0  0  0  0  0  0
    4.9585   -0.9886    1.6637 C   0  0  0  0  0  0  0  0  0  0  0  0
    5.4142   -0.3254    2.6000 O   0  0  0  0  0  0  0  0  0  0  0  0
    3.7244   -1.8988    1.7355 C   0  0  2  0  0  0  0  0  0  0  0  0
    2.5725   -1.0895    1.5626 O   0  0  0  0  0  0  0  0  0  0  0  0
    3.5990   -2.6321    3.0879 C   0  0  0  0  0  0  0  0  0  0  0  0
    3.8147   -3.9665    3.2260 C   0  0  0  0  0  0  0  0  0  0  0  0
    4.3285   -4.8167    2.0649 C   0  0  0  0  0  0  0  0  0  0  0  0
    4.8949   -3.9811    0.9122 C   0  0  0  0  0  0  0  0  0  0  0  0
    3.9398   -2.8253    0.5021 C   0  0  2  0  0  0  0  0  0  0  0  0
    2.6282   -3.4339   -0.0362 C   0  0  0  0  0  0  0  0  0  0  0  0
    3.5785   -4.7018    4.5775 C   0  0  2  0  0  0  0  0  0  0  0  0
    4.9278   -4.6128    5.3385 C   0  0  0  0  0  0  0  0  0  0  0  0
    3.1909   -6.2228    4.4182 C   0  0  1  0  0  0  0  0  0  0  0  0
    3.3256   -6.8808    5.6677 O   0  0  0  0  0  0  0  0  0  0  0  0
    1.7312   -6.3608    3.9640 C   0  0  1  0  0  0  0  0  0  0  0  0
    1.2358   -7.6529    3.7068 O   0  0  0  0  0  0  0  0  0  0  0  0
   -0.1422   -7.5334    3.9008 C   0  0  0  0  0  0  0  0  0  0  0  0
   -0.8555   -7.6388    2.5497 C   0  0  0  0  0  0  0  0  0  0  0  0
   -0.5772   -8.6315    4.8809 C   0  0  0  0  0  0  0  0  0  0  0  0
   -0.4373   -6.2693    4.4281 O   0  0  0  0  0  0  0  0  0  0  0  0
    0.7698   -5.8052    4.9922 C   0  0  2  0  0  0  0  0  0  0  0  0
    0.9799   -4.2872    5.0310 C   0  0  1  0  0  0  0  0  0  0  0  0
    0.1008   -3.7237    5.9917 O   0  0  0  0  0  0  0  0  0  0  0  0
    2.4584   -3.9520    5.4133 C   0  0  2  0  0  0  0  0  0  0  0  0
    2.6539   -2.4536    5.3399 C   0  0  0  0  0  0  0  0  0  0  0  0
    3.1861   -1.8670    4.2561 C   0  0  0  0  0  0  0  0  0  0  0  0
    3.7997   -4.0615   -4.3010 H   0  0  0  0  0  0  0  0  0  0  0  0
    5.0086   -4.8111   -3.2515 H   0  0  0  0  0  0  0  0  0  0  0  0
    5.4526   -3.4554   -4.2906 H   0  0  0  0  0  0  0  0  0  0  0  0
    3.8247   -1.2060   -0.9271 H   0  0  0  0  0  0  0  0  0  0  0  0
    6.5799   -1.3935    0.3111 H   0  0  0  0  0  0  0  0  0  0  0  0
    5.6163    0.0279   -0.1145 H   0  0  0  0  0  0  0  0  0  0  0  0
    2.3232   -1.0603    0.6451 H   0  0  0  0  0  0  0  0  0  0  0  0
    5.1207   -5.4749    2.4185 H   0  0  0  0  0  0  0  0  0  0  0  0
    3.5176   -5.4467    1.7007 H   0  0  0  0  0  0  0  0  0  0  0  0
    5.8615   -3.5857    1.2332 H   0  0  0  0  0  0  0  0  0  0  0  0
    5.1092   -4.6379    0.0669 H   0  0  0  0  0  0  0  0  0  0  0  0
    2.0579   -3.9015    0.7665 H   0  0  0  0  0  0  0  0  0  0  0  0
    2.8161   -4.1965   -0.7950 H   0  0  0  0  0  0  0  0  0  0  0  0
    2.0049   -2.6660   -0.4905 H   0  0  0  0  0  0  0  0  0  0  0  0
    4.8566   -4.9782    6.3632 H   0  0  0  0  0  0  0  0  0  0  0  0
    5.2820   -3.5854    5.4025 H   0  0  0  0  0  0  0  0  0  0  0  0
    5.7032   -5.1910    4.8358 H   0  0  0  0  0  0  0  0  0  0  0  0
    3.8429   -6.7496    3.7220 H   0  0  0  0  0  0  0  0  0  0  0  0
    4.2474   -6.9960    5.8513 H   0  0  0  0  0  0  0  0  0  0  0  0
    1.6045   -5.8141    3.0281 H   0  0  0  0  0  0  0  0  0  0  0  0
   -0.5241   -6.8335    1.8918 H   0  0  0  0  0  0  0  0  0  0  0  0
   -1.9335   -7.5537    2.6991 H   0  0  0  0  0  0  0  0  0  0  0  0
   -0.6362   -8.5991    2.0801 H   0  0  0  0  0  0  0  0  0  0  0  0
   -0.0446   -8.5468    5.8281 H   0  0  0  0  0  0  0  0  0  0  0  0
   -0.3535   -9.6091    4.4533 H   0  0  0  0  0  0  0  0  0  0  0  0
   -1.6514   -8.5811    5.0670 H   0  0  0  0  0  0  0  0  0  0  0  0
    0.9068   -6.2596    5.9768 H   0  0  0  0  0  0  0  0  0  0  0  0
    0.7421   -3.8610    4.0532 H   0  0  0  0  0  0  0  0  0  0  0  0
    0.2477   -4.1578    6.8199 H   0  0  0  0  0  0  0  0  0  0  0  0
    2.5884   -4.2354    6.4588 H   0  0  0  0  0  0  0  0  0  0  0  0
    2.3438   -1.8688    6.1942 H   0  0  0  0  0  0  0  0  0  0  0  0
    3.3192   -0.7979    4.2587 H   0  0  0  0  0  0  0  0  0  0  0  0
  1  2  1  0
  1 33  1  0
  1 34  1  0
  1 35  1  0
  2  3  1  0
  3  4  2  0
  3  5  1  0
  5 15  1  0
  5  6  1  0
  5 36  1  6
  6  7  1  0
  6 37  1  0
  6 38  1  0
  7  8  2  0
  7  9  1  0
  9 15  1  0
  9 10  1  6
  9 11  1  0
 10 39  1  0
 11 32  1  0
 11 12  2  0
 12 13  1  0
 12 17  1  0
 13 14  1  0
 13 40  1  0
 13 41  1  0
 14 15  1  0
 14 42  1  0
 14 43  1  0
 15 16  1  6
 16 44  1  0
 16 45  1  0
 16 46  1  0
 17 30  1  0
 17 18  1  1
 17 19  1  0
 18 47  1  0
 18 48  1  0
 18 49  1  0
 19 20  1  0
 19 21  1  0
 19 50  1  6
 20 51  1  0
 21 27  1  0
 21 22  1  0
 21 52  1  6
 22 23  1  0
 23 24  1  0
 23 25  1  0
 23 26  1  0
 24 53  1  0
 24 54  1  0
 24 55  1  0
 25 56  1  0
 25 57  1  0
 25 58  1  0
 26 27  1  0
 27 28  1  0
 27 59  1  1
 28 29  1  0
 28 30  1  0
 28 60  1  6
 29 61  1  0
 30 31  1  0
 30 62  1  1
 31 32  2  0
 31 63  1  0
 32 64  1  0
M  END
>  <i_m_ct_stereo_status>  (48) 
1

>  <s_m_source_file>  (48) 
/var/tmp/pbs.5076255.sched01/tmpmjg_sug8/0d5zvyqle.sdf

>  <i_m_source_file_index>  (48) 
21

>  <i_lp_mmshare_version>  (48) 
48012

>  <i_f3d_flags>  (48) 
0

>  <s_epik_input>  (48) 
W0NIM11PQyg9TylbQ0BIXShbQ0gyXUMxPU8pW0NAQF0yKFtDSDNdKVtDSDJdW0NIMl1DKD1DM1tDQEBdMTJbT0hdKVtDQEBdNChbQ0gzXSlbQ0BASF0oW0NIXT1bQ0hdMylbQ0BIXShbT0hdKVtDQEBIXTVbQ0BASF0oW0NAQEhdNFtPSF0pT0MoTzUpKFtDSDNdKVtDSDNd

>  <s_epik_cmdline>  (48) 
J2VwaWtfcHl0aG9uJywgJy1waHQnLCAnMi4wJywgJy1waCcsICc3LjAnLCAnLXRuJywgJzgnLCAnLW1hJywgJzIwMCcsICctaW1hZScsICc8aW5maWxlLm1hZT4nLCAnLW9tYWUnLCAnPG91dGZpbGUubWFlPic=

>  <r_lp_tautomer_probability>  (48) 
1

>  <r_epik_Ionization_Penalty>  (48) 
4.94995e-07

>  <r_epik_Ionization_Penalty_Charging>  (48) 
0

>  <r_epik_Ionization_Penalty_Neutral>  (48) 
4.94995e-07

>  <r_epik_State_Penalty>  (48) 
-0

>  <r_epik_Charging_Adjusted_Penalty>  (48) 
0

>  <i_epik_Tot_Q>  (48) 
0

>  <i_epik_Tot_abs_Q>  (48) 
0

>  <s_epik_Chemistry_Notes>  (48) 
This compound has an ester and may undergo hydrolysis at high or low pH.

>  <s_lp_Force_Field>  (48) 
OPLS3e

>  <r_lp_Energy>  (48) 
39.5991

>  <b_lp_Chiralities_Consistent>  (48) 
1

>  <s_lp_Variant>  (48) 
16:0-1

>  <s_i_glide_gridfile>  (48) 
pfpi4k_grid

>  <i_i_glide_lignum>  (48) 
21

>  <i_i_glide_rotatable_bonds>  (48) 
5

>  <r_i_docking_score>  (48) 
-2.72784

>  <r_i_glide_ligand_efficiency>  (48) 
-0.085245

>  <r_i_glide_ligand_efficiency_sa>  (48) 
-0.270636

>  <r_i_glide_ligand_efficiency_ln>  (48) 
-0.610838

>  <r_i_glide_gscore>  (48) 
-2.72784

>  <r_i_glide_lipo>  (48) 
-0.145831

>  <r_i_glide_hbond>  (48) 
-0.0887333

>  <r_i_glide_metal>  (48) 
-0

>  <r_i_glide_rewards>  (48) 
-0.497417

>  <r_i_glide_evdw>  (48) 
-31.8534

>  <r_i_glide_ecoul>  (48) 
-3.04911

>  <r_i_glide_erotb>  (48) 
0.0995901

>  <r_i_glide_esite>  (48) 
-0.04541

>  <r_i_glide_emodel>  (48) 
-39.6614

>  <r_i_glide_energy>  (48) 
-34.9025

>  <r_i_glide_einternal>  (48) 
3.74393

>  <r_i_glide_intrahb_reward>  (48) 
-0

>  <i_i_glide_confnum>  (48) 
4

>  <i_i_glide_posenum>  (48) 
9

>  <r_i_glide_eff_state_penalty>  (48) 
0

>  <ligand_id>  (48) 
16

>  <original_smiles>  (48) 
COC(=O)C1CC(=O)C2(O)C3=C(CCC12C)C1(C)C(O)C2OC(C)(C)OC2C(O)C1C=C3

>  <smiles>  (48) 
[H]OC12C(=O)C([H])([H])C([H])(C(=O)OC([H])([H])[H])C1(C([H])([H])[H])C([H])([H])C([H])([H])C1=C2C([H])=C([H])C2([H])C([H])(O[H])C3([H])OC(C([H])([H])[H])(C([H])([H])[H])OC3([H])C([H])(O[H])C12C([H])([H])[H]

$$$$
16:0:2
     RDKit          3D

 64 68  0  0  1  0  0  0  0  0999 V2000
    8.0507   -2.9557   -1.5210 C   0  0  0  0  0  0  0  0  0  0  0  0
    7.1147   -2.4514   -0.5884 O   0  0  0  0  0  0  0  0  0  0  0  0
    5.8780   -2.1199   -0.9917 C   0  0  0  0  0  0  0  0  0  0  0  0
    5.4403   -2.2411   -2.1347 O   0  0  0  0  0  0  0  0  0  0  0  0
    5.0206   -1.5265    0.1345 C   0  0  2  0  0  0  0  0  0  0  0  0
    5.8142   -0.6385    1.1045 C   0  0  0  0  0  0  0  0  0  0  0  0
    5.0300   -0.7305    2.4012 C   0  0  0  0  0  0  0  0  0  0  0  0
    5.3445   -0.1162    3.4218 O   0  0  0  0  0  0  0  0  0  0  0  0
    3.8369   -1.6753    2.2522 C   0  0  2  0  0  0  0  0  0  0  0  0
    2.7209   -0.8636    1.9365 O   0  0  0  0  0  0  0  0  0  0  0  0
    3.5508   -2.4662    3.5432 C   0  0  0  0  0  0  0  0  0  0  0  0
    3.8085   -3.7993    3.6602 C   0  0  0  0  0  0  0  0  0  0  0  0
    4.5104   -4.5792    2.5568 C   0  0  0  0  0  0  0  0  0  0  0  0
    5.1920   -3.6814    1.5269 C   0  0  0  0  0  0  0  0  0  0  0  0
    4.2594   -2.5441    1.0306 C   0  0  2  0  0  0  0  0  0  0  0  0
    3.0557   -3.1516    0.2810 C   0  0  0  0  0  0  0  0  0  0  0  0
    3.4210   -4.6016    4.9301 C   0  0  2  0  0  0  0  0  0  0  0  0
    4.6426   -4.5052    5.8777 C   0  0  0  0  0  0  0  0  0  0  0  0
    3.1184   -6.1255    4.6564 C   0  0  1  0  0  0  0  0  0  0  0  0
    3.0969   -6.8242    5.8895 O   0  0  0  0  0  0  0  0  0  0  0  0
    1.7426   -6.2928    3.9973 C   0  0  1  0  0  0  0  0  0  0  0  0
    1.3415   -7.5868    3.6176 O   0  0  0  0  0  0  0  0  0  0  0  0
   -0.0516   -7.5148    3.6166 C   0  0  0  0  0  0  0  0  0  0  0  0
   -0.5626   -7.5909    2.1755 C   0  0  0  0  0  0  0  0  0  0  0  0
   -0.5833   -8.6552    4.4883 C   0  0  0  0  0  0  0  0  0  0  0  0
   -0.4612   -6.2836    4.1401 O   0  0  0  0  0  0  0  0  0  0  0  0
    0.6287   -5.8160    4.9023 C   0  0  2  0  0  0  0  0  0  0  0  0
    0.7763   -4.2955    5.0344 C   0  0  1  0  0  0  0  0  0  0  0  0
   -0.2177   -3.7893    5.9073 O   0  0  0  0  0  0  0  0  0  0  0  0
    2.1709   -3.9317    5.6280 C   0  0  2  0  0  0  0  0  0  0  0  0
    2.3082   -2.4254    5.6464 C   0  0  0  0  0  0  0  0  0  0  0  0
    2.9552   -1.7711    4.6703 C   0  0  0  0  0  0  0  0  0  0  0  0
    8.9874   -3.1874   -1.0101 H   0  0  0  0  0  0  0  0  0  0  0  0
    8.2650   -2.2144   -2.2981 H   0  0  0  0  0  0  0  0  0  0  0  0
    7.6763   -3.8490   -2.0118 H   0  0  0  0  0  0  0  0  0  0  0  0
    4.2801   -0.8883   -0.3473 H   0  0  0  0  0  0  0  0  0  0  0  0
    6.8272   -0.9903    1.2830 H   0  0  0  0  0  0  0  0  0  0  0  0
    5.8542    0.3877    0.7509 H   0  0  0  0  0  0  0  0  0  0  0  0
    2.0556   -1.3935    1.5198 H   0  0  0  0  0  0  0  0  0  0  0  0
    5.2793   -5.2167    2.9938 H   0  0  0  0  0  0  0  0  0  0  0  0
    3.7828   -5.2194    2.0575 H   0  0  0  0  0  0  0  0  0  0  0  0
    6.0892   -3.2656    1.9935 H   0  0  0  0  0  0  0  0  0  0  0  0
    5.5418   -4.2993    0.6981 H   0  0  0  0  0  0  0  0  0  0  0  0
    2.3857   -3.6760    0.9661 H   0  0  0  0  0  0  0  0  0  0  0  0
    3.3914   -3.8575   -0.4809 H   0  0  0  0  0  0  0  0  0  0  0  0
    2.4822   -2.3746   -0.2241 H   0  0  0  0  0  0  0  0  0  0  0  0
    4.4419   -4.9184    6.8668 H   0  0  0  0  0  0  0  0  0  0  0  0
    4.9399   -3.4691    6.0322 H   0  0  0  0  0  0  0  0  0  0  0  0
    5.5027   -5.0335    5.4669 H   0  0  0  0  0  0  0  0  0  0  0  0
    3.8795   -6.6016    4.0385 H   0  0  0  0  0  0  0  0  0  0  0  0
    3.9893   -6.9339    6.1883 H   0  0  0  0  0  0  0  0  0  0  0  0
    1.7200   -5.7080    3.0758 H   0  0  0  0  0  0  0  0  0  0  0  0
   -0.1801   -6.7473    1.6005 H   0  0  0  0  0  0  0  0  0  0  0  0
   -1.6537   -7.5560    2.1819 H   0  0  0  0  0  0  0  0  0  0  0  0
   -0.2421   -8.5241    1.7086 H   0  0  0  0  0  0  0  0  0  0  0  0
   -0.1846   -8.6052    5.5014 H   0  0  0  0  0  0  0  0  0  0  0  0
   -0.2749   -9.6095    4.0582 H   0  0  0  0  0  0  0  0  0  0  0  0
   -1.6739   -8.6359    4.5254 H   0  0  0  0  0  0  0  0  0  0  0  0
    0.6355   -6.3186    5.8733 H   0  0  0  0  0  0  0  0  0  0  0  0
    0.6542   -3.8348    4.0506 H   0  0  0  0  0  0  0  0  0  0  0  0
   -0.2019   -4.3077    6.6998 H   0  0  0  0  0  0  0  0  0  0  0  0
    2.1640   -4.2606    6.6673 H   0  0  0  0  0  0  0  0  0  0  0  0
    1.8508   -1.9010    6.4731 H   0  0  0  0  0  0  0  0  0  0  0  0
    3.0450   -0.6983    4.7367 H   0  0  0  0  0  0  0  0  0  0  0  0
  1  2  1  0
  1 33  1  0
  1 34  1  0
  1 35  1  0
  2  3  1  0
  3  4  2  0
  3  5  1  0
  5 15  1  0
  5  6  1  0
  5 36  1  6
  6  7  1  0
  6 37  1  0
  6 38  1  0
  7  8  2  0
  7  9  1  0
  9 15  1  0
  9 10  1  6
  9 11  1  0
 10 39  1  0
 11 32  1  0
 11 12  2  0
 12 13  1  0
 12 17  1  0
 13 14  1  0
 13 40  1  0
 13 41  1  0
 14 15  1  0
 14 42  1  0
 14 43  1  0
 15 16  1  6
 16 44  1  0
 16 45  1  0
 16 46  1  0
 17 30  1  0
 17 18  1  1
 17 19  1  0
 18 47  1  0
 18 48  1  0
 18 49  1  0
 19 20  1  0
 19 21  1  0
 19 50  1  6
 20 51  1  0
 21 27  1  0
 21 22  1  0
 21 52  1  6
 22 23  1  0
 23 24  1  0
 23 25  1  0
 23 26  1  0
 24 53  1  0
 24 54  1  0
 24 55  1  0
 25 56  1  0
 25 57  1  0
 25 58  1  0
 26 27  1  0
 27 28  1  0
 27 59  1  1
 28 29  1  0
 28 30  1  0
 28 60  1  6
 29 61  1  0
 30 31  1  0
 30 62  1  1
 31 32  2  0
 31 63  1  0
 32 64  1  0
M  END
>  <i_m_ct_stereo_status>  (49) 
1

>  <s_m_source_file>  (49) 
/var/tmp/pbs.5076255.sched01/tmpmjg_sug8/0d5zvyqle.sdf

>  <i_m_source_file_index>  (49) 
21

>  <i_lp_mmshare_version>  (49) 
48012

>  <i_f3d_flags>  (49) 
0

>  <s_epik_input>  (49) 
W0NIM11PQyg9TylbQ0BIXShbQ0gyXUMxPU8pW0NAQF0yKFtDSDNdKVtDSDJdW0NIMl1DKD1DM1tDQEBdMTJbT0hdKVtDQEBdNChbQ0gzXSlbQ0BASF0oW0NIXT1bQ0hdMylbQ0BIXShbT0hdKVtDQEBIXTVbQ0BASF0oW0NAQEhdNFtPSF0pT0MoTzUpKFtDSDNdKVtDSDNd

>  <s_epik_cmdline>  (49) 
J2VwaWtfcHl0aG9uJywgJy1waHQnLCAnMi4wJywgJy1waCcsICc3LjAnLCAnLXRuJywgJzgnLCAnLW1hJywgJzIwMCcsICctaW1hZScsICc8aW5maWxlLm1hZT4nLCAnLW9tYWUnLCAnPG91dGZpbGUubWFlPic=

>  <r_lp_tautomer_probability>  (49) 
1

>  <r_epik_Ionization_Penalty>  (49) 
4.94995e-07

>  <r_epik_Ionization_Penalty_Charging>  (49) 
0

>  <r_epik_Ionization_Penalty_Neutral>  (49) 
4.94995e-07

>  <r_epik_State_Penalty>  (49) 
-0

>  <r_epik_Charging_Adjusted_Penalty>  (49) 
0

>  <i_epik_Tot_Q>  (49) 
0

>  <i_epik_Tot_abs_Q>  (49) 
0

>  <s_epik_Chemistry_Notes>  (49) 
This compound has an ester and may undergo hydrolysis at high or low pH.

>  <s_lp_Force_Field>  (49) 
OPLS3e

>  <r_lp_Energy>  (49) 
39.5991

>  <b_lp_Chiralities_Consistent>  (49) 
1

>  <s_lp_Variant>  (49) 
16:0-1

>  <s_i_glide_gridfile>  (49) 
pfpi4k_grid

>  <i_i_glide_lignum>  (49) 
21

>  <i_i_glide_rotatable_bonds>  (49) 
5

>  <r_i_docking_score>  (49) 
-2.6928

>  <r_i_glide_ligand_efficiency>  (49) 
-0.0841499

>  <r_i_glide_ligand_efficiency_sa>  (49) 
-0.267159

>  <r_i_glide_ligand_efficiency_ln>  (49) 
-0.602991

>  <r_i_glide_gscore>  (49) 
-2.6928

>  <r_i_glide_lipo>  (49) 
-0.149246

>  <r_i_glide_hbond>  (49) 
-0.110355

>  <r_i_glide_metal>  (49) 
-0

>  <r_i_glide_rewards>  (49) 
-0.517332

>  <r_i_glide_evdw>  (49) 
-30.4146

>  <r_i_glide_ecoul>  (49) 
-2.76172

>  <r_i_glide_erotb>  (49) 
0.0995901

>  <r_i_glide_esite>  (49) 
-0.0804662

>  <r_i_glide_emodel>  (49) 
-38.7896

>  <r_i_glide_energy>  (49) 
-33.1763

>  <r_i_glide_einternal>  (49) 
1.73549

>  <r_i_glide_intrahb_reward>  (49) 
-0

>  <i_i_glide_confnum>  (49) 
6

>  <i_i_glide_posenum>  (49) 
17

>  <r_i_glide_eff_state_penalty>  (49) 
0

>  <ligand_id>  (49) 
16

>  <original_smiles>  (49) 
COC(=O)C1CC(=O)C2(O)C3=C(CCC12C)C1(C)C(O)C2OC(C)(C)OC2C(O)C1C=C3

>  <smiles>  (49) 
[H]OC12C(=O)C([H])([H])C([H])(C(=O)OC([H])([H])[H])C1(C([H])([H])[H])C([H])([H])C([H])([H])C1=C2C([H])=C([H])C2([H])C([H])(O[H])C3([H])OC(C([H])([H])[H])(C([H])([H])[H])OC3([H])C([H])(O[H])C12C([H])([H])[H]

$$$$
17:0:0
     RDKit          3D

 50 53  0  0  1  0  0  0  0  0999 V2000
    2.8747   -2.9349   -2.8021 C   0  0  0  0  0  0  0  0  0  0  0  0
    2.2345   -3.4556   -1.4912 C   0  0  0  0  0  0  0  0  0  0  0  0
    1.1262   -3.9591   -1.4760 O   0  0  0  0  0  0  0  0  0  0  0  0
    3.0034   -3.3503   -0.3659 O   0  0  0  0  0  0  0  0  0  0  0  0
    4.3413   -2.8391   -0.3385 C   0  0  2  0  0  0  0  0  0  0  0  0
    5.3118   -3.8672   -0.9579 C   0  0  0  0  0  0  0  0  0  0  0  0
    5.1351   -5.1637   -0.1858 C   0  0  0  0  0  0  0  0  0  0  0  0
    5.4691   -5.0507    1.3148 C   0  0  1  0  0  0  0  0  0  0  0  0
    7.0152   -5.0708    1.4052 C   0  0  0  0  0  0  0  0  0  0  0  0
    4.9744   -3.7413    1.9907 C   0  0  0  0  0  0  0  0  0  0  0  0
    4.8179   -3.7531    3.3516 C   0  0  0  0  0  0  0  0  0  0  0  0
    4.4982   -2.6334    4.0199 F   0  0  0  0  0  0  0  0  0  0  0  0
    4.9508   -4.9557    4.1504 C   0  0  0  0  0  0  0  0  0  0  0  0
    4.9605   -6.1552    3.5648 C   0  0  0  0  0  0  0  0  0  0  0  0
    4.7199   -7.3934    4.3289 C   0  0  0  0  0  0  0  0  0  0  0  0
    5.4190   -7.7181    5.2799 O   0  0  0  0  0  0  0  0  0  0  0  0
    3.5531   -8.1694    3.8794 C   0  0  0  0  0  0  0  0  0  0  0  0
    3.0339   -7.9173    2.6699 C   0  0  0  0  0  0  0  0  0  0  0  0
    1.6347   -8.1749    2.1943 C   0  0  0  0  0  0  0  0  0  0  0  0
    1.3370   -6.7892    1.6247 C   0  0  0  0  0  0  0  0  0  0  0  0
    0.1985   -6.3555    1.4346 O   0  0  0  0  0  0  0  0  0  0  0  0
    2.4835   -6.1319    1.3790 O   0  0  0  0  0  0  0  0  0  0  0  0
    3.5982   -6.9670    1.6417 C   0  0  1  0  0  0  0  0  0  0  0  0
    4.9473   -6.3293    2.0606 C   0  0  1  0  0  0  0  0  0  0  0  0
    4.7614   -2.4715    1.1177 C   0  0  0  0  0  0  0  0  0  0  0  0
    6.0800   -1.6609    1.0726 C   0  0  0  0  0  0  0  0  0  0  0  0
    3.6851   -1.5012    1.6878 C   0  0  0  0  0  0  0  0  0  0  0  0
    2.9518   -1.8412   -2.7545 H   0  0  0  0  0  0  0  0  0  0  0  0
    2.2088   -3.1887   -3.6454 H   0  0  0  0  0  0  0  0  0  0  0  0
    3.8241   -3.3700   -2.9967 H   0  0  0  0  0  0  0  0  0  0  0  0
    4.3456   -1.9145   -0.9052 H   0  0  0  0  0  0  0  0  0  0  0  0
    5.1474   -4.1416   -1.9770 H   0  0  0  0  0  0  0  0  0  0  0  0
    6.3413   -3.4936   -0.8816 H   0  0  0  0  0  0  0  0  0  0  0  0
    4.1282   -5.5244   -0.3684 H   0  0  0  0  0  0  0  0  0  0  0  0
    5.7692   -5.9044   -0.6490 H   0  0  0  0  0  0  0  0  0  0  0  0
    7.4392   -6.0089    1.0345 H   0  0  0  0  0  0  0  0  0  0  0  0
    7.3492   -4.9523    2.4397 H   0  0  0  0  0  0  0  0  0  0  0  0
    7.4799   -4.2729    0.8260 H   0  0  0  0  0  0  0  0  0  0  0  0
    4.8671   -4.8783    5.2243 H   0  0  0  0  0  0  0  0  0  0  0  0
    3.0242   -8.7564    4.6216 H   0  0  0  0  0  0  0  0  0  0  0  0
    1.6415   -8.8975    1.3790 H   0  0  0  0  0  0  0  0  0  0  0  0
    0.9467   -8.4854    2.9793 H   0  0  0  0  0  0  0  0  0  0  0  0
    3.7679   -7.5335    0.7312 H   0  0  0  0  0  0  0  0  0  0  0  0
    5.6713   -7.1214    1.8539 H   0  0  0  0  0  0  0  0  0  0  0  0
    5.9753   -0.7322    0.5081 H   0  0  0  0  0  0  0  0  0  0  0  0
    6.9049   -2.2024    0.6242 H   0  0  0  0  0  0  0  0  0  0  0  0
    6.4253   -1.3994    2.0767 H   0  0  0  0  0  0  0  0  0  0  0  0
    3.3594   -0.7730    0.9446 H   0  0  0  0  0  0  0  0  0  0  0  0
    4.0455   -0.9106    2.5396 H   0  0  0  0  0  0  0  0  0  0  0  0
    2.7929   -2.0374    2.0137 H   0  0  0  0  0  0  0  0  0  0  0  0
  1  2  1  0
  1 28  1  0
  1 29  1  0
  1 30  1  0
  2  3  2  0
  2  4  1  0
  4  5  1  0
  5 25  1  0
  5  6  1  0
  5 31  1  6
  6  7  1  0
  6 32  1  0
  6 33  1  0
  7  8  1  0
  7 34  1  0
  7 35  1  0
  8 24  1  0
  8  9  1  6
  8 10  1  0
  9 36  1  0
  9 37  1  0
  9 38  1  0
 10 11  2  0
 10 25  1  0
 11 12  1  0
 11 13  1  0
 13 14  2  0
 13 39  1  0
 14 24  1  0
 14 15  1  0
 15 16  2  0
 15 17  1  0
 17 18  2  0
 17 40  1  0
 18 23  1  0
 18 19  1  0
 19 20  1  0
 19 41  1  0
 19 42  1  0
 20 21  2  0
 20 22  1  0
 22 23  1  0
 23 24  1  0
 23 43  1  6
 24 44  1  1
 25 26  1  0
 25 27  1  0
 26 45  1  0
 26 46  1  0
 26 47  1  0
 27 48  1  0
 27 49  1  0
 27 50  1  0
M  END
>  <i_m_ct_stereo_status>  (50) 
1

>  <s_m_source_file>  (50) 
/var/tmp/pbs.5076255.sched01/tmpmjg_sug8/0d5zvyqle.sdf

>  <i_m_source_file_index>  (50) 
22

>  <i_lp_mmshare_version>  (50) 
48012

>  <i_f3d_flags>  (50) 
0

>  <s_epik_input>  (50) 
W0NIM11DKD1PKU9bQ0BIXShbQ0gyXVtDSDJdMSlDKFtDSDNdKShbQ0gzXSlDKFtDQF0xMltDSDNdKT1DKEYpW0NIXT1DM1tDQEhdMltDQEhdNEMoPVtDSF1DMz1PKVtDSDJdQyg9TylPNA==

>  <s_epik_cmdline>  (50) 
J2VwaWtfcHl0aG9uJywgJy1waHQnLCAnMi4wJywgJy1waCcsICc3LjAnLCAnLXRuJywgJzgnLCAnLW1hJywgJzIwMCcsICctaW1hZScsICc8aW5maWxlLm1hZT4nLCAnLW9tYWUnLCAnPG91dGZpbGUubWFlPic=

>  <r_lp_tautomer_probability>  (50) 
1

>  <r_epik_Ionization_Penalty>  (50) 
0

>  <r_epik_Ionization_Penalty_Charging>  (50) 
0

>  <r_epik_Ionization_Penalty_Neutral>  (50) 
0

>  <r_epik_State_Penalty>  (50) 
-0

>  <r_epik_Charging_Adjusted_Penalty>  (50) 
0

>  <i_epik_Tot_Q>  (50) 
0

>  <i_epik_Tot_abs_Q>  (50) 
0

>  <s_epik_Chemistry_Notes>  (50) 
This compound has an ester and may undergo hydrolysis at high or low pH.

>  <s_lp_Force_Field>  (50) 
OPLS3e

>  <r_lp_Energy>  (50) 
59.1623

>  <b_lp_Chiralities_Consistent>  (50) 
1

>  <s_lp_Variant>  (50) 
17:0-1

>  <s_i_glide_gridfile>  (50) 
pfpi4k_grid

>  <i_i_glide_lignum>  (50) 
22

>  <i_i_glide_rotatable_bonds>  (50) 
2

>  <r_i_docking_score>  (50) 
-3.44088

>  <r_i_glide_ligand_efficiency>  (50) 
-0.12744

>  <r_i_glide_ligand_efficiency_sa>  (50) 
-0.38232

>  <r_i_glide_ligand_efficiency_ln>  (50) 
-0.800981

>  <r_i_glide_gscore>  (50) 
-3.44088

>  <r_i_glide_lipo>  (50) 
-0.520085

>  <r_i_glide_hbond>  (50) 
-0.249403

>  <r_i_glide_metal>  (50) 
-0

>  <r_i_glide_rewards>  (50) 
-1.00924

>  <r_i_glide_evdw>  (50) 
-23.9301

>  <r_i_glide_ecoul>  (50) 
-3.67508

>  <r_i_glide_erotb>  (50) 
0.137937

>  <r_i_glide_esite>  (50) 
-0.0523197

>  <r_i_glide_emodel>  (50) 
-30.6409

>  <r_i_glide_energy>  (50) 
-27.6052

>  <r_i_glide_einternal>  (50) 
5.80747

>  <r_i_glide_intrahb_reward>  (50) 
-0

>  <i_i_glide_confnum>  (50) 
2

>  <i_i_glide_posenum>  (50) 
21

>  <r_i_glide_eff_state_penalty>  (50) 
0

>  <ligand_id>  (50) 
17

>  <original_smiles>  (50) 
CC(=O)OC1CCC2(C)C(=C(F)C=C3C(=O)C=C4CC(=O)OC4C32)C1(C)C

>  <smiles>  (50) 
[H]C1=C2C([H])([H])C(=O)OC2([H])C2([H])C(=C([H])C(F)=C3C(C([H])([H])[H])(C([H])([H])[H])C([H])(OC(=O)C([H])([H])[H])C([H])([H])C([H])([H])C32C([H])([H])[H])C1=O

$$$$
18:0:0
     RDKit          3D

 70 74  0  0  1  0  0  0  0  0999 V2000
    0.9142   -9.6328    2.4949 C   0  0  0  0  0  0  0  0  0  0  0  0
    1.4877   -9.9514    3.8875 C   0  0  0  0  0  0  0  0  0  0  0  0
    0.9246  -11.2912    4.3915 C   0  0  0  0  0  0  0  0  0  0  0  0
    3.0418  -10.0568    3.8449 C   0  0  0  0  0  0  0  0  0  0  0  0
    3.8028   -8.7176    3.6109 C   0  0  1  0  0  0  0  0  0  0  0  0
    4.2893   -8.5030    2.1773 C   0  0  0  0  0  0  0  0  0  0  0  0
    4.2576   -9.3613    1.3002 O   0  0  0  0  0  0  0  0  0  0  0  0
    4.8799   -7.1341    1.9213 C   0  0  0  0  0  0  0  0  0  0  0  0
    3.8499   -5.9942    2.1758 C   0  0  1  0  0  0  0  0  0  0  0  0
    2.9034   -5.9901    0.9458 C   0  0  0  0  0  0  0  0  0  0  0  0
    2.9842   -6.2963    3.4344 C   0  0  0  0  0  0  0  0  0  0  0  0
    2.9983   -7.4962    4.0760 C   0  0  0  0  0  0  0  0  0  0  0  0
    2.1440   -7.8395    5.2905 C   0  0  0  0  0  0  0  0  0  0  0  0
    1.0630   -8.8130    4.8442 C   0  0  0  0  0  0  0  0  0  0  0  0
   -0.1053   -8.6602    5.2087 O   0  0  0  0  0  0  0  0  0  0  0  0
    2.0794   -5.1335    3.8366 C   0  0  0  0  0  0  0  0  0  0  0  0
    2.8438   -3.8199    3.9932 C   0  0  0  0  0  0  0  0  0  0  0  0
    3.6235   -3.4503    2.7091 C   0  0  1  0  0  0  0  0  0  0  0  0
    4.2487   -2.0105    2.8083 C   0  0  1  0  0  0  0  0  0  0  0  0
    5.4955   -1.7511    1.8980 C   0  0  1  0  0  0  0  0  0  0  0  0
    6.2158   -2.9628    1.2735 C   0  0  0  0  0  0  0  0  0  0  0  0
    5.3358   -4.1907    1.0619 C   0  0  0  0  0  0  0  0  0  0  0  0
    4.6108   -4.6147    2.3651 C   0  0  2  0  0  0  0  0  0  0  0  0
    5.6581   -4.7652    3.5102 C   0  0  0  0  0  0  0  0  0  0  0  0
    5.1310   -0.6725    0.8676 C   0  0  0  0  0  0  0  0  0  0  0  0
    3.6259   -0.4802    0.9802 C   0  0  1  0  0  0  0  0  0  0  0  0
    3.0164   -1.3873    0.0799 O   0  0  0  0  0  0  0  0  0  0  0  0
    3.2958   -0.8072    2.4542 C   0  0  0  0  0  0  0  0  0  0  0  0
    1.7713   -1.0036    2.6468 C   0  0  0  0  0  0  0  0  0  0  0  0
    3.6681    0.4088    3.3355 C   0  0  0  0  0  0  0  0  0  0  0  0
    1.2412  -10.3586    1.7512 H   0  0  0  0  0  0  0  0  0  0  0  0
    1.2478   -8.6647    2.1320 H   0  0  0  0  0  0  0  0  0  0  0  0
   -0.1767   -9.6251    2.4923 H   0  0  0  0  0  0  0  0  0  0  0  0
    1.2385  -12.1339    3.7668 H   0  0  0  0  0  0  0  0  0  0  0  0
   -0.1612  -11.2901    4.4219 H   0  0  0  0  0  0  0  0  0  0  0  0
    1.2707  -11.4904    5.4062 H   0  0  0  0  0  0  0  0  0  0  0  0
    3.3721  -10.4520    4.8056 H   0  0  0  0  0  0  0  0  0  0  0  0
    3.3362  -10.8213    3.1254 H   0  0  0  0  0  0  0  0  0  0  0  0
    4.7034   -8.7587    4.2254 H   0  0  0  0  0  0  0  0  0  0  0  0
    5.7365   -7.0736    2.5884 H   0  0  0  0  0  0  0  0  0  0  0  0
    5.2809   -7.0971    0.9087 H   0  0  0  0  0  0  0  0  0  0  0  0
    3.4546   -5.9113    0.0078 H   0  0  0  0  0  0  0  0  0  0  0  0
    2.1701   -5.1887    0.9664 H   0  0  0  0  0  0  0  0  0  0  0  0
    2.3386   -6.9188    0.8907 H   0  0  0  0  0  0  0  0  0  0  0  0
    2.7585   -8.3288    6.0447 H   0  0  0  0  0  0  0  0  0  0  0  0
    1.6866   -6.9846    5.7830 H   0  0  0  0  0  0  0  0  0  0  0  0
    1.3196   -5.0174    3.0635 H   0  0  0  0  0  0  0  0  0  0  0  0
    1.5317   -5.3231    4.7550 H   0  0  0  0  0  0  0  0  0  0  0  0
    2.1355   -3.0471    4.2721 H   0  0  0  0  0  0  0  0  0  0  0  0
    3.5200   -3.9052    4.8433 H   0  0  0  0  0  0  0  0  0  0  0  0
    2.9203   -3.4022    1.8885 H   0  0  0  0  0  0  0  0  0  0  0  0
    4.5824   -1.8960    3.8454 H   0  0  0  0  0  0  0  0  0  0  0  0
    6.2388   -1.2794    2.5317 H   0  0  0  0  0  0  0  0  0  0  0  0
    6.6749   -2.6830    0.3272 H   0  0  0  0  0  0  0  0  0  0  0  0
    7.0593   -3.2494    1.9054 H   0  0  0  0  0  0  0  0  0  0  0  0
    4.6158   -3.9493    0.2848 H   0  0  0  0  0  0  0  0  0  0  0  0
    5.9563   -4.9984    0.6651 H   0  0  0  0  0  0  0  0  0  0  0  0
    5.9322   -3.7960    3.9166 H   0  0  0  0  0  0  0  0  0  0  0  0
    6.5789   -5.2391    3.1647 H   0  0  0  0  0  0  0  0  0  0  0  0
    5.2927   -5.3436    4.3572 H   0  0  0  0  0  0  0  0  0  0  0  0
    5.6401    0.2535    1.1343 H   0  0  0  0  0  0  0  0  0  0  0  0
    5.4517   -0.8966   -0.1518 H   0  0  0  0  0  0  0  0  0  0  0  0
    3.3408    0.5332    0.7106 H   0  0  0  0  0  0  0  0  0  0  0  0
    2.1118   -1.0995   -0.1481 H   0  0  0  0  0  0  0  0  0  0  0  0
    1.2270   -0.1461    2.2484 H   0  0  0  0  0  0  0  0  0  0  0  0
    1.5054   -1.0721    3.6982 H   0  0  0  0  0  0  0  0  0  0  0  0
    1.3813   -1.8804    2.1349 H   0  0  0  0  0  0  0  0  0  0  0  0
    3.1185    1.3029    3.0267 H   0  0  0  0  0  0  0  0  0  0  0  0
    4.7296    0.6554    3.2822 H   0  0  0  0  0  0  0  0  0  0  0  0
    3.4387    0.2294    4.3845 H   0  0  0  0  0  0  0  0  0  0  0  0
  1  2  1  0
  1 31  1  0
  1 32  1  0
  1 33  1  0
  2 14  1  0
  2  3  1  0
  2  4  1  0
  3 34  1  0
  3 35  1  0
  3 36  1  0
  4  5  1  0
  4 37  1  0
  4 38  1  0
  5 12  1  0
  5  6  1  0
  5 39  1  1
  6  7  2  0
  6  8  1  0
  8  9  1  0
  8 40  1  0
  8 41  1  0
  9 23  1  0
  9 10  1  6
  9 11  1  0
 10 42  1  0
 10 43  1  0
 10 44  1  0
 11 12  2  0
 11 16  1  0
 12 13  1  0
 13 14  1  0
 13 45  1  0
 13 46  1  0
 14 15  2  0
 16 17  1  0
 16 47  1  0
 16 48  1  0
 17 18  1  0
 17 49  1  0
 17 50  1  0
 18 23  1  0
 18 19  1  0
 18 51  1  6
 19 28  1  0
 19 20  1  0
 19 52  1  1
 20 21  1  0
 20 25  1  0
 20 53  1  1
 21 22  1  0
 21 54  1  0
 21 55  1  0
 22 23  1  0
 22 56  1  0
 22 57  1  0
 23 24  1  1
 24 58  1  0
 24 59  1  0
 24 60  1  0
 25 26  1  0
 25 61  1  0
 25 62  1  0
 26 27  1  0
 26 28  1  0
 26 63  1  6
 27 64  1  0
 28 29  1  0
 28 30  1  0
 29 65  1  0
 29 66  1  0
 29 67  1  0
 30 68  1  0
 30 69  1  0
 30 70  1  0
M  END
>  <i_m_ct_stereo_status>  (51) 
1

>  <s_m_source_file>  (51) 
/var/tmp/pbs.5076255.sched01/tmpmjg_sug8/0d5zvyqle.sdf

>  <i_m_source_file_index>  (51) 
23

>  <i_lp_mmshare_version>  (51) 
48012

>  <i_f3d_flags>  (51) 
0

>  <s_epik_input>  (51) 
W0NIMl0xQyg9TylDKFtDSDNdKShbQ0gzXSlbQ0gyXVtDQEBIXShDKD1PKVtDSDJdMilDMT1DKFtDQF0yM1tDSDNdKVtDSDJdW0NIMl1bQ0BIXTRbQ0BIXTVbQ0BASF0oW0NIMl1bQ0gyXVtDQF0zNFtDSDNdKVtDSDJdW0NAQEhdKFtPSF0pQzUoW0NIM10pW0NIM10=

>  <s_epik_cmdline>  (51) 
J2VwaWtfcHl0aG9uJywgJy1waHQnLCAnMi4wJywgJy1waCcsICc3LjAnLCAnLXRuJywgJzgnLCAnLW1hJywgJzIwMCcsICctaW1hZScsICc8aW5maWxlLm1hZT4nLCAnLW9tYWUnLCAnPG91dGZpbGUubWFlPic=

>  <r_lp_tautomer_probability>  (51) 
1

>  <r_epik_Ionization_Penalty>  (51) 
3.05558e-06

>  <r_epik_Ionization_Penalty_Charging>  (51) 
0

>  <r_epik_Ionization_Penalty_Neutral>  (51) 
3.05558e-06

>  <r_epik_State_Penalty>  (51) 
-0

>  <r_epik_Charging_Adjusted_Penalty>  (51) 
0

>  <i_epik_Tot_Q>  (51) 
0

>  <i_epik_Tot_abs_Q>  (51) 
0

>  <s_lp_Force_Field>  (51) 
OPLS3e

>  <r_lp_Energy>  (51) 
61.8547

>  <b_lp_Chiralities_Consistent>  (51) 
1

>  <s_lp_Variant>  (51) 
18:0-1

>  <s_i_glide_gridfile>  (51) 
pfpi4k_grid

>  <i_i_glide_lignum>  (51) 
23

>  <i_i_glide_rotatable_bonds>  (51) 
1

>  <r_i_docking_score>  (51) 
-3.43402

>  <r_i_glide_ligand_efficiency>  (51) 
-0.114467

>  <r_i_glide_ligand_efficiency_sa>  (51) 
-0.355677

>  <r_i_glide_ligand_efficiency_ln>  (51) 
-0.780247

>  <r_i_glide_gscore>  (51) 
-3.43402

>  <r_i_glide_lipo>  (51) 
-0.611755

>  <r_i_glide_hbond>  (51) 
-0.16

>  <r_i_glide_metal>  (51) 
-0

>  <r_i_glide_rewards>  (51) 
-0.595877

>  <r_i_glide_evdw>  (51) 
-25.258

>  <r_i_glide_ecoul>  (51) 
-5.12776

>  <r_i_glide_erotb>  (51) 
0

>  <r_i_glide_esite>  (51) 
-0.0343277

>  <r_i_glide_emodel>  (51) 
-36.326

>  <r_i_glide_energy>  (51) 
-30.3857

>  <r_i_glide_einternal>  (51) 
0.643711

>  <r_i_glide_intrahb_reward>  (51) 
-0

>  <i_i_glide_confnum>  (51) 
2

>  <i_i_glide_posenum>  (51) 
2

>  <r_i_glide_eff_state_penalty>  (51) 
0

>  <ligand_id>  (51) 
18

>  <original_smiles>  (51) 
CC1(C)CC2C(=O)CC3(C)C(=C2CC1=O)CCC1C2C(CCC13C)CC(O)C2(C)C

>  <smiles>  (51) 
[H]OC1([H])C([H])([H])C2([H])C([H])([H])C([H])([H])C3(C([H])([H])[H])C([H])(C([H])([H])C([H])([H])C4=C5C([H])([H])C(=O)C(C([H])([H])[H])(C([H])([H])[H])C([H])([H])C5([H])C(=O)C([H])([H])C43C([H])([H])[H])C2([H])C1(C([H])([H])[H])C([H])([H])[H]

$$$$
18:0:1
     RDKit          3D

 70 74  0  0  1  0  0  0  0  0999 V2000
    1.4067   -9.6152    3.5726 C   0  0  0  0  0  0  0  0  0  0  0  0
    1.3391   -8.8457    4.9098 C   0  0  0  0  0  0  0  0  0  0  0  0
    0.5032   -9.6456    5.9258 C   0  0  0  0  0  0  0  0  0  0  0  0
    2.7599   -8.6396    5.5056 C   0  0  0  0  0  0  0  0  0  0  0  0
    3.6720   -7.6238    4.7541 C   0  0  1  0  0  0  0  0  0  0  0  0
    4.7054   -8.2689    3.8297 C   0  0  0  0  0  0  0  0  0  0  0  0
    4.9495   -9.4701    3.8044 O   0  0  0  0  0  0  0  0  0  0  0  0
    5.4697   -7.2719    2.9743 C   0  0  0  0  0  0  0  0  0  0  0  0
    4.5255   -6.4508    2.0423 C   0  0  1  0  0  0  0  0  0  0  0  0
    4.1617   -7.4064    0.8820 C   0  0  0  0  0  0  0  0  0  0  0  0
    3.2141   -6.0665    2.7661 C   0  0  0  0  0  0  0  0  0  0  0  0
    2.8590   -6.5721    3.9859 C   0  0  0  0  0  0  0  0  0  0  0  0
    1.5617   -6.2480    4.7121 C   0  0  0  0  0  0  0  0  0  0  0  0
    0.6645   -7.4788    4.6575 C   0  0  0  0  0  0  0  0  0  0  0  0
   -0.5373   -7.3714    4.4167 O   0  0  0  0  0  0  0  0  0  0  0  0
    2.3242   -5.1226    1.9611 C   0  0  0  0  0  0  0  0  0  0  0  0
    3.0743   -3.8780    1.4859 C   0  0  0  0  0  0  0  0  0  0  0  0
    4.3287   -4.2420    0.6601 C   0  0  1  0  0  0  0  0  0  0  0  0
    4.9958   -2.9682    0.0186 C   0  0  1  0  0  0  0  0  0  0  0  0
    6.5223   -3.0810   -0.3106 C   0  0  1  0  0  0  0  0  0  0  0  0
    7.3280   -4.2294    0.3370 C   0  0  0  0  0  0  0  0  0  0  0  0
    6.4891   -5.4693    0.6639 C   0  0  0  0  0  0  0  0  0  0  0  0
    5.2599   -5.1352    1.5389 C   0  0  2  0  0  0  0  0  0  0  0  0
    5.7337   -4.3224    2.7704 C   0  0  0  0  0  0  0  0  0  0  0  0
    6.6990   -2.9703   -1.8360 C   0  0  0  0  0  0  0  0  0  0  0  0
    5.3030   -3.0321   -2.4275 C   0  0  1  0  0  0  0  0  0  0  0  0
    5.0108   -4.3784   -2.6570 O   0  0  0  0  0  0  0  0  0  0  0  0
    4.3796   -2.4745   -1.3438 C   0  0  0  0  0  0  0  0  0  0  0  0
    2.9101   -2.8382   -1.6411 C   0  0  0  0  0  0  0  0  0  0  0  0
    4.4706   -0.9374   -1.4094 C   0  0  0  0  0  0  0  0  0  0  0  0
    1.9246  -10.5716    3.6784 H   0  0  0  0  0  0  0  0  0  0  0  0
    1.9403   -9.0429    2.8143 H   0  0  0  0  0  0  0  0  0  0  0  0
    0.4119   -9.8177    3.1701 H   0  0  0  0  0  0  0  0  0  0  0  0
    0.9564  -10.6183    6.1366 H   0  0  0  0  0  0  0  0  0  0  0  0
   -0.5073   -9.8303    5.5624 H   0  0  0  0  0  0  0  0  0  0  0  0
    0.4055   -9.1107    6.8724 H   0  0  0  0  0  0  0  0  0  0  0  0
    2.6478   -8.2716    6.5269 H   0  0  0  0  0  0  0  0  0  0  0  0
    3.2515   -9.6069    5.6305 H   0  0  0  0  0  0  0  0  0  0  0  0
    4.2467   -7.0916    5.5100 H   0  0  0  0  0  0  0  0  0  0  0  0
    5.9884   -6.6423    3.6909 H   0  0  0  0  0  0  0  0  0  0  0  0
    6.2413   -7.7943    2.4103 H   0  0  0  0  0  0  0  0  0  0  0  0
    5.0406   -7.8263    0.3898 H   0  0  0  0  0  0  0  0  0  0  0  0
    3.5647   -6.9188    0.1122 H   0  0  0  0  0  0  0  0  0  0  0  0
    3.5772   -8.2557    1.2350 H   0  0  0  0  0  0  0  0  0  0  0  0
    1.7819   -6.0251    5.7563 H   0  0  0  0  0  0  0  0  0  0  0  0
    1.0260   -5.3831    4.3294 H   0  0  0  0  0  0  0  0  0  0  0  0
    1.9531   -5.6736    1.0959 H   0  0  0  0  0  0  0  0  0  0  0  0
    1.4422   -4.8020    2.5065 H   0  0  0  0  0  0  0  0  0  0  0  0
    2.3836   -3.2610    0.9243 H   0  0  0  0  0  0  0  0  0  0  0  0
    3.3451   -3.2752    2.3530 H   0  0  0  0  0  0  0  0  0  0  0  0
    4.0209   -4.8624   -0.1746 H   0  0  0  0  0  0  0  0  0  0  0  0
    4.8890   -2.1721    0.7613 H   0  0  0  0  0  0  0  0  0  0  0  0
    6.9843   -2.1781    0.0834 H   0  0  0  0  0  0  0  0  0  0  0  0
    8.1433   -4.5303   -0.3207 H   0  0  0  0  0  0  0  0  0  0  0  0
    7.8295   -3.8733    1.2399 H   0  0  0  0  0  0  0  0  0  0  0  0
    6.1527   -5.8923   -0.2803 H   0  0  0  0  0  0  0  0  0  0  0  0
    7.1359   -6.2190    1.1252 H   0  0  0  0  0  0  0  0  0  0  0  0
    5.9820   -3.2883    2.5214 H   0  0  0  0  0  0  0  0  0  0  0  0
    6.6306   -4.7743    3.1787 H   0  0  0  0  0  0  0  0  0  0  0  0
    5.0065   -4.2916    3.5819 H   0  0  0  0  0  0  0  0  0  0  0  0
    7.1397   -2.0070   -2.0764 H   0  0  0  0  0  0  0  0  0  0  0  0
    7.3708   -3.7096   -2.2690 H   0  0  0  0  0  0  0  0  0  0  0  0
    5.2148   -2.5081   -3.3776 H   0  0  0  0  0  0  0  0  0  0  0  0
    4.0777   -4.5265   -2.7091 H   0  0  0  0  0  0  0  0  0  0  0  0
    2.6221   -2.5234   -2.6450 H   0  0  0  0  0  0  0  0  0  0  0  0
    2.2514   -2.3086   -0.9627 H   0  0  0  0  0  0  0  0  0  0  0  0
    2.6762   -3.8970   -1.5604 H   0  0  0  0  0  0  0  0  0  0  0  0
    4.1531   -0.5608   -2.3869 H   0  0  0  0  0  0  0  0  0  0  0  0
    5.4824   -0.5668   -1.2350 H   0  0  0  0  0  0  0  0  0  0  0  0
    3.8263   -0.4790   -0.6550 H   0  0  0  0  0  0  0  0  0  0  0  0
  1  2  1  0
  1 31  1  0
  1 32  1  0
  1 33  1  0
  2 14  1  0
  2  3  1  0
  2  4  1  0
  3 34  1  0
  3 35  1  0
  3 36  1  0
  4  5  1  0
  4 37  1  0
  4 38  1  0
  5 12  1  0
  5  6  1  0
  5 39  1  1
  6  7  2  0
  6  8  1  0
  8  9  1  0
  8 40  1  0
  8 41  1  0
  9 23  1  0
  9 10  1  6
  9 11  1  0
 10 42  1  0
 10 43  1  0
 10 44  1  0
 11 12  2  0
 11 16  1  0
 12 13  1  0
 13 14  1  0
 13 45  1  0
 13 46  1  0
 14 15  2  0
 16 17  1  0
 16 47  1  0
 16 48  1  0
 17 18  1  0
 17 49  1  0
 17 50  1  0
 18 23  1  0
 18 19  1  0
 18 51  1  6
 19 28  1  0
 19 20  1  0
 19 52  1  1
 20 21  1  0
 20 25  1  0
 20 53  1  1
 21 22  1  0
 21 54  1  0
 21 55  1  0
 22 23  1  0
 22 56  1  0
 22 57  1  0
 23 24  1  1
 24 58  1  0
 24 59  1  0
 24 60  1  0
 25 26  1  0
 25 61  1  0
 25 62  1  0
 26 27  1  0
 26 28  1  0
 26 63  1  6
 27 64  1  0
 28 29  1  0
 28 30  1  0
 29 65  1  0
 29 66  1  0
 29 67  1  0
 30 68  1  0
 30 69  1  0
 30 70  1  0
M  END
>  <i_m_ct_stereo_status>  (52) 
1

>  <s_m_source_file>  (52) 
/var/tmp/pbs.5076255.sched01/tmpmjg_sug8/0d5zvyqle.sdf

>  <i_m_source_file_index>  (52) 
23

>  <i_lp_mmshare_version>  (52) 
48012

>  <i_f3d_flags>  (52) 
0

>  <s_epik_input>  (52) 
W0NIMl0xQyg9TylDKFtDSDNdKShbQ0gzXSlbQ0gyXVtDQEBIXShDKD1PKVtDSDJdMilDMT1DKFtDQF0yM1tDSDNdKVtDSDJdW0NIMl1bQ0BIXTRbQ0BIXTVbQ0BASF0oW0NIMl1bQ0gyXVtDQF0zNFtDSDNdKVtDSDJdW0NAQEhdKFtPSF0pQzUoW0NIM10pW0NIM10=

>  <s_epik_cmdline>  (52) 
J2VwaWtfcHl0aG9uJywgJy1waHQnLCAnMi4wJywgJy1waCcsICc3LjAnLCAnLXRuJywgJzgnLCAnLW1hJywgJzIwMCcsICctaW1hZScsICc8aW5maWxlLm1hZT4nLCAnLW9tYWUnLCAnPG91dGZpbGUubWFlPic=

>  <r_lp_tautomer_probability>  (52) 
1

>  <r_epik_Ionization_Penalty>  (52) 
3.05558e-06

>  <r_epik_Ionization_Penalty_Charging>  (52) 
0

>  <r_epik_Ionization_Penalty_Neutral>  (52) 
3.05558e-06

>  <r_epik_State_Penalty>  (52) 
-0

>  <r_epik_Charging_Adjusted_Penalty>  (52) 
0

>  <i_epik_Tot_Q>  (52) 
0

>  <i_epik_Tot_abs_Q>  (52) 
0

>  <s_lp_Force_Field>  (52) 
OPLS3e

>  <r_lp_Energy>  (52) 
61.8547

>  <b_lp_Chiralities_Consistent>  (52) 
1

>  <s_lp_Variant>  (52) 
18:0-1

>  <s_i_glide_gridfile>  (52) 
pfpi4k_grid

>  <i_i_glide_lignum>  (52) 
23

>  <i_i_glide_rotatable_bonds>  (52) 
1

>  <r_i_docking_score>  (52) 
-3.20373

>  <r_i_glide_ligand_efficiency>  (52) 
-0.106791

>  <r_i_glide_ligand_efficiency_sa>  (52) 
-0.331825

>  <r_i_glide_ligand_efficiency_ln>  (52) 
-0.727923

>  <r_i_glide_gscore>  (52) 
-3.20373

>  <r_i_glide_lipo>  (52) 
-0.765299

>  <r_i_glide_hbond>  (52) 
-0.214073

>  <r_i_glide_metal>  (52) 
-0

>  <r_i_glide_rewards>  (52) 
-0.595877

>  <r_i_glide_evdw>  (52) 
-24.3928

>  <r_i_glide_ecoul>  (52) 
-2.61208

>  <r_i_glide_erotb>  (52) 
0

>  <r_i_glide_esite>  (52) 
-0.0170321

>  <r_i_glide_emodel>  (52) 
-32.4881

>  <r_i_glide_energy>  (52) 
-27.0049

>  <r_i_glide_einternal>  (52) 
0.607031

>  <r_i_glide_intrahb_reward>  (52) 
-0

>  <i_i_glide_confnum>  (52) 
1

>  <i_i_glide_posenum>  (52) 
6

>  <r_i_glide_eff_state_penalty>  (52) 
0

>  <ligand_id>  (52) 
18

>  <original_smiles>  (52) 
CC1(C)CC2C(=O)CC3(C)C(=C2CC1=O)CCC1C2C(CCC13C)CC(O)C2(C)C

>  <smiles>  (52) 
[H]OC1([H])C([H])([H])C2([H])C([H])([H])C([H])([H])C3(C([H])([H])[H])C([H])(C([H])([H])C([H])([H])C4=C5C([H])([H])C(=O)C(C([H])([H])[H])(C([H])([H])[H])C([H])([H])C5([H])C(=O)C([H])([H])C43C([H])([H])[H])C2([H])C1(C([H])([H])[H])C([H])([H])[H]

$$$$
18:0:2
     RDKit          3D

 70 74  0  0  1  0  0  0  0  0999 V2000
   -1.2235   -0.7037    5.4829 C   0  0  0  0  0  0  0  0  0  0  0  0
    0.1491   -0.0026    5.4239 C   0  0  0  0  0  0  0  0  0  0  0  0
   -0.0571    1.5246    5.3287 C   0  0  0  0  0  0  0  0  0  0  0  0
    0.9954   -0.3144    6.6917 C   0  0  0  0  0  0  0  0  0  0  0  0
    1.5349   -1.7719    6.8121 C   0  0  1  0  0  0  0  0  0  0  0  0
    0.7234   -2.6691    7.7479 C   0  0  0  0  0  0  0  0  0  0  0  0
   -0.1749   -2.2639    8.4771 O   0  0  0  0  0  0  0  0  0  0  0  0
    1.1530   -4.1256    7.7297 C   0  0  0  0  0  0  0  0  0  0  0  0
    1.0049   -4.7618    6.3132 C   0  0  1  0  0  0  0  0  0  0  0  0
   -0.5121   -5.0446    6.1397 C   0  0  0  0  0  0  0  0  0  0  0  0
    1.4289   -3.7676    5.2029 C   0  0  0  0  0  0  0  0  0  0  0  0
    1.6896   -2.4487    5.4427 C   0  0  0  0  0  0  0  0  0  0  0  0
    2.0746   -1.4341    4.3728 C   0  0  0  0  0  0  0  0  0  0  0  0
    0.8921   -0.4940    4.1625 C   0  0  0  0  0  0  0  0  0  0  0  0
    0.5381   -0.1589    3.0365 O   0  0  0  0  0  0  0  0  0  0  0  0
    1.4673   -4.3863    3.8077 C   0  0  0  0  0  0  0  0  0  0  0  0
    2.3067   -5.6620    3.7564 C   0  0  0  0  0  0  0  0  0  0  0  0
    1.8247   -6.7105    4.7853 C   0  0  1  0  0  0  0  0  0  0  0  0
    2.5643   -8.0848    4.6002 C   0  0  1  0  0  0  0  0  0  0  0  0
    2.6236   -8.9982    5.8673 C   0  0  1  0  0  0  0  0  0  0  0  0
    2.3081   -8.3786    7.2447 C   0  0  0  0  0  0  0  0  0  0  0  0
    1.3634   -7.1759    7.1877 C   0  0  0  0  0  0  0  0  0  0  0  0
    1.8832   -6.0849    6.2188 C   0  0  2  0  0  0  0  0  0  0  0  0
    3.3636   -5.7516    6.5837 C   0  0  0  0  0  0  0  0  0  0  0  0
    1.8233  -10.2727    5.5804 C   0  0  0  0  0  0  0  0  0  0  0  0
    1.0728  -10.0227    4.2827 C   0  0  1  0  0  0  0  0  0  0  0  0
   -0.1792   -9.4453    4.5955 O   0  0  0  0  0  0  0  0  0  0  0  0
    1.9823   -9.0494    3.4978 C   0  0  0  0  0  0  0  0  0  0  0  0
    1.2145   -8.4133    2.3175 C   0  0  0  0  0  0  0  0  0  0  0  0
    3.1410   -9.8514    2.8566 C   0  0  0  0  0  0  0  0  0  0  0  0
   -1.7691   -0.4258    6.3829 H   0  0  0  0  0  0  0  0  0  0  0  0
   -1.1119   -1.7883    5.4829 H   0  0  0  0  0  0  0  0  0  0  0  0
   -1.8462   -0.4520    4.6221 H   0  0  0  0  0  0  0  0  0  0  0  0
   -0.5453    1.9221    6.2207 H   0  0  0  0  0  0  0  0  0  0  0  0
   -0.6575    1.8091    4.4618 H   0  0  0  0  0  0  0  0  0  0  0  0
    0.9021    2.0378    5.2305 H   0  0  0  0  0  0  0  0  0  0  0  0
    1.8666    0.3441    6.6826 H   0  0  0  0  0  0  0  0  0  0  0  0
    0.4474   -0.0121    7.5862 H   0  0  0  0  0  0  0  0  0  0  0  0
    2.5301   -1.7091    7.2478 H   0  0  0  0  0  0  0  0  0  0  0  0
    2.1871   -4.1183    8.0607 H   0  0  0  0  0  0  0  0  0  0  0  0
    0.5939   -4.6812    8.4800 H   0  0  0  0  0  0  0  0  0  0  0  0
   -0.9221   -5.6394    6.9565 H   0  0  0  0  0  0  0  0  0  0  0  0
   -0.7513   -5.5567    5.2107 H   0  0  0  0  0  0  0  0  0  0  0  0
   -1.0738   -4.1112    6.1264 H   0  0  0  0  0  0  0  0  0  0  0  0
    2.9246   -0.8481    4.7212 H   0  0  0  0  0  0  0  0  0  0  0  0
    2.3809   -1.8616    3.4216 H   0  0  0  0  0  0  0  0  0  0  0  0
    0.4435   -4.6214    3.5205 H   0  0  0  0  0  0  0  0  0  0  0  0
    1.8297   -3.7045    3.0438 H   0  0  0  0  0  0  0  0  0  0  0  0
    2.2784   -6.0457    2.7433 H   0  0  0  0  0  0  0  0  0  0  0  0
    3.3513   -5.4051    3.9338 H   0  0  0  0  0  0  0  0  0  0  0  0
    0.7777   -6.9188    4.5898 H   0  0  0  0  0  0  0  0  0  0  0  0
    3.5933   -7.8390    4.3325 H   0  0  0  0  0  0  0  0  0  0  0  0
    3.6571   -9.3343    5.9508 H   0  0  0  0  0  0  0  0  0  0  0  0
    1.8717   -9.1349    7.8991 H   0  0  0  0  0  0  0  0  0  0  0  0
    3.2363   -8.0947    7.7413 H   0  0  0  0  0  0  0  0  0  0  0  0
    0.3855   -7.5360    6.8677 H   0  0  0  0  0  0  0  0  0  0  0  0
    1.2293   -6.7897    8.1978 H   0  0  0  0  0  0  0  0  0  0  0  0
    4.0586   -6.5125    6.2288 H   0  0  0  0  0  0  0  0  0  0  0  0
    3.5119   -5.6913    7.6630 H   0  0  0  0  0  0  0  0  0  0  0  0
    3.6991   -4.8062    6.1573 H   0  0  0  0  0  0  0  0  0  0  0  0
    2.5152  -11.1040    5.4430 H   0  0  0  0  0  0  0  0  0  0  0  0
    1.1575  -10.5720    6.3859 H   0  0  0  0  0  0  0  0  0  0  0  0
    0.8905  -10.9546    3.7379 H   0  0  0  0  0  0  0  0  0  0  0  0
   -0.8009  -10.1248    4.8779 H   0  0  0  0  0  0  0  0  0  0  0  0
    0.7618   -9.1994    1.7152 H   0  0  0  0  0  0  0  0  0  0  0  0
    1.8757   -7.8613    1.6516 H   0  0  0  0  0  0  0  0  0  0  0  0
    0.4005   -7.7593    2.6248 H   0  0  0  0  0  0  0  0  0  0  0  0
    2.7698  -10.6153    2.1695 H   0  0  0  0  0  0  0  0  0  0  0  0
    3.7609  -10.3629    3.5930 H   0  0  0  0  0  0  0  0  0  0  0  0
    3.8005   -9.2024    2.2804 H   0  0  0  0  0  0  0  0  0  0  0  0
  1  2  1  0
  1 31  1  0
  1 32  1  0
  1 33  1  0
  2 14  1  0
  2  3  1  0
  2  4  1  0
  3 34  1  0
  3 35  1  0
  3 36  1  0
  4  5  1  0
  4 37  1  0
  4 38  1  0
  5 12  1  0
  5  6  1  0
  5 39  1  1
  6  7  2  0
  6  8  1  0
  8  9  1  0
  8 40  1  0
  8 41  1  0
  9 23  1  0
  9 10  1  6
  9 11  1  0
 10 42  1  0
 10 43  1  0
 10 44  1  0
 11 12  2  0
 11 16  1  0
 12 13  1  0
 13 14  1  0
 13 45  1  0
 13 46  1  0
 14 15  2  0
 16 17  1  0
 16 47  1  0
 16 48  1  0
 17 18  1  0
 17 49  1  0
 17 50  1  0
 18 23  1  0
 18 19  1  0
 18 51  1  6
 19 28  1  0
 19 20  1  0
 19 52  1  6
 20 21  1  0
 20 25  1  0
 20 53  1  1
 21 22  1  0
 21 54  1  0
 21 55  1  0
 22 23  1  0
 22 56  1  0
 22 57  1  0
 23 24  1  1
 24 58  1  0
 24 59  1  0
 24 60  1  0
 25 26  1  0
 25 61  1  0
 25 62  1  0
 26 27  1  0
 26 28  1  0
 26 63  1  6
 27 64  1  0
 28 29  1  0
 28 30  1  0
 29 65  1  0
 29 66  1  0
 29 67  1  0
 30 68  1  0
 30 69  1  0
 30 70  1  0
M  END
>  <i_m_ct_stereo_status>  (53) 
1

>  <s_m_source_file>  (53) 
/var/tmp/pbs.5076255.sched01/tmpmjg_sug8/0d5zvyqle.sdf

>  <i_m_source_file_index>  (53) 
23

>  <i_lp_mmshare_version>  (53) 
48012

>  <i_f3d_flags>  (53) 
0

>  <s_epik_input>  (53) 
W0NIMl0xQyg9TylDKFtDSDNdKShbQ0gzXSlbQ0gyXVtDQEBIXShDKD1PKVtDSDJdMilDMT1DKFtDQF0yM1tDSDNdKVtDSDJdW0NIMl1bQ0BIXTRbQ0BIXTVbQ0BASF0oW0NIMl1bQ0gyXVtDQF0zNFtDSDNdKVtDSDJdW0NAQEhdKFtPSF0pQzUoW0NIM10pW0NIM10=

>  <s_epik_cmdline>  (53) 
J2VwaWtfcHl0aG9uJywgJy1waHQnLCAnMi4wJywgJy1waCcsICc3LjAnLCAnLXRuJywgJzgnLCAnLW1hJywgJzIwMCcsICctaW1hZScsICc8aW5maWxlLm1hZT4nLCAnLW9tYWUnLCAnPG91dGZpbGUubWFlPic=

>  <r_lp_tautomer_probability>  (53) 
1

>  <r_epik_Ionization_Penalty>  (53) 
3.05558e-06

>  <r_epik_Ionization_Penalty_Charging>  (53) 
0

>  <r_epik_Ionization_Penalty_Neutral>  (53) 
3.05558e-06

>  <r_epik_State_Penalty>  (53) 
-0

>  <r_epik_Charging_Adjusted_Penalty>  (53) 
0

>  <i_epik_Tot_Q>  (53) 
0

>  <i_epik_Tot_abs_Q>  (53) 
0

>  <s_lp_Force_Field>  (53) 
OPLS3e

>  <r_lp_Energy>  (53) 
61.8547

>  <b_lp_Chiralities_Consistent>  (53) 
1

>  <s_lp_Variant>  (53) 
18:0-1

>  <s_i_glide_gridfile>  (53) 
pfpi4k_grid

>  <i_i_glide_lignum>  (53) 
23

>  <i_i_glide_rotatable_bonds>  (53) 
1

>  <r_i_docking_score>  (53) 
-2.89591

>  <r_i_glide_ligand_efficiency>  (53) 
-0.0965304

>  <r_i_glide_ligand_efficiency_sa>  (53) 
-0.299942

>  <r_i_glide_ligand_efficiency_ln>  (53) 
-0.657983

>  <r_i_glide_gscore>  (53) 
-2.89591

>  <r_i_glide_lipo>  (53) 
-0.0263152

>  <r_i_glide_hbond>  (53) 
-0.314013

>  <r_i_glide_metal>  (53) 
-0

>  <r_i_glide_rewards>  (53) 
-0.595877

>  <r_i_glide_evdw>  (53) 
-19.8463

>  <r_i_glide_ecoul>  (53) 
-6.27201

>  <r_i_glide_erotb>  (53) 
0

>  <r_i_glide_esite>  (53) 
-0.0265867

>  <r_i_glide_emodel>  (53) 
-31.0712

>  <r_i_glide_energy>  (53) 
-26.1184

>  <r_i_glide_einternal>  (53) 
0.572755

>  <r_i_glide_intrahb_reward>  (53) 
-0

>  <i_i_glide_confnum>  (53) 
1

>  <i_i_glide_posenum>  (53) 
8

>  <r_i_glide_eff_state_penalty>  (53) 
0

>  <ligand_id>  (53) 
18

>  <original_smiles>  (53) 
CC1(C)CC2C(=O)CC3(C)C(=C2CC1=O)CCC1C2C(CCC13C)CC(O)C2(C)C

>  <smiles>  (53) 
[H]OC1([H])C([H])([H])C2([H])C([H])([H])C([H])([H])C3(C([H])([H])[H])C([H])(C([H])([H])C([H])([H])C4=C5C([H])([H])C(=O)C(C([H])([H])[H])(C([H])([H])[H])C([H])([H])C5([H])C(=O)C([H])([H])C43C([H])([H])[H])C2([H])C1(C([H])([H])[H])C([H])([H])[H]

$$$$
20:0:0
     RDKit          3D

 77 83  0  0  1  0  0  0  0  0999 V2000
    4.3820   -9.2313    0.9017 C   0  0  0  0  0  0  0  0  0  0  0  0
    3.7228   -9.5423    2.1979 C   0  0  2  0  0  0  0  0  0  0  0  0
    2.2166   -9.3290    2.1051 C   0  0  0  0  0  0  0  0  0  0  0  0
    1.9889   -7.9692    2.4765 O   0  0  0  0  0  0  0  0  0  0  0  0
    3.1275   -7.4029    3.0600 C   0  0  2  0  0  0  0  0  0  0  0  0
    4.1014   -8.5770    3.3028 C   0  0  0  0  0  0  0  0  0  0  0  0
    2.8130   -6.8001    4.3026 O   0  0  0  0  0  0  0  0  0  0  0  0
    2.5987   -5.4153    4.0619 C   0  0  1  0  0  0  0  0  0  0  0  0
    2.7655   -4.3337    5.1331 C   0  0  0  0  0  0  0  0  0  0  0  0
    3.5699   -3.1890    4.4295 C   0  0  2  0  0  0  0  0  0  0  0  0
    3.0101   -1.7449    4.5674 C   0  0  2  0  0  0  0  0  0  0  0  0
    2.6521   -1.3490    6.0092 C   0  0  0  0  0  0  0  0  0  0  0  0
    2.3638    0.1641    6.1361 C   0  0  0  0  0  0  0  0  0  0  0  0
    1.8627    0.8412    4.8201 C   0  0  1  0  0  0  0  0  0  0  0  0
    1.0683   -0.1469    3.9126 C   0  0  2  0  0  0  0  0  0  0  0  0
   -0.3855   -0.3192    4.4037 C   0  0  0  0  0  0  0  0  0  0  0  0
   -1.0142    0.9978    4.8344 C   0  0  0  0  0  0  0  0  0  0  0  0
   -0.3464    2.1426    5.0801 C   0  0  0  0  0  0  0  0  0  0  0  0
   -1.0845    3.4633    5.2713 C   0  0  0  0  0  0  0  0  0  0  0  0
   -0.8094    4.3556    4.0595 C   0  0  0  0  0  0  0  0  0  0  0  0
   -1.7126    4.9377    3.4567 O   0  0  0  0  0  0  0  0  0  0  0  0
    0.6647    4.5065    3.6882 C   0  0  0  0  0  0  0  0  0  0  0  0
    1.4168    3.1448    3.7049 C   0  0  0  0  0  0  0  0  0  0  0  0
    1.1786    2.2637    4.9763 C   0  0  2  0  0  0  0  0  0  0  0  0
    1.7664    3.0169    6.2101 C   0  0  0  0  0  0  0  0  0  0  0  0
    1.7760   -1.5251    3.6699 C   0  0  1  0  0  0  0  0  0  0  0  0
    2.1986   -1.7329    2.2012 C   0  0  0  0  0  0  0  0  0  0  0  0
    2.6958   -3.1721    1.9601 C   0  0  0  0  0  0  0  0  0  0  0  0
    3.8122   -3.6423    2.9452 C   0  0  1  0  0  0  0  0  0  0  0  0
    5.1871   -3.1687    2.4345 C   0  0  0  0  0  0  0  0  0  0  0  0
    3.7830   -5.1630    3.1764 C   0  0  2  0  0  0  0  0  0  0  0  0
    3.5951   -6.2212    2.1253 C   0  0  1  0  0  0  0  0  0  0  0  0
    4.9198   -6.3910    1.3296 C   0  0  0  0  0  0  0  0  0  0  0  0
    3.8120   -8.3537    0.6630 H   0  0  0  0  0  0  0  0  0  0  0  0
    4.0324   -9.7018    0.0121 H   0  0  0  0  0  0  0  0  0  0  0  0
    5.4828   -9.1632    0.9237 H   0  0  0  0  0  0  0  0  0  0  0  0
    4.0126  -10.5573    2.3796 H   0  0  0  0  0  0  0  0  0  0  0  0
    1.8246   -9.5349    1.1058 H   0  0  0  0  0  0  0  0  0  0  0  0
    1.7128   -9.9867    2.8063 H   0  0  0  0  0  0  0  0  0  0  0  0
    3.8724   -9.0409    4.2687 H   0  0  0  0  0  0  0  0  0  0  0  0
    5.1503   -8.2852    3.3124 H   0  0  0  0  0  0  0  0  0  0  0  0
    1.6244   -5.2896    3.5757 H   0  0  0  0  0  0  0  0  0  0  0  0
    1.7906   -4.0022    5.4863 H   0  0  0  0  0  0  0  0  0  0  0  0
    3.3063   -4.7279    5.9960 H   0  0  0  0  0  0  0  0  0  0  0  0
    4.5419   -3.1768    4.9326 H   0  0  0  0  0  0  0  0  0  0  0  0
    3.8068   -1.0684    4.2346 H   0  0  0  0  0  0  0  0  0  0  0  0
    1.7887   -1.9255    6.3572 H   0  0  0  0  0  0  0  0  0  0  0  0
    3.4554   -1.6199    6.6874 H   0  0  0  0  0  0  0  0  0  0  0  0
    1.6157    0.2608    6.9136 H   0  0  0  0  0  0  0  0  0  0  0  0
    3.2567    0.6846    6.5112 H   0  0  0  0  0  0  0  0  0  0  0  0
    2.7782    1.0262    4.2709 H   0  0  0  0  0  0  0  0  0  0  0  0
    0.9968    0.3400    2.9390 H   0  0  0  0  0  0  0  0  0  0  0  0
   -0.9834   -0.7382    3.5926 H   0  0  0  0  0  0  0  0  0  0  0  0
   -0.4470   -1.0339    5.2235 H   0  0  0  0  0  0  0  0  0  0  0  0
   -2.0941    1.0201    4.8733 H   0  0  0  0  0  0  0  0  0  0  0  0
   -2.1562    3.2997    5.3531 H   0  0  0  0  0  0  0  0  0  0  0  0
   -0.7612    3.9670    6.1808 H   0  0  0  0  0  0  0  0  0  0  0  0
    0.7317    4.9599    2.6903 H   0  0  0  0  0  0  0  0  0  0  0  0
    1.1235    5.2078    4.3756 H   0  0  0  0  0  0  0  0  0  0  0  0
    1.1162    2.5908    2.8130 H   0  0  0  0  0  0  0  0  0  0  0  0
    2.4816    3.3352    3.5746 H   0  0  0  0  0  0  0  0  0  0  0  0
    2.8571    3.0461    6.1782 H   0  0  0  0  0  0  0  0  0  0  0  0
    1.4784    2.5496    7.1527 H   0  0  0  0  0  0  0  0  0  0  0  0
    1.4448    4.0572    6.2774 H   0  0  0  0  0  0  0  0  0  0  0  0
    1.0627   -2.3185    3.9152 H   0  0  0  0  0  0  0  0  0  0  0  0
    1.3451   -1.5466    1.5500 H   0  0  0  0  0  0  0  0  0  0  0  0
    2.9456   -0.9937    1.9150 H   0  0  0  0  0  0  0  0  0  0  0  0
    1.8090   -3.7838    2.0690 H   0  0  0  0  0  0  0  0  0  0  0  0
    2.9953   -3.3279    0.9164 H   0  0  0  0  0  0  0  0  0  0  0  0
    5.3822   -3.5103    1.4190 H   0  0  0  0  0  0  0  0  0  0  0  0
    5.9999   -3.5363    3.0584 H   0  0  0  0  0  0  0  0  0  0  0  0
    5.2492   -2.0820    2.4256 H   0  0  0  0  0  0  0  0  0  0  0  0
    4.6889   -5.4248    3.7411 H   0  0  0  0  0  0  0  0  0  0  0  0
    2.7734   -5.9802    1.4555 H   0  0  0  0  0  0  0  0  0  0  0  0
    5.7582   -6.7380    1.9052 H   0  0  0  0  0  0  0  0  0  0  0  0
    5.1193   -5.5933    0.6559 H   0  0  0  0  0  0  0  0  0  0  0  0
    4.9984   -6.9921    0.4454 H   0  0  0  0  0  0  0  0  0  0  0  0
  1  2  1  0
  1 34  1  0
  1 35  1  0
  1 36  1  0
  2  6  1  0
  2  3  1  0
  2 37  1  1
  3  4  1  0
  3 38  1  0
  3 39  1  0
  5  4  1  6
  5 32  1  0
  5  6  1  0
  5  7  1  0
  6 40  1  0
  6 41  1  0
  7  8  1  0
  8 31  1  0
  8  9  1  0
  8 42  1  6
  9 10  1  0
  9 43  1  0
  9 44  1  0
 10 29  1  0
 10 11  1  0
 10 45  1  1
 11 26  1  0
 11 12  1  0
 11 46  1  6
 12 13  1  0
 12 47  1  0
 12 48  1  0
 13 14  1  0
 13 49  1  0
 13 50  1  0
 14 24  1  0
 14 15  1  0
 14 51  1  6
 15 16  1  0
 15 26  1  0
 15 52  1  6
 16 17  1  0
 16 53  1  0
 16 54  1  0
 17 18  2  0
 17 55  1  0
 18 24  1  0
 18 19  1  0
 19 20  1  0
 19 56  1  0
 19 57  1  0
 20 21  2  0
 20 22  1  0
 22 23  1  0
 22 58  1  0
 22 59  1  0
 23 24  1  0
 23 60  1  0
 23 61  1  0
 24 25  1  1
 25 62  1  0
 25 63  1  0
 25 64  1  0
 26 27  1  0
 26 65  1  1
 27 28  1  0
 27 66  1  0
 27 67  1  0
 28 29  1  0
 28 68  1  0
 28 69  1  0
 29 30  1  6
 29 31  1  0
 30 70  1  0
 30 71  1  0
 30 72  1  0
 31 32  1  0
 31 73  1  1
 32 33  1  0
 32 74  1  6
 33 75  1  0
 33 76  1  0
 33 77  1  0
M  END
>  <i_m_ct_stereo_status>  (54) 
1

>  <s_m_source_file>  (54) 
/var/tmp/pbs.5076255.sched01/tmpmjg_sug8/0d5zvyqle.sdf

>  <i_m_source_file_index>  (54) 
25

>  <i_lp_mmshare_version>  (54) 
48012

>  <i_f3d_flags>  (54) 
0

>  <s_epik_input>  (54) 
W0NIM11bQ0BASF0oW0NIMl0xKVtDSDJdT1tDQEBdMTJPW0NAQEhdM1tDQEBIXShbQ0BIXTJbQ0gzXSlbQ0BdNChbQ0gzXSlbQ0BIXShbQ0gyXTMpW0NASF01W0NASF0oW0NIMl1bQ0gyXTQpW0NAQEhdNltDQEhdKFtDSDJdW0NIMl01KVtDQF03KFtDSDNdKUMoPVtDSF1bQ0gyXTYpW0NIMl1DKD1PKVtDSDJdW0NIMl03

>  <s_epik_cmdline>  (54) 
J2VwaWtfcHl0aG9uJywgJy1waHQnLCAnMi4wJywgJy1waCcsICc3LjAnLCAnLXRuJywgJzgnLCAnLW1hJywgJzIwMCcsICctaW1hZScsICc8aW5maWxlLm1hZT4nLCAnLW9tYWUnLCAnPG91dGZpbGUubWFlPic=

>  <r_lp_tautomer_probability>  (54) 
1

>  <r_epik_Ionization_Penalty>  (54) 
4.39997e-12

>  <r_epik_Ionization_Penalty_Charging>  (54) 
0

>  <r_epik_Ionization_Penalty_Neutral>  (54) 
4.39997e-12

>  <r_epik_State_Penalty>  (54) 
-0

>  <r_epik_Charging_Adjusted_Penalty>  (54) 
0

>  <i_epik_Tot_Q>  (54) 
0

>  <i_epik_Tot_abs_Q>  (54) 
0

>  <s_lp_Force_Field>  (54) 
OPLS3e

>  <r_lp_Energy>  (54) 
60.391

>  <b_lp_Chiralities_Consistent>  (54) 
1

>  <s_lp_Variant>  (54) 
20:0-1

>  <s_i_glide_gridfile>  (54) 
pfpi4k_grid

>  <i_i_glide_lignum>  (54) 
25

>  <i_i_glide_rotatable_bonds>  (54) 
0

>  <r_i_docking_score>  (54) 
-1.10551

>  <r_i_glide_ligand_efficiency>  (54) 
-0.0335002

>  <r_i_glide_ligand_efficiency_sa>  (54) 
-0.107453

>  <r_i_glide_ligand_efficiency_ln>  (54) 
-0.245859

>  <r_i_glide_gscore>  (54) 
-1.10551

>  <r_i_glide_lipo>  (54) 
-0.210314

>  <r_i_glide_hbond>  (54) 
-0.16

>  <r_i_glide_metal>  (54) 
-0

>  <r_i_glide_rewards>  (54) 
-0.322714

>  <r_i_glide_evdw>  (54) 
-23.1048

>  <r_i_glide_ecoul>  (54) 
-4.45875

>  <r_i_glide_erotb>  (54) 
0

>  <r_i_glide_esite>  (54) 
-0.0882467

>  <r_i_glide_emodel>  (54) 
-22.6421

>  <r_i_glide_energy>  (54) 
-27.5635

>  <r_i_glide_einternal>  (54) 
0

>  <r_i_glide_intrahb_reward>  (54) 
-0

>  <i_i_glide_confnum>  (54) 
3

>  <i_i_glide_posenum>  (54) 
27

>  <r_i_glide_eff_state_penalty>  (54) 
0

>  <ligand_id>  (54) 
20

>  <original_smiles>  (54) 
CC1COC2(C1)OC1CC3C4CCC5C(CC=C6CC(=O)CCC65C)C4CCC3(C)C1C2C

>  <smiles>  (54) 
[H]C1=C2C([H])([H])C(=O)C([H])([H])C([H])([H])C2(C([H])([H])[H])C2([H])C([H])([H])C([H])([H])C3([H])C([H])(C([H])([H])C([H])([H])C4(C([H])([H])[H])C3([H])C([H])([H])C3([H])OC5(OC([H])([H])C([H])(C([H])([H])[H])C5([H])[H])C([H])(C([H])([H])[H])C34[H])C2([H])C1([H])[H]

$$$$
20:0:1
     RDKit          3D

 77 83  0  0  1  0  0  0  0  0999 V2000
    4.2023   -9.0098    0.7729 C   0  0  0  0  0  0  0  0  0  0  0  0
    3.9512   -9.1893    2.2308 C   0  0  2  0  0  0  0  0  0  0  0  0
    2.4902   -8.9137    2.5602 C   0  0  0  0  0  0  0  0  0  0  0  0
    2.4096   -7.5189    2.8587 O   0  0  0  0  0  0  0  0  0  0  0  0
    3.6835   -6.9598    3.0322 C   0  0  2  0  0  0  0  0  0  0  0  0
    4.6597   -8.1553    3.0834 C   0  0  0  0  0  0  0  0  0  0  0  0
    3.7604   -6.2481    4.2540 O   0  0  0  0  0  0  0  0  0  0  0  0
    3.5132   -4.8781    3.9642 C   0  0  1  0  0  0  0  0  0  0  0  0
    4.0104   -3.7238    4.8385 C   0  0  0  0  0  0  0  0  0  0  0  0
    4.5945   -2.6762    3.8322 C   0  0  2  0  0  0  0  0  0  0  0  0
    4.1306   -1.2015    3.9981 C   0  0  2  0  0  0  0  0  0  0  0  0
    4.2217   -0.6767    5.4405 C   0  0  0  0  0  0  0  0  0  0  0  0
    4.0142    0.8529    5.5106 C   0  0  0  0  0  0  0  0  0  0  0  0
    3.1609    1.4463    4.3442 C   0  0  1  0  0  0  0  0  0  0  0  0
    2.1152    0.4272    3.7990 C   0  0  2  0  0  0  0  0  0  0  0  0
    0.8660    0.3600    4.7052 C   0  0  0  0  0  0  0  0  0  0  0  0
    0.4201    1.7350    5.1826 C   0  0  0  0  0  0  0  0  0  0  0  0
    1.1547    2.8642    5.1198 C   0  0  0  0  0  0  0  0  0  0  0  0
    0.5325    4.2284    5.3998 C   0  0  0  0  0  0  0  0  0  0  0  0
    0.4574    5.0117    4.0888 C   0  0  0  0  0  0  0  0  0  0  0  0
   -0.5748    5.5815    3.7296 O   0  0  0  0  0  0  0  0  0  0  0  0
    1.7553    5.0612    3.2797 C   0  0  0  0  0  0  0  0  0  0  0  0
    2.4525    3.6725    3.2077 C   0  0  0  0  0  0  0  0  0  0  0  0
    2.5836    2.9066    4.5651 C   0  0  2  0  0  0  0  0  0  0  0  0
    3.5241    3.7269    5.5017 C   0  0  0  0  0  0  0  0  0  0  0  0
    2.6912   -0.9968    3.4842 C   0  0  1  0  0  0  0  0  0  0  0  0
    2.6568   -1.3394    1.9811 C   0  0  0  0  0  0  0  0  0  0  0  0
    3.0309   -2.8143    1.7342 C   0  0  0  0  0  0  0  0  0  0  0  0
    4.3793   -3.2556    2.3881 C   0  0  1  0  0  0  0  0  0  0  0  0
    5.5538   -2.8875    1.4584 C   0  0  0  0  0  0  0  0  0  0  0  0
    4.3885   -4.7497    2.7530 C   0  0  2  0  0  0  0  0  0  0  0  0
    3.8786   -5.8781    1.8995 C   0  0  1  0  0  0  0  0  0  0  0  0
    4.9036   -6.1758    0.7651 C   0  0  0  0  0  0  0  0  0  0  0  0
    3.6137   -8.1340    0.6350 H   0  0  0  0  0  0  0  0  0  0  0  0
    3.6012   -9.5403    0.0677 H   0  0  0  0  0  0  0  0  0  0  0  0
    5.2649   -8.9894    0.4711 H   0  0  0  0  0  0  0  0  0  0  0  0
    4.2627  -10.1995    2.4094 H   0  0  0  0  0  0  0  0  0  0  0  0
    1.8161   -9.1789    1.7406 H   0  0  0  0  0  0  0  0  0  0  0  0
    2.2023   -9.4887    3.4342 H   0  0  0  0  0  0  0  0  0  0  0  0
    4.7162   -8.5294    4.1106 H   0  0  0  0  0  0  0  0  0  0  0  0
    5.6709   -7.9112    2.7605 H   0  0  0  0  0  0  0  0  0  0  0  0
    2.4422   -4.7468    3.7733 H   0  0  0  0  0  0  0  0  0  0  0  0
    3.1896   -3.3212    5.4304 H   0  0  0  0  0  0  0  0  0  0  0  0
    4.7734   -4.0725    5.5375 H   0  0  0  0  0  0  0  0  0  0  0  0
    5.6710   -2.6689    4.0261 H   0  0  0  0  0  0  0  0  0  0  0  0
    4.8065   -0.5912    3.3891 H   0  0  0  0  0  0  0  0  0  0  0  0
    3.4876   -1.1831    6.0745 H   0  0  0  0  0  0  0  0  0  0  0  0
    5.1842   -0.9299    5.8762 H   0  0  0  0  0  0  0  0  0  0  0  0
    3.5300    1.0457    6.4621 H   0  0  0  0  0  0  0  0  0  0  0  0
    4.9872    1.3593    5.5606 H   0  0  0  0  0  0  0  0  0  0  0  0
    3.8772    1.5451    3.5366 H   0  0  0  0  0  0  0  0  0  0  0  0
    1.7695    0.8382    2.8500 H   0  0  0  0  0  0  0  0  0  0  0  0
    0.0458   -0.0964    4.1430 H   0  0  0  0  0  0  0  0  0  0  0  0
    1.0357   -0.2828    5.5693 H   0  0  0  0  0  0  0  0  0  0  0  0
   -0.5981    1.8092    5.5346 H   0  0  0  0  0  0  0  0  0  0  0  0
   -0.4706    4.1202    5.8062 H   0  0  0  0  0  0  0  0  0  0  0  0
    1.1200    4.7865    6.1276 H   0  0  0  0  0  0  0  0  0  0  0  0
    1.5338    5.4271    2.2762 H   0  0  0  0  0  0  0  0  0  0  0  0
    2.4135    5.7933    3.7469 H   0  0  0  0  0  0  0  0  0  0  0  0
    1.8928    3.0642    2.4950 H   0  0  0  0  0  0  0  0  0  0  0  0
    3.4323    3.8036    2.7551 H   0  0  0  0  0  0  0  0  0  0  0  0
    4.5569    3.7036    5.1505 H   0  0  0  0  0  0  0  0  0  0  0  0
    3.5169    3.3494    6.5250 H   0  0  0  0  0  0  0  0  0  0  0  0
    3.2577    4.7827    5.5670 H   0  0  0  0  0  0  0  0  0  0  0  0
    2.0661   -1.7342    3.9963 H   0  0  0  0  0  0  0  0  0  0  0  0
    1.6530   -1.1667    1.5929 H   0  0  0  0  0  0  0  0  0  0  0  0
    3.3023   -0.6605    1.4243 H   0  0  0  0  0  0  0  0  0  0  0  0
    2.2014   -3.3752    2.1510 H   0  0  0  0  0  0  0  0  0  0  0  0
    3.0075   -3.0650    0.6676 H   0  0  0  0  0  0  0  0  0  0  0  0
    5.4319   -3.3168    0.4648 H   0  0  0  0  0  0  0  0  0  0  0  0
    6.5088   -3.2403    1.8483 H   0  0  0  0  0  0  0  0  0  0  0  0
    5.6308   -1.8087    1.3351 H   0  0  0  0  0  0  0  0  0  0  0  0
    5.4143   -5.0079    3.0486 H   0  0  0  0  0  0  0  0  0  0  0  0
    2.8993   -5.6535    1.4803 H   0  0  0  0  0  0  0  0  0  0  0  0
    5.8722   -6.5082    1.1067 H   0  0  0  0  0  0  0  0  0  0  0  0
    4.9154   -5.4321    0.0007 H   0  0  0  0  0  0  0  0  0  0  0  0
    4.7064   -6.8415   -0.0389 H   0  0  0  0  0  0  0  0  0  0  0  0
  1  2  1  0
  1 34  1  0
  1 35  1  0
  1 36  1  0
  2  6  1  0
  2  3  1  0
  2 37  1  1
  3  4  1  0
  3 38  1  0
  3 39  1  0
  5  4  1  6
  5 32  1  0
  5  6  1  0
  5  7  1  0
  6 40  1  0
  6 41  1  0
  7  8  1  0
  8 31  1  0
  8  9  1  0
  8 42  1  6
  9 10  1  0
  9 43  1  0
  9 44  1  0
 10 29  1  0
 10 11  1  0
 10 45  1  1
 11 26  1  0
 11 12  1  0
 11 46  1  6
 12 13  1  0
 12 47  1  0
 12 48  1  0
 13 14  1  0
 13 49  1  0
 13 50  1  0
 14 24  1  0
 14 15  1  0
 14 51  1  6
 15 16  1  0
 15 26  1  0
 15 52  1  6
 16 17  1  0
 16 53  1  0
 16 54  1  0
 17 18  2  0
 17 55  1  0
 18 24  1  0
 18 19  1  0
 19 20  1  0
 19 56  1  0
 19 57  1  0
 20 21  2  0
 20 22  1  0
 22 23  1  0
 22 58  1  0
 22 59  1  0
 23 24  1  0
 23 60  1  0
 23 61  1  0
 24 25  1  1
 25 62  1  0
 25 63  1  0
 25 64  1  0
 26 27  1  0
 26 65  1  1
 27 28  1  0
 27 66  1  0
 27 67  1  0
 28 29  1  0
 28 68  1  0
 28 69  1  0
 29 30  1  6
 29 31  1  0
 30 70  1  0
 30 71  1  0
 30 72  1  0
 31 32  1  0
 31 73  1  1
 32 33  1  0
 32 74  1  6
 33 75  1  0
 33 76  1  0
 33 77  1  0
M  END
>  <i_m_ct_stereo_status>  (55) 
1

>  <s_m_source_file>  (55) 
/var/tmp/pbs.5076255.sched01/tmpmjg_sug8/0d5zvyqle.sdf

>  <i_m_source_file_index>  (55) 
25

>  <i_lp_mmshare_version>  (55) 
48012

>  <i_f3d_flags>  (55) 
0

>  <s_epik_input>  (55) 
W0NIM11bQ0BASF0oW0NIMl0xKVtDSDJdT1tDQEBdMTJPW0NAQEhdM1tDQEBIXShbQ0BIXTJbQ0gzXSlbQ0BdNChbQ0gzXSlbQ0BIXShbQ0gyXTMpW0NASF01W0NASF0oW0NIMl1bQ0gyXTQpW0NAQEhdNltDQEhdKFtDSDJdW0NIMl01KVtDQF03KFtDSDNdKUMoPVtDSF1bQ0gyXTYpW0NIMl1DKD1PKVtDSDJdW0NIMl03

>  <s_epik_cmdline>  (55) 
J2VwaWtfcHl0aG9uJywgJy1waHQnLCAnMi4wJywgJy1waCcsICc3LjAnLCAnLXRuJywgJzgnLCAnLW1hJywgJzIwMCcsICctaW1hZScsICc8aW5maWxlLm1hZT4nLCAnLW9tYWUnLCAnPG91dGZpbGUubWFlPic=

>  <r_lp_tautomer_probability>  (55) 
1

>  <r_epik_Ionization_Penalty>  (55) 
4.39997e-12

>  <r_epik_Ionization_Penalty_Charging>  (55) 
0

>  <r_epik_Ionization_Penalty_Neutral>  (55) 
4.39997e-12

>  <r_epik_State_Penalty>  (55) 
-0

>  <r_epik_Charging_Adjusted_Penalty>  (55) 
0

>  <i_epik_Tot_Q>  (55) 
0

>  <i_epik_Tot_abs_Q>  (55) 
0

>  <s_lp_Force_Field>  (55) 
OPLS3e

>  <r_lp_Energy>  (55) 
60.391

>  <b_lp_Chiralities_Consistent>  (55) 
1

>  <s_lp_Variant>  (55) 
20:0-1

>  <s_i_glide_gridfile>  (55) 
pfpi4k_grid

>  <i_i_glide_lignum>  (55) 
25

>  <i_i_glide_rotatable_bonds>  (55) 
0

>  <r_i_docking_score>  (55) 
-0.835869

>  <r_i_glide_ligand_efficiency>  (55) 
-0.0253294

>  <r_i_glide_ligand_efficiency_sa>  (55) 
-0.0812448

>  <r_i_glide_ligand_efficiency_ln>  (55) 
-0.185893

>  <r_i_glide_gscore>  (55) 
-0.835869

>  <r_i_glide_lipo>  (55) 
-0.25624

>  <r_i_glide_hbond>  (55) 
-0.0926117

>  <r_i_glide_metal>  (55) 
-0

>  <r_i_glide_rewards>  (55) 
-0.322714

>  <r_i_glide_evdw>  (55) 
-26.956

>  <r_i_glide_ecoul>  (55) 
-2.57356

>  <r_i_glide_erotb>  (55) 
0

>  <r_i_glide_esite>  (55) 
-0.0692425

>  <r_i_glide_emodel>  (55) 
-23.7976

>  <r_i_glide_energy>  (55) 
-29.5295

>  <r_i_glide_einternal>  (55) 
0

>  <r_i_glide_intrahb_reward>  (55) 
-0

>  <i_i_glide_confnum>  (55) 
3

>  <i_i_glide_posenum>  (55) 
2

>  <r_i_glide_eff_state_penalty>  (55) 
0

>  <ligand_id>  (55) 
20

>  <original_smiles>  (55) 
CC1COC2(C1)OC1CC3C4CCC5C(CC=C6CC(=O)CCC65C)C4CCC3(C)C1C2C

>  <smiles>  (55) 
[H]C1=C2C([H])([H])C(=O)C([H])([H])C([H])([H])C2(C([H])([H])[H])C2([H])C([H])([H])C([H])([H])C3([H])C([H])(C([H])([H])C([H])([H])C4(C([H])([H])[H])C3([H])C([H])([H])C3([H])OC5(OC([H])([H])C([H])(C([H])([H])[H])C5([H])[H])C([H])(C([H])([H])[H])C34[H])C2([H])C1([H])[H]

$$$$
20:0:2
     RDKit          3D

 77 83  0  0  1  0  0  0  0  0999 V2000
    1.7696   -9.9566    2.6013 C   0  0  0  0  0  0  0  0  0  0  0  0
    0.6070  -10.0210    3.5190 C   0  0  2  0  0  0  0  0  0  0  0  0
   -0.6220   -9.3714    2.8924 C   0  0  0  0  0  0  0  0  0  0  0  0
   -0.5841   -7.9970    3.2797 O   0  0  0  0  0  0  0  0  0  0  0  0
    0.3529   -7.7819    4.2941 C   0  0  2  0  0  0  0  0  0  0  0  0
    0.7869   -9.1860    4.7724 C   0  0  0  0  0  0  0  0  0  0  0  0
   -0.2283   -7.0839    5.3807 O   0  0  0  0  0  0  0  0  0  0  0  0
    0.0659   -5.7047    5.2102 C   0  0  1  0  0  0  0  0  0  0  0  0
    0.1043   -4.6967    6.3624 C   0  0  0  0  0  0  0  0  0  0  0  0
    1.4042   -3.8575    6.1193 C   0  0  2  0  0  0  0  0  0  0  0  0
    1.2655   -2.3098    6.1735 C   0  0  2  0  0  0  0  0  0  0  0  0
    0.5094   -1.7935    7.4080 C   0  0  0  0  0  0  0  0  0  0  0  0
    0.6328   -0.2603    7.5598 C   0  0  0  0  0  0  0  0  0  0  0  0
    0.8878    0.5048    6.2217 C   0  0  1  0  0  0  0  0  0  0  0  0
    0.2587   -0.2245    4.9950 C   0  0  2  0  0  0  0  0  0  0  0  0
   -1.2566    0.0515    4.8880 C   0  0  0  0  0  0  0  0  0  0  0  0
   -1.6024    1.5059    5.1772 C   0  0  0  0  0  0  0  0  0  0  0  0
   -0.7877    2.4069    5.7605 C   0  0  0  0  0  0  0  0  0  0  0  0
   -1.1377    3.8907    5.7850 C   0  0  0  0  0  0  0  0  0  0  0  0
   -0.1808    4.6370    4.8547 C   0  0  0  0  0  0  0  0  0  0  0  0
   -0.5832    5.4437    4.0193 O   0  0  0  0  0  0  0  0  0  0  0  0
    1.3046    4.3350    5.0616 C   0  0  0  0  0  0  0  0  0  0  0  0
    1.5720    2.8121    5.2409 C   0  0  0  0  0  0  0  0  0  0  0  0
    0.6267    2.0697    6.2441 C   0  0  2  0  0  0  0  0  0  0  0  0
    0.8829    2.6427    7.6728 C   0  0  0  0  0  0  0  0  0  0  0  0
    0.5865   -1.7552    4.9057 C   0  0  1  0  0  0  0  0  0  0  0  0
    1.4625   -2.1113    3.6866 C   0  0  0  0  0  0  0  0  0  0  0  0
    1.5885   -3.6384    3.5157 C   0  0  0  0  0  0  0  0  0  0  0  0
    2.0594   -4.3959    4.7971 C   0  0  1  0  0  0  0  0  0  0  0  0
    3.5982   -4.3625    4.8832 C   0  0  0  0  0  0  0  0  0  0  0  0
    1.5170   -5.8346    4.8566 C   0  0  2  0  0  0  0  0  0  0  0  0
    1.4558   -6.8134    3.7169 C   0  0  1  0  0  0  0  0  0  0  0  0
    2.8770   -7.3811    3.4653 C   0  0  0  0  0  0  0  0  0  0  0  0
    1.6071   -8.9446    2.2490 H   0  0  0  0  0  0  0  0  0  0  0  0
    1.6752  -10.2924    1.6032 H   0  0  0  0  0  0  0  0  0  0  0  0
    2.7493  -10.2086    3.0357 H   0  0  0  0  0  0  0  0  0  0  0  0
    0.5062  -11.0700    3.7014 H   0  0  0  0  0  0  0  0  0  0  0  0
   -0.6440   -9.4756    1.8059 H   0  0  0  0  0  0  0  0  0  0  0  0
   -1.5194   -9.8356    3.2852 H   0  0  0  0  0  0  0  0  0  0  0  0
    0.0837   -9.5401    5.5356 H   0  0  0  0  0  0  0  0  0  0  0  0
    1.7876   -9.2177    5.1993 H   0  0  0  0  0  0  0  0  0  0  0  0
   -0.5701   -5.3085    4.4113 H   0  0  0  0  0  0  0  0  0  0  0  0
   -0.7946   -4.0838    6.3555 H   0  0  0  0  0  0  0  0  0  0  0  0
    0.1382   -5.2141    7.3232 H   0  0  0  0  0  0  0  0  0  0  0  0
    2.0701   -4.1222    6.9473 H   0  0  0  0  0  0  0  0  0  0  0  0
    2.2855   -1.9067    6.2265 H   0  0  0  0  0  0  0  0  0  0  0  0
   -0.5456   -2.0817    7.3523 H   0  0  0  0  0  0  0  0  0  0  0  0
    0.8795   -2.2741    8.3075 H   0  0  0  0  0  0  0  0  0  0  0  0
   -0.2942    0.0713    8.0072 H   0  0  0  0  0  0  0  0  0  0  0  0
    1.4220   -0.0185    8.2882 H   0  0  0  0  0  0  0  0  0  0  0  0
    1.9547    0.3983    6.0729 H   0  0  0  0  0  0  0  0  0  0  0  0
    0.7071    0.2402    4.1150 H   0  0  0  0  0  0  0  0  0  0  0  0
   -1.5899   -0.1909    3.8741 H   0  0  0  0  0  0  0  0  0  0  0  0
   -1.8267   -0.5930    5.5563 H   0  0  0  0  0  0  0  0  0  0  0  0
   -2.5613    1.8485    4.8122 H   0  0  0  0  0  0  0  0  0  0  0  0
   -2.1578    4.0536    5.4460 H   0  0  0  0  0  0  0  0  0  0  0  0
   -1.0612    4.2970    6.7921 H   0  0  0  0  0  0  0  0  0  0  0  0
    1.8692    4.7235    4.2129 H   0  0  0  0  0  0  0  0  0  0  0  0
    1.6376    4.8831    5.9435 H   0  0  0  0  0  0  0  0  0  0  0  0
    1.4939    2.3506    4.2542 H   0  0  0  0  0  0  0  0  0  0  0  0
    2.6121    2.6756    5.5360 H   0  0  0  0  0  0  0  0  0  0  0  0
    1.8627    2.3471    8.0526 H   0  0  0  0  0  0  0  0  0  0  0  0
    0.1363    2.3030    8.3919 H   0  0  0  0  0  0  0  0  0  0  0  0
    0.8672    3.7329    7.7124 H   0  0  0  0  0  0  0  0  0  0  0  0
   -0.3587   -2.2966    4.7916 H   0  0  0  0  0  0  0  0  0  0  0  0
    1.0141   -1.6960    2.7846 H   0  0  0  0  0  0  0  0  0  0  0  0
    2.4376   -1.6331    3.7710 H   0  0  0  0  0  0  0  0  0  0  0  0
    0.5960   -3.9565    3.2280 H   0  0  0  0  0  0  0  0  0  0  0  0
    2.2080   -3.9000    2.6481 H   0  0  0  0  0  0  0  0  0  0  0  0
    4.0630   -4.7687    3.9853 H   0  0  0  0  0  0  0  0  0  0  0  0
    3.9728   -4.9390    5.7296 H   0  0  0  0  0  0  0  0  0  0  0  0
    3.9619   -3.3427    4.9987 H   0  0  0  0  0  0  0  0  0  0  0  0
    2.0235   -6.3397    5.6916 H   0  0  0  0  0  0  0  0  0  0  0  0
    1.0588   -6.3550    2.8159 H   0  0  0  0  0  0  0  0  0  0  0  0
    3.2964   -7.9514    4.2686 H   0  0  0  0  0  0  0  0  0  0  0  0
    3.5357   -6.7020    2.9858 H   0  0  0  0  0  0  0  0  0  0  0  0
    3.1186   -8.0040    2.6161 H   0  0  0  0  0  0  0  0  0  0  0  0
  1  2  1  0
  1 34  1  0
  1 35  1  0
  1 36  1  0
  2  6  1  0
  2  3  1  0
  2 37  1  1
  3  4  1  0
  3 38  1  0
  3 39  1  0
  5  4  1  6
  5 32  1  0
  5  6  1  0
  5  7  1  0
  6 40  1  0
  6 41  1  0
  7  8  1  0
  8 31  1  0
  8  9  1  0
  8 42  1  6
  9 10  1  0
  9 43  1  0
  9 44  1  0
 10 29  1  0
 10 11  1  0
 10 45  1  1
 11 26  1  0
 11 12  1  0
 11 46  1  1
 12 13  1  0
 12 47  1  0
 12 48  1  0
 13 14  1  0
 13 49  1  0
 13 50  1  0
 14 24  1  0
 14 15  1  0
 14 51  1  6
 15 16  1  0
 15 26  1  0
 15 52  1  6
 16 17  1  0
 16 53  1  0
 16 54  1  0
 17 18  2  0
 17 55  1  0
 18 24  1  0
 18 19  1  0
 19 20  1  0
 19 56  1  0
 19 57  1  0
 20 21  2  0
 20 22  1  0
 22 23  1  0
 22 58  1  0
 22 59  1  0
 23 24  1  0
 23 60  1  0
 23 61  1  0
 24 25  1  1
 25 62  1  0
 25 63  1  0
 25 64  1  0
 26 27  1  0
 26 65  1  6
 27 28  1  0
 27 66  1  0
 27 67  1  0
 28 29  1  0
 28 68  1  0
 28 69  1  0
 29 30  1  1
 29 31  1  0
 30 70  1  0
 30 71  1  0
 30 72  1  0
 31 32  1  0
 31 73  1  1
 32 33  1  0
 32 74  1  6
 33 75  1  0
 33 76  1  0
 33 77  1  0
M  END
>  <i_m_ct_stereo_status>  (56) 
1

>  <s_m_source_file>  (56) 
/var/tmp/pbs.5076255.sched01/tmpmjg_sug8/0d5zvyqle.sdf

>  <i_m_source_file_index>  (56) 
25

>  <i_lp_mmshare_version>  (56) 
48012

>  <i_f3d_flags>  (56) 
0

>  <s_epik_input>  (56) 
W0NIM11bQ0BASF0oW0NIMl0xKVtDSDJdT1tDQEBdMTJPW0NAQEhdM1tDQEBIXShbQ0BIXTJbQ0gzXSlbQ0BdNChbQ0gzXSlbQ0BIXShbQ0gyXTMpW0NASF01W0NASF0oW0NIMl1bQ0gyXTQpW0NAQEhdNltDQEhdKFtDSDJdW0NIMl01KVtDQF03KFtDSDNdKUMoPVtDSF1bQ0gyXTYpW0NIMl1DKD1PKVtDSDJdW0NIMl03

>  <s_epik_cmdline>  (56) 
J2VwaWtfcHl0aG9uJywgJy1waHQnLCAnMi4wJywgJy1waCcsICc3LjAnLCAnLXRuJywgJzgnLCAnLW1hJywgJzIwMCcsICctaW1hZScsICc8aW5maWxlLm1hZT4nLCAnLW9tYWUnLCAnPG91dGZpbGUubWFlPic=

>  <r_lp_tautomer_probability>  (56) 
1

>  <r_epik_Ionization_Penalty>  (56) 
4.39997e-12

>  <r_epik_Ionization_Penalty_Charging>  (56) 
0

>  <r_epik_Ionization_Penalty_Neutral>  (56) 
4.39997e-12

>  <r_epik_State_Penalty>  (56) 
-0

>  <r_epik_Charging_Adjusted_Penalty>  (56) 
0

>  <i_epik_Tot_Q>  (56) 
0

>  <i_epik_Tot_abs_Q>  (56) 
0

>  <s_lp_Force_Field>  (56) 
OPLS3e

>  <r_lp_Energy>  (56) 
60.391

>  <b_lp_Chiralities_Consistent>  (56) 
1

>  <s_lp_Variant>  (56) 
20:0-1

>  <s_i_glide_gridfile>  (56) 
pfpi4k_grid

>  <i_i_glide_lignum>  (56) 
25

>  <i_i_glide_rotatable_bonds>  (56) 
0

>  <r_i_docking_score>  (56) 
-0.765952

>  <r_i_glide_ligand_efficiency>  (56) 
-0.0232107

>  <r_i_glide_ligand_efficiency_sa>  (56) 
-0.074449

>  <r_i_glide_ligand_efficiency_ln>  (56) 
-0.170344

>  <r_i_glide_gscore>  (56) 
-0.765952

>  <r_i_glide_lipo>  (56) 
-0.127395

>  <r_i_glide_hbond>  (56) 
-0.0793605

>  <r_i_glide_metal>  (56) 
-0

>  <r_i_glide_rewards>  (56) 
-0.322714

>  <r_i_glide_evdw>  (56) 
-26.989

>  <r_i_glide_ecoul>  (56) 
-2.61175

>  <r_i_glide_erotb>  (56) 
0

>  <r_i_glide_esite>  (56) 
-0.0672632

>  <r_i_glide_emodel>  (56) 
-23.8695

>  <r_i_glide_energy>  (56) 
-29.6008

>  <r_i_glide_einternal>  (56) 
0

>  <r_i_glide_intrahb_reward>  (56) 
-0

>  <i_i_glide_confnum>  (56) 
3

>  <i_i_glide_posenum>  (56) 
8

>  <r_i_glide_eff_state_penalty>  (56) 
0

>  <ligand_id>  (56) 
20

>  <original_smiles>  (56) 
CC1COC2(C1)OC1CC3C4CCC5C(CC=C6CC(=O)CCC65C)C4CCC3(C)C1C2C

>  <smiles>  (56) 
[H]C1=C2C([H])([H])C(=O)C([H])([H])C([H])([H])C2(C([H])([H])[H])C2([H])C([H])([H])C([H])([H])C3([H])C([H])(C([H])([H])C([H])([H])C4(C([H])([H])[H])C3([H])C([H])([H])C3([H])OC5(OC([H])([H])C([H])(C([H])([H])[H])C5([H])[H])C([H])(C([H])([H])[H])C34[H])C2([H])C1([H])[H]

$$$$
21:0:0
     RDKit          3D

 69 76  0  0  1  0  0  0  0  0999 V2000
    4.8018   -6.2418    1.8353 C   0  0  0  0  0  0  0  0  0  0  0  0
    4.6641   -5.0020    1.3601 C   0  0  0  0  0  0  0  0  0  0  0  0
    5.2787   -4.5746    0.0328 C   0  0  2  0  0  0  0  0  0  0  0  0
    6.8375   -4.3507    0.2925 C   0  0  0  0  0  0  0  0  0  0  0  0
    7.2003   -3.3089    1.2524 O   0  0  0  0  0  0  0  0  0  0  0  0
    7.1960   -2.0021    0.6538 C   0  0  2  0  0  0  0  0  0  0  0  0
    8.4659   -1.6006    0.1903 O   0  0  0  0  0  0  0  0  0  0  0  0
    6.2217   -0.8562    1.0772 C   0  0  0  0  0  0  0  0  0  0  0  0
    5.1770   -1.8896    0.6801 C   0  0  2  0  0  0  0  0  0  0  0  0
    6.2620   -2.1221   -0.3241 O   0  0  0  0  0  0  0  0  0  0  0  0
    4.1873   -2.1038   -0.2641 O   0  0  0  0  0  0  0  0  0  0  0  0
    4.2692   -3.5186   -0.7059 C   0  0  2  0  0  0  0  0  0  0  0  0
    2.8649   -4.0427   -0.4145 C   0  0  1  0  0  0  0  0  0  0  0  0
    2.5166   -3.8256    1.0655 C   0  0  0  0  0  0  0  0  0  0  0  0
    3.7894   -3.8957    1.9635 C   0  0  1  0  0  0  0  0  0  0  0  0
    3.3849   -4.1177    3.4394 C   0  0  1  0  0  0  0  0  0  0  0  0
    4.5139   -4.5709    4.1857 O   0  0  0  0  0  0  0  0  0  0  0  0
    4.1921   -5.2558    5.3886 C   0  0  0  0  0  0  0  0  0  0  0  0
    3.0084   -2.7295    3.9989 C   0  0  2  0  0  0  0  0  0  0  0  0
    1.4804   -2.4457    4.1333 C   0  0  1  0  0  0  0  0  0  0  0  0
    0.7251   -3.4546    5.0171 C   0  0  0  0  0  0  0  0  0  0  0  0
    1.3083   -1.0292    4.7092 C   0  0  0  0  0  0  0  0  0  0  0  0
    1.9078    0.0319    3.7811 C   0  0  1  0  0  0  0  0  0  0  0  0
    2.5055    1.0458    4.5567 O   0  0  0  0  0  0  0  0  0  0  0  0
    2.8349   -0.5257    2.6918 C   0  0  1  0  0  0  0  0  0  0  0  0
    2.2770   -0.2878    1.3025 C   0  0  0  0  0  0  0  0  0  0  0  0
    3.3960    0.4541    1.8048 O   0  0  0  0  0  0  0  0  0  0  0  0
    3.8102   -1.6670    3.1560 C   0  0  1  0  0  0  0  0  0  0  0  0
    4.8208   -0.9979    4.1438 C   0  0  0  0  0  0  0  0  0  0  0  0
    4.5822   -2.5558    2.0430 C   0  0  2  0  0  0  0  0  0  0  0  0
    2.0417   -3.4565   -1.4071 O   0  0  0  0  0  0  0  0  0  0  0  0
    2.7685   -3.1439   -2.4885 C   0  0  0  0  0  0  0  0  0  0  0  0
    2.3593   -2.6530   -3.5499 O   0  0  0  0  0  0  0  0  0  0  0  0
    4.2105   -3.5432   -2.2301 C   0  0  1  0  0  0  0  0  0  0  0  0
    5.2098   -2.7154   -3.0160 C   0  0  0  0  0  0  0  0  0  0  0  0
    4.3142   -6.5691    2.7416 H   0  0  0  0  0  0  0  0  0  0  0  0
    5.4061   -6.9726    1.3125 H   0  0  0  0  0  0  0  0  0  0  0  0
    5.2437   -5.4832   -0.5797 H   0  0  0  0  0  0  0  0  0  0  0  0
    7.2667   -5.2721    0.6782 H   0  0  0  0  0  0  0  0  0  0  0  0
    7.3616   -4.1769   -0.6486 H   0  0  0  0  0  0  0  0  0  0  0  0
    8.7554   -2.2297   -0.4496 H   0  0  0  0  0  0  0  0  0  0  0  0
    6.3648   -0.6692    2.1278 H   0  0  0  0  0  0  0  0  0  0  0  0
    6.2403    0.0385    0.4529 H   0  0  0  0  0  0  0  0  0  0  0  0
    2.8573   -5.1178   -0.5979 H   0  0  0  0  0  0  0  0  0  0  0  0
    1.9728   -2.9034    1.2156 H   0  0  0  0  0  0  0  0  0  0  0  0
    1.8293   -4.6208    1.3548 H   0  0  0  0  0  0  0  0  0  0  0  0
    2.5822   -4.8477    3.5070 H   0  0  0  0  0  0  0  0  0  0  0  0
    5.1142   -5.5479    5.8893 H   0  0  0  0  0  0  0  0  0  0  0  0
    3.6181   -6.1610    5.1883 H   0  0  0  0  0  0  0  0  0  0  0  0
    3.6249   -4.6353    6.0823 H   0  0  0  0  0  0  0  0  0  0  0  0
    3.3640   -2.7024    5.0308 H   0  0  0  0  0  0  0  0  0  0  0  0
    1.0000   -2.4620    3.1548 H   0  0  0  0  0  0  0  0  0  0  0  0
    1.1461   -3.5201    6.0203 H   0  0  0  0  0  0  0  0  0  0  0  0
    0.7174   -4.4510    4.5820 H   0  0  0  0  0  0  0  0  0  0  0  0
   -0.3164   -3.1564    5.1185 H   0  0  0  0  0  0  0  0  0  0  0  0
    0.2598   -0.7975    4.9124 H   0  0  0  0  0  0  0  0  0  0  0  0
    1.8172   -0.9842    5.6722 H   0  0  0  0  0  0  0  0  0  0  0  0
    1.0793    0.5003    3.2624 H   0  0  0  0  0  0  0  0  0  0  0  0
    2.7044    1.7635    3.9715 H   0  0  0  0  0  0  0  0  0  0  0  0
    2.4881   -0.9347    0.4749 H   0  0  0  0  0  0  0  0  0  0  0  0
    1.3603    0.2936    1.1922 H   0  0  0  0  0  0  0  0  0  0  0  0
    5.1980   -0.0472    3.7707 H   0  0  0  0  0  0  0  0  0  0  0  0
    5.6697   -1.6386    4.3874 H   0  0  0  0  0  0  0  0  0  0  0  0
    4.3570   -0.7502    5.1001 H   0  0  0  0  0  0  0  0  0  0  0  0
    5.4407   -2.8614    2.6342 H   0  0  0  0  0  0  0  0  0  0  0  0
    4.3073   -4.5608   -2.5883 H   0  0  0  0  0  0  0  0  0  0  0  0
    4.9736   -2.8372   -4.0746 H   0  0  0  0  0  0  0  0  0  0  0  0
    6.2303   -3.0562   -2.8352 H   0  0  0  0  0  0  0  0  0  0  0  0
    5.1258   -1.6571   -2.7585 H   0  0  0  0  0  0  0  0  0  0  0  0
  1  2  2  0
  1 36  1  0
  1 37  1  0
  2 15  1  0
  2  3  1  0
  3 12  1  0
  3  4  1  0
  3 38  1  6
  4  5  1  0
  4 39  1  0
  4 40  1  0
  5  6  1  0
  6 10  1  0
  6  7  1  6
  6  8  1  0
  7 41  1  0
  8  9  1  0
  8 42  1  0
  8 43  1  0
  9 30  1  0
  9 10  1  6
  9 11  1  0
 12 11  1  6
 12 34  1  0
 12 13  1  0
 13 14  1  0
 13 31  1  0
 13 44  1  6
 15 14  1  6
 14 45  1  0
 14 46  1  0
 15 30  1  0
 15 16  1  0
 16 17  1  0
 16 19  1  0
 16 47  1  6
 17 18  1  0
 18 48  1  0
 18 49  1  0
 18 50  1  0
 19 28  1  0
 19 20  1  0
 19 51  1  1
 20 21  1  0
 20 22  1  0
 20 52  1  6
 21 53  1  0
 21 54  1  0
 21 55  1  0
 22 23  1  0
 22 56  1  0
 22 57  1  0
 23 24  1  0
 23 25  1  0
 23 58  1  6
 24 59  1  0
 25 27  1  6
 25 26  1  0
 25 28  1  0
 26 27  1  0
 26 60  1  0
 26 61  1  0
 28 29  1  1
 28 30  1  0
 29 62  1  0
 29 63  1  0
 29 64  1  0
 30 65  1  1
 31 32  1  0
 32 33  2  0
 32 34  1  0
 34 35  1  0
 34 66  1  6
 35 67  1  0
 35 68  1  0
 35 69  1  0
M  END
>  <i_m_ct_stereo_status>  (57) 
1

>  <s_m_source_file>  (57) 
/var/tmp/pbs.5076255.sched01/tmpmjg_sug8/0d5zvyqle.sdf

>  <i_m_source_file_index>  (57) 
26

>  <i_lp_mmshare_version>  (57) 
48012

>  <i_f3d_flags>  (57) 
0

>  <s_epik_input>  (57) 
W0NIM11bQ0BASF0xQyg9TylPW0NASF0oW0NIMl0yKVtDQEBdMShPMylbQ0hdKFtDSDJdT1tDQF0oTzQpKFtPSF0pW0NIMl01KUMoPVtDSDJdKVtDQF0yKFtDQEhdNkMzNDUpW0NAQEhdKE9bQ0gzXSlbQ0BIXTdbQ0BdNihbQ0gzXSlbQ0BAXTgoW0NIMl1POClbQ0BIXShbT0hdKVtDSDJdW0NAQEhdN1tDSDNd

>  <s_epik_cmdline>  (57) 
J2VwaWtfcHl0aG9uJywgJy1waHQnLCAnMi4wJywgJy1waCcsICc3LjAnLCAnLXRuJywgJzgnLCAnLW1hJywgJzIwMCcsICctaW1hZScsICc8aW5maWxlLm1hZT4nLCAnLW9tYWUnLCAnPG91dGZpbGUubWFlPic=

>  <r_lp_tautomer_probability>  (57) 
1

>  <r_epik_Ionization_Penalty>  (57) 
8.34352e-05

>  <r_epik_Ionization_Penalty_Charging>  (57) 
0

>  <r_epik_Ionization_Penalty_Neutral>  (57) 
8.34352e-05

>  <r_epik_State_Penalty>  (57) 
-0

>  <r_epik_Charging_Adjusted_Penalty>  (57) 
0

>  <i_epik_Tot_Q>  (57) 
0

>  <i_epik_Tot_abs_Q>  (57) 
0

>  <s_epik_Chemistry_Notes>  (57) 
This compound has an ester and may undergo hydrolysis at high or low pH.

>  <s_lp_Force_Field>  (57) 
OPLS3e

>  <r_lp_Energy>  (57) 
147.608

>  <b_lp_Chiralities_Consistent>  (57) 
1

>  <s_lp_Variant>  (57) 
21:0-1

>  <s_i_glide_gridfile>  (57) 
pfpi4k_grid

>  <i_i_glide_lignum>  (57) 
26

>  <i_i_glide_rotatable_bonds>  (57) 
3

>  <r_i_docking_score>  (57) 
-2.57683

>  <r_i_glide_ligand_efficiency>  (57) 
-0.0736237

>  <r_i_glide_ligand_efficiency_sa>  (57) 
-0.240828

>  <r_i_glide_ligand_efficiency_ln>  (57) 
-0.565672

>  <r_i_glide_gscore>  (57) 
-2.57683

>  <r_i_glide_lipo>  (57) 
-0.579569

>  <r_i_glide_hbond>  (57) 
0

>  <r_i_glide_metal>  (57) 
-0

>  <r_i_glide_rewards>  (57) 
-0.162591

>  <r_i_glide_evdw>  (57) 
-26.436

>  <r_i_glide_ecoul>  (57) 
-3.39121

>  <r_i_glide_erotb>  (57) 
0

>  <r_i_glide_esite>  (57) 
-0.00418858

>  <r_i_glide_emodel>  (57) 
-33.3155

>  <r_i_glide_energy>  (57) 
-29.8272

>  <r_i_glide_einternal>  (57) 
0.992596

>  <r_i_glide_intrahb_reward>  (57) 
-0

>  <i_i_glide_confnum>  (57) 
1

>  <i_i_glide_posenum>  (57) 
17

>  <r_i_glide_eff_state_penalty>  (57) 
0

>  <ligand_id>  (57) 
21

>  <original_smiles>  (57) 
C=C1C2COC3(O)CC4(O3)OC23C(CC12C(OC)C1C(C)CC(O)C5(CO5)C1(C)C42)OC(=O)C3C

>  <smiles>  (57) 
[H]OC12OC([H])([H])C3([H])C(=C([H])[H])C45C([H])([H])C6([H])OC(=O)C([H])(C([H])([H])[H])C63OC(O1)(C2([H])[H])C4([H])C1(C([H])([H])[H])C([H])(C5([H])OC([H])([H])[H])C([H])(C([H])([H])[H])C([H])([H])C([H])(O[H])C12OC2([H])[H]

$$$$
21:0:1
     RDKit          3D

 69 76  0  0  1  0  0  0  0  0999 V2000
    4.9828   -6.3728    1.6783 C   0  0  0  0  0  0  0  0  0  0  0  0
    4.7704   -5.0997    1.2696 C   0  0  0  0  0  0  0  0  0  0  0  0
    5.3511   -4.5751   -0.0209 C   0  0  2  0  0  0  0  0  0  0  0  0
    6.9066   -4.2730    0.2396 C   0  0  0  0  0  0  0  0  0  0  0  0
    7.2274   -3.2721    1.2524 O   0  0  0  0  0  0  0  0  0  0  0  0
    7.1351   -1.9389    0.7091 C   0  0  2  0  0  0  0  0  0  0  0  0
    8.3775   -1.4615    0.1923 O   0  0  0  0  0  0  0  0  0  0  0  0
    6.1185   -0.8827    1.2214 C   0  0  0  0  0  0  0  0  0  0  0  0
    5.1226   -1.9292    0.7913 C   0  0  2  0  0  0  0  0  0  0  0  0
    6.1881   -2.0591   -0.2424 O   0  0  0  0  0  0  0  0  0  0  0  0
    4.1298   -2.1497   -0.1733 O   0  0  0  0  0  0  0  0  0  0  0  0
    4.2887   -3.5137   -0.6865 C   0  0  2  0  0  0  0  0  0  0  0  0
    2.9015   -4.1065   -0.4188 C   0  0  1  0  0  0  0  0  0  0  0  0
    2.5688   -4.0246    1.0765 C   0  0  0  0  0  0  0  0  0  0  0  0
    3.8485   -4.0864    1.9552 C   0  0  1  0  0  0  0  0  0  0  0  0
    3.4766   -4.4188    3.4147 C   0  0  1  0  0  0  0  0  0  0  0  0
    4.6377   -4.8535    4.1254 O   0  0  0  0  0  0  0  0  0  0  0  0
    4.3634   -5.6320    5.2822 C   0  0  0  0  0  0  0  0  0  0  0  0
    3.0365   -3.0937    4.0622 C   0  0  2  0  0  0  0  0  0  0  0  0
    1.4917   -2.8931    4.2231 C   0  0  1  0  0  0  0  0  0  0  0  0
    0.8100   -3.9955    5.0545 C   0  0  0  0  0  0  0  0  0  0  0  0
    1.2521   -1.5322    4.8815 C   0  0  0  0  0  0  0  0  0  0  0  0
    1.7874   -0.3864    4.0200 C   0  0  1  0  0  0  0  0  0  0  0  0
    2.3575    0.6015    4.8481 O   0  0  0  0  0  0  0  0  0  0  0  0
    2.7341   -0.8449    2.8817 C   0  0  1  0  0  0  0  0  0  0  0  0
    2.1166   -0.5251    1.5305 C   0  0  0  0  0  0  0  0  0  0  0  0
    3.2174    0.2255    2.0499 O   0  0  0  0  0  0  0  0  0  0  0  0
    3.7619   -1.9326    3.2825 C   0  0  1  0  0  0  0  0  0  0  0  0
    4.7556   -1.2818    4.2949 C   0  0  0  0  0  0  0  0  0  0  0  0
    4.5755   -2.7230    2.1041 C   0  0  2  0  0  0  0  0  0  0  0  0
    2.0678   -3.4574   -1.3633 O   0  0  0  0  0  0  0  0  0  0  0  0
    2.7539   -3.0948   -2.4451 C   0  0  0  0  0  0  0  0  0  0  0  0
    2.3383   -2.6362   -3.5107 O   0  0  0  0  0  0  0  0  0  0  0  0
    4.2152   -3.4551   -2.2247 C   0  0  1  0  0  0  0  0  0  0  0  0
    5.1763   -2.5352   -2.9498 C   0  0  0  0  0  0  0  0  0  0  0  0
    4.5248   -6.7689    2.5647 H   0  0  0  0  0  0  0  0  0  0  0  0
    5.6189   -7.0272    1.1049 H   0  0  0  0  0  0  0  0  0  0  0  0
    5.3544   -5.4389   -0.6866 H   0  0  0  0  0  0  0  0  0  0  0  0
    7.3814   -5.1994    0.5685 H   0  0  0  0  0  0  0  0  0  0  0  0
    7.4190   -4.0050   -0.6804 H   0  0  0  0  0  0  0  0  0  0  0  0
    8.8901   -1.1752    0.8982 H   0  0  0  0  0  0  0  0  0  0  0  0
    6.2624   -0.7543    2.2860 H   0  0  0  0  0  0  0  0  0  0  0  0
    6.0894    0.0521    0.6490 H   0  0  0  0  0  0  0  0  0  0  0  0
    2.9446   -5.1617   -0.6788 H   0  0  0  0  0  0  0  0  0  0  0  0
    1.9811   -3.1439    1.2977 H   0  0  0  0  0  0  0  0  0  0  0  0
    1.9234   -4.8751    1.3146 H   0  0  0  0  0  0  0  0  0  0  0  0
    2.7131   -5.1924    3.4475 H   0  0  0  0  0  0  0  0  0  0  0  0
    5.3051   -5.9036    5.7568 H   0  0  0  0  0  0  0  0  0  0  0  0
    3.8387   -6.5519    5.0243 H   0  0  0  0  0  0  0  0  0  0  0  0
    3.7688   -5.0899    6.0167 H   0  0  0  0  0  0  0  0  0  0  0  0
    3.3996   -3.1059    5.0911 H   0  0  0  0  0  0  0  0  0  0  0  0
    1.0025   -2.8823    3.2518 H   0  0  0  0  0  0  0  0  0  0  0  0
    1.2476   -4.0947    6.0470 H   0  0  0  0  0  0  0  0  0  0  0  0
    0.8487   -4.9624    4.5585 H   0  0  0  0  0  0  0  0  0  0  0  0
   -0.2438   -3.7565    5.1839 H   0  0  0  0  0  0  0  0  0  0  0  0
    0.1952   -1.3617    5.1126 H   0  0  0  0  0  0  0  0  0  0  0  0
    1.7742   -1.5137    5.8395 H   0  0  0  0  0  0  0  0  0  0  0  0
    0.9398    0.0690    3.5293 H   0  0  0  0  0  0  0  0  0  0  0  0
    2.5703    1.3286    4.2988 H   0  0  0  0  0  0  0  0  0  0  0  0
    2.3018   -1.0963    0.6572 H   0  0  0  0  0  0  0  0  0  0  0  0
    1.1805    0.0221    1.4838 H   0  0  0  0  0  0  0  0  0  0  0  0
    5.0766   -0.2907    3.9754 H   0  0  0  0  0  0  0  0  0  0  0  0
    5.6309   -1.8888    4.5009 H   0  0  0  0  0  0  0  0  0  0  0  0
    4.2851   -1.1108    5.2676 H   0  0  0  0  0  0  0  0  0  0  0  0
    5.4498   -3.0136    2.6736 H   0  0  0  0  0  0  0  0  0  0  0  0
    4.3340   -4.4445   -2.6391 H   0  0  0  0  0  0  0  0  0  0  0  0
    4.9871   -2.5901   -4.0256 H   0  0  0  0  0  0  0  0  0  0  0  0
    6.2110   -2.8353   -2.7673 H   0  0  0  0  0  0  0  0  0  0  0  0
    5.0280   -1.4978   -2.6360 H   0  0  0  0  0  0  0  0  0  0  0  0
  1  2  2  0
  1 36  1  0
  1 37  1  0
  2 15  1  0
  2  3  1  0
  3 12  1  0
  3  4  1  0
  3 38  1  6
  4  5  1  0
  4 39  1  0
  4 40  1  0
  5  6  1  0
  6 10  1  0
  6  7  1  6
  6  8  1  0
  7 41  1  0
  8  9  1  0
  8 42  1  0
  8 43  1  0
  9 30  1  0
  9 10  1  6
  9 11  1  0
 12 11  1  1
 12 34  1  0
 12 13  1  0
 13 14  1  0
 13 31  1  0
 13 44  1  6
 15 14  1  6
 14 45  1  0
 14 46  1  0
 15 30  1  0
 15 16  1  0
 16 17  1  0
 16 19  1  0
 16 47  1  6
 17 18  1  0
 18 48  1  0
 18 49  1  0
 18 50  1  0
 19 28  1  0
 19 20  1  0
 19 51  1  1
 20 21  1  0
 20 22  1  0
 20 52  1  6
 21 53  1  0
 21 54  1  0
 21 55  1  0
 22 23  1  0
 22 56  1  0
 22 57  1  0
 23 24  1  0
 23 25  1  0
 23 58  1  6
 24 59  1  0
 25 27  1  1
 25 26  1  0
 25 28  1  0
 26 27  1  0
 26 60  1  0
 26 61  1  0
 28 29  1  1
 28 30  1  0
 29 62  1  0
 29 63  1  0
 29 64  1  0
 30 65  1  1
 31 32  1  0
 32 33  2  0
 32 34  1  0
 34 35  1  0
 34 66  1  6
 35 67  1  0
 35 68  1  0
 35 69  1  0
M  END
>  <i_m_ct_stereo_status>  (58) 
1

>  <s_m_source_file>  (58) 
/var/tmp/pbs.5076255.sched01/tmpmjg_sug8/0d5zvyqle.sdf

>  <i_m_source_file_index>  (58) 
26

>  <i_lp_mmshare_version>  (58) 
48012

>  <i_f3d_flags>  (58) 
0

>  <s_epik_input>  (58) 
W0NIM11bQ0BASF0xQyg9TylPW0NASF0oW0NIMl0yKVtDQEBdMShPMylbQ0hdKFtDSDJdT1tDQF0oTzQpKFtPSF0pW0NIMl01KUMoPVtDSDJdKVtDQF0yKFtDQEhdNkMzNDUpW0NAQEhdKE9bQ0gzXSlbQ0BIXTdbQ0BdNihbQ0gzXSlbQ0BAXTgoW0NIMl1POClbQ0BIXShbT0hdKVtDSDJdW0NAQEhdN1tDSDNd

>  <s_epik_cmdline>  (58) 
J2VwaWtfcHl0aG9uJywgJy1waHQnLCAnMi4wJywgJy1waCcsICc3LjAnLCAnLXRuJywgJzgnLCAnLW1hJywgJzIwMCcsICctaW1hZScsICc8aW5maWxlLm1hZT4nLCAnLW9tYWUnLCAnPG91dGZpbGUubWFlPic=

>  <r_lp_tautomer_probability>  (58) 
1

>  <r_epik_Ionization_Penalty>  (58) 
8.34352e-05

>  <r_epik_Ionization_Penalty_Charging>  (58) 
0

>  <r_epik_Ionization_Penalty_Neutral>  (58) 
8.34352e-05

>  <r_epik_State_Penalty>  (58) 
-0

>  <r_epik_Charging_Adjusted_Penalty>  (58) 
0

>  <i_epik_Tot_Q>  (58) 
0

>  <i_epik_Tot_abs_Q>  (58) 
0

>  <s_epik_Chemistry_Notes>  (58) 
This compound has an ester and may undergo hydrolysis at high or low pH.

>  <s_lp_Force_Field>  (58) 
OPLS3e

>  <r_lp_Energy>  (58) 
147.608

>  <b_lp_Chiralities_Consistent>  (58) 
1

>  <s_lp_Variant>  (58) 
21:0-1

>  <s_i_glide_gridfile>  (58) 
pfpi4k_grid

>  <i_i_glide_lignum>  (58) 
26

>  <i_i_glide_rotatable_bonds>  (58) 
3

>  <r_i_docking_score>  (58) 
-2.53129

>  <r_i_glide_ligand_efficiency>  (58) 
-0.0723226

>  <r_i_glide_ligand_efficiency_sa>  (58) 
-0.236572

>  <r_i_glide_ligand_efficiency_ln>  (58) 
-0.555675

>  <r_i_glide_gscore>  (58) 
-2.53129

>  <r_i_glide_lipo>  (58) 
-0.588269

>  <r_i_glide_hbond>  (58) 
0

>  <r_i_glide_metal>  (58) 
-0

>  <r_i_glide_rewards>  (58) 
-0.132556

>  <r_i_glide_evdw>  (58) 
-25.7912

>  <r_i_glide_ecoul>  (58) 
-3.43673

>  <r_i_glide_erotb>  (58) 
0

>  <r_i_glide_esite>  (58) 
-0.00539994

>  <r_i_glide_emodel>  (58) 
-32.8958

>  <r_i_glide_energy>  (58) 
-29.2279

>  <r_i_glide_einternal>  (58) 
0.712753

>  <r_i_glide_intrahb_reward>  (58) 
-0

>  <i_i_glide_confnum>  (58) 
1

>  <i_i_glide_posenum>  (58) 
1

>  <r_i_glide_eff_state_penalty>  (58) 
0

>  <ligand_id>  (58) 
21

>  <original_smiles>  (58) 
C=C1C2COC3(O)CC4(O3)OC23C(CC12C(OC)C1C(C)CC(O)C5(CO5)C1(C)C42)OC(=O)C3C

>  <smiles>  (58) 
[H]OC12OC([H])([H])C3([H])C(=C([H])[H])C45C([H])([H])C6([H])OC(=O)C([H])(C([H])([H])[H])C63OC(O1)(C2([H])[H])C4([H])C1(C([H])([H])[H])C([H])(C5([H])OC([H])([H])[H])C([H])(C([H])([H])[H])C([H])([H])C([H])(O[H])C12OC2([H])[H]

$$$$
21:0:2
     RDKit          3D

 69 76  0  0  1  0  0  0  0  0999 V2000
    4.9574   -6.3765    1.6942 C   0  0  0  0  0  0  0  0  0  0  0  0
    4.7450   -5.0995    1.2914 C   0  0  0  0  0  0  0  0  0  0  0  0
    5.3341   -4.5686   -0.0054 C   0  0  2  0  0  0  0  0  0  0  0  0
    6.8857   -4.2762    0.2629 C   0  0  0  0  0  0  0  0  0  0  0  0
    7.2048   -3.2724    1.2736 O   0  0  0  0  0  0  0  0  0  0  0  0
    7.1162   -1.9401    0.7525 C   0  0  2  0  0  0  0  0  0  0  0  0
    8.3306   -1.4713    0.2326 O   0  0  0  0  0  0  0  0  0  0  0  0
    6.1007   -0.8686    1.2786 C   0  0  0  0  0  0  0  0  0  0  0  0
    5.0888   -1.9236    0.8267 C   0  0  2  0  0  0  0  0  0  0  0  0
    6.1556   -2.0457   -0.1936 O   0  0  0  0  0  0  0  0  0  0  0  0
    4.1199   -2.1531   -0.1388 O   0  0  0  0  0  0  0  0  0  0  0  0
    4.2652   -3.5185   -0.6737 C   0  0  2  0  0  0  0  0  0  0  0  0
    2.8783   -4.1099   -0.4176 C   0  0  1  0  0  0  0  0  0  0  0  0
    2.5412   -4.0293    1.0774 C   0  0  0  0  0  0  0  0  0  0  0  0
    3.8231   -4.0928    1.9706 C   0  0  1  0  0  0  0  0  0  0  0  0
    3.4331   -4.4294    3.4312 C   0  0  1  0  0  0  0  0  0  0  0  0
    4.5884   -4.8644    4.1437 O   0  0  0  0  0  0  0  0  0  0  0  0
    4.3079   -5.6457    5.3001 C   0  0  0  0  0  0  0  0  0  0  0  0
    2.9839   -3.1030    4.0751 C   0  0  2  0  0  0  0  0  0  0  0  0
    1.4446   -2.9137    4.2271 C   0  0  1  0  0  0  0  0  0  0  0  0
    0.7466   -4.0148    5.0510 C   0  0  0  0  0  0  0  0  0  0  0  0
    1.1966   -1.5454    4.8921 C   0  0  0  0  0  0  0  0  0  0  0  0
    1.7351   -0.3868    4.0460 C   0  0  1  0  0  0  0  0  0  0  0  0
    2.2816    0.5757    4.9141 O   0  0  0  0  0  0  0  0  0  0  0  0
    2.6906   -0.8252    2.9118 C   0  0  1  0  0  0  0  0  0  0  0  0
    2.1356   -0.5615    1.5332 C   0  0  0  0  0  0  0  0  0  0  0  0
    3.1914    0.2307    2.0871 O   0  0  0  0  0  0  0  0  0  0  0  0
    3.7220   -1.9425    3.3069 C   0  0  1  0  0  0  0  0  0  0  0  0
    4.7039   -1.2877    4.3280 C   0  0  0  0  0  0  0  0  0  0  0  0
    4.5400   -2.7162    2.1382 C   0  0  2  0  0  0  0  0  0  0  0  0
    2.0462   -3.4653   -1.3461 O   0  0  0  0  0  0  0  0  0  0  0  0
    2.7478   -3.1006   -2.4334 C   0  0  0  0  0  0  0  0  0  0  0  0
    2.2975   -2.6123   -3.4882 O   0  0  0  0  0  0  0  0  0  0  0  0
    4.2098   -3.4575   -2.2064 C   0  0  1  0  0  0  0  0  0  0  0  0
    5.1734   -2.5298   -2.9220 C   0  0  0  0  0  0  0  0  0  0  0  0
    4.4905   -6.7770    2.5782 H   0  0  0  0  0  0  0  0  0  0  0  0
    5.5976   -7.0290    1.1264 H   0  0  0  0  0  0  0  0  0  0  0  0
    5.3500   -5.4377   -0.6733 H   0  0  0  0  0  0  0  0  0  0  0  0
    7.3645   -5.1996    0.5983 H   0  0  0  0  0  0  0  0  0  0  0  0
    7.3930   -4.0168   -0.6627 H   0  0  0  0  0  0  0  0  0  0  0  0
    8.8961   -1.2328    0.9581 H   0  0  0  0  0  0  0  0  0  0  0  0
    6.2353   -0.7336    2.3361 H   0  0  0  0  0  0  0  0  0  0  0  0
    6.0728    0.0620    0.7106 H   0  0  0  0  0  0  0  0  0  0  0  0
    2.9132   -5.1637   -0.6796 H   0  0  0  0  0  0  0  0  0  0  0  0
    1.9474   -3.1506    1.2998 H   0  0  0  0  0  0  0  0  0  0  0  0
    1.8981   -4.8847    1.3150 H   0  0  0  0  0  0  0  0  0  0  0  0
    2.6723   -5.2053    3.4516 H   0  0  0  0  0  0  0  0  0  0  0  0
    5.2474   -5.9172    5.7818 H   0  0  0  0  0  0  0  0  0  0  0  0
    3.7905   -6.5678    5.0367 H   0  0  0  0  0  0  0  0  0  0  0  0
    3.7089   -5.1043    6.0308 H   0  0  0  0  0  0  0  0  0  0  0  0
    3.3408   -3.1225    5.1048 H   0  0  0  0  0  0  0  0  0  0  0  0
    0.9628   -2.8892    3.2538 H   0  0  0  0  0  0  0  0  0  0  0  0
    1.1766   -4.1149    6.0440 H   0  0  0  0  0  0  0  0  0  0  0  0
    0.7925   -4.9784    4.5519 H   0  0  0  0  0  0  0  0  0  0  0  0
   -0.3064   -3.7749    5.1695 H   0  0  0  0  0  0  0  0  0  0  0  0
    0.1419   -1.3859    5.1064 H   0  0  0  0  0  0  0  0  0  0  0  0
    1.6997   -1.5431    5.8606 H   0  0  0  0  0  0  0  0  0  0  0  0
    0.8878    0.0785    3.5586 H   0  0  0  0  0  0  0  0  0  0  0  0
    3.1535    0.3145    5.1657 H   0  0  0  0  0  0  0  0  0  0  0  0
    2.3915   -1.1442    0.6762 H   0  0  0  0  0  0  0  0  0  0  0  0
    1.1708   -0.0353    1.4439 H   0  0  0  0  0  0  0  0  0  0  0  0
    5.0322   -0.2970    4.0152 H   0  0  0  0  0  0  0  0  0  0  0  0
    5.5868   -1.8979    4.5297 H   0  0  0  0  0  0  0  0  0  0  0  0
    4.2386   -1.1358    5.3065 H   0  0  0  0  0  0  0  0  0  0  0  0
    5.4214   -3.0098    2.6984 H   0  0  0  0  0  0  0  0  0  0  0  0
    4.3344   -4.4512   -2.6253 H   0  0  0  0  0  0  0  0  0  0  0  0
    5.0039   -2.5722   -4.0039 H   0  0  0  0  0  0  0  0  0  0  0  0
    6.2052   -2.8226   -2.7367 H   0  0  0  0  0  0  0  0  0  0  0  0
    5.0244   -1.4887   -2.6047 H   0  0  0  0  0  0  0  0  0  0  0  0
  1  2  2  0
  1 36  1  0
  1 37  1  0
  2 15  1  0
  2  3  1  0
  3 12  1  0
  3  4  1  0
  3 38  1  6
  4  5  1  0
  4 39  1  0
  4 40  1  0
  5  6  1  0
  6 10  1  0
  6  7  1  6
  6  8  1  0
  7 41  1  0
  8  9  1  0
  8 42  1  0
  8 43  1  0
  9 30  1  0
  9 10  1  6
  9 11  1  0
 12 11  1  1
 12 34  1  0
 12 13  1  0
 13 14  1  0
 13 31  1  0
 13 44  1  6
 15 14  1  6
 14 45  1  0
 14 46  1  0
 15 30  1  0
 15 16  1  0
 16 17  1  0
 16 19  1  0
 16 47  1  6
 17 18  1  0
 18 48  1  0
 18 49  1  0
 18 50  1  0
 19 28  1  0
 19 20  1  0
 19 51  1  1
 20 21  1  0
 20 22  1  0
 20 52  1  6
 21 53  1  0
 21 54  1  0
 21 55  1  0
 22 23  1  0
 22 56  1  0
 22 57  1  0
 23 24  1  0
 23 25  1  0
 23 58  1  6
 24 59  1  0
 25 27  1  1
 25 26  1  0
 25 28  1  0
 26 27  1  0
 26 60  1  0
 26 61  1  0
 28 29  1  1
 28 30  1  0
 29 62  1  0
 29 63  1  0
 29 64  1  0
 30 65  1  1
 31 32  1  0
 32 33  2  0
 32 34  1  0
 34 35  1  0
 34 66  1  6
 35 67  1  0
 35 68  1  0
 35 69  1  0
M  END
>  <i_m_ct_stereo_status>  (59) 
1

>  <s_m_source_file>  (59) 
/var/tmp/pbs.5076255.sched01/tmpmjg_sug8/0d5zvyqle.sdf

>  <i_m_source_file_index>  (59) 
26

>  <i_lp_mmshare_version>  (59) 
48012

>  <i_f3d_flags>  (59) 
0

>  <s_epik_input>  (59) 
W0NIM11bQ0BASF0xQyg9TylPW0NASF0oW0NIMl0yKVtDQEBdMShPMylbQ0hdKFtDSDJdT1tDQF0oTzQpKFtPSF0pW0NIMl01KUMoPVtDSDJdKVtDQF0yKFtDQEhdNkMzNDUpW0NAQEhdKE9bQ0gzXSlbQ0BIXTdbQ0BdNihbQ0gzXSlbQ0BAXTgoW0NIMl1POClbQ0BIXShbT0hdKVtDSDJdW0NAQEhdN1tDSDNd

>  <s_epik_cmdline>  (59) 
J2VwaWtfcHl0aG9uJywgJy1waHQnLCAnMi4wJywgJy1waCcsICc3LjAnLCAnLXRuJywgJzgnLCAnLW1hJywgJzIwMCcsICctaW1hZScsICc8aW5maWxlLm1hZT4nLCAnLW9tYWUnLCAnPG91dGZpbGUubWFlPic=

>  <r_lp_tautomer_probability>  (59) 
1

>  <r_epik_Ionization_Penalty>  (59) 
8.34352e-05

>  <r_epik_Ionization_Penalty_Charging>  (59) 
0

>  <r_epik_Ionization_Penalty_Neutral>  (59) 
8.34352e-05

>  <r_epik_State_Penalty>  (59) 
-0

>  <r_epik_Charging_Adjusted_Penalty>  (59) 
0

>  <i_epik_Tot_Q>  (59) 
0

>  <i_epik_Tot_abs_Q>  (59) 
0

>  <s_epik_Chemistry_Notes>  (59) 
This compound has an ester and may undergo hydrolysis at high or low pH.

>  <s_lp_Force_Field>  (59) 
OPLS3e

>  <r_lp_Energy>  (59) 
147.608

>  <b_lp_Chiralities_Consistent>  (59) 
1

>  <s_lp_Variant>  (59) 
21:0-1

>  <s_i_glide_gridfile>  (59) 
pfpi4k_grid

>  <i_i_glide_lignum>  (59) 
26

>  <i_i_glide_rotatable_bonds>  (59) 
3

>  <r_i_docking_score>  (59) 
-2.42656

>  <r_i_glide_ligand_efficiency>  (59) 
-0.0693304

>  <r_i_glide_ligand_efficiency_sa>  (59) 
-0.226784

>  <r_i_glide_ligand_efficiency_ln>  (59) 
-0.532684

>  <r_i_glide_gscore>  (59) 
-2.42656

>  <r_i_glide_lipo>  (59) 
-0.584882

>  <r_i_glide_hbond>  (59) 
0

>  <r_i_glide_metal>  (59) 
-0

>  <r_i_glide_rewards>  (59) 
-0.130144

>  <r_i_glide_evdw>  (59) 
-25.8532

>  <r_i_glide_ecoul>  (59) 
-2.76024

>  <r_i_glide_erotb>  (59) 
0

>  <r_i_glide_esite>  (59) 
-0.00484409

>  <r_i_glide_emodel>  (59) 
-32.1492

>  <r_i_glide_energy>  (59) 
-28.6134

>  <r_i_glide_einternal>  (59) 
0.378138

>  <r_i_glide_intrahb_reward>  (59) 
-0

>  <i_i_glide_confnum>  (59) 
2

>  <i_i_glide_posenum>  (59) 
30

>  <r_i_glide_eff_state_penalty>  (59) 
0

>  <ligand_id>  (59) 
21

>  <original_smiles>  (59) 
C=C1C2COC3(O)CC4(O3)OC23C(CC12C(OC)C1C(C)CC(O)C5(CO5)C1(C)C42)OC(=O)C3C

>  <smiles>  (59) 
[H]OC12OC([H])([H])C3([H])C(=C([H])[H])C45C([H])([H])C6([H])OC(=O)C([H])(C([H])([H])[H])C63OC(O1)(C2([H])[H])C4([H])C1(C([H])([H])[H])C([H])(C5([H])OC([H])([H])[H])C([H])(C([H])([H])[H])C([H])([H])C([H])(O[H])C12OC2([H])[H]

$$$$
23:0:0
     RDKit          3D

 72 79  0  0  1  0  0  0  0  0999 V2000
    6.0501   -6.6351    6.0752 C   0  0  0  0  0  0  0  0  0  0  0  0
    4.6453   -6.8512    5.9849 O   0  0  0  0  0  0  0  0  0  0  0  0
    4.0600   -6.4704    4.7473 C   0  0  2  0  0  0  0  0  0  0  0  0
    2.5118   -6.1154    4.9055 C   0  0  2  0  0  0  0  0  0  0  0  0
    1.3792   -6.9129    5.7315 C   0  0  1  0  0  0  0  0  0  0  0  0
    0.1863   -7.3836    4.8618 C   0  0  0  0  0  0  0  0  0  0  0  0
    0.6473   -8.2091    3.6252 C   0  0  2  0  0  0  0  0  0  0  0  0
   -0.4746   -8.0193    2.5620 C   0  0  0  0  0  0  0  0  0  0  0  0
    0.5894   -9.7229    4.0936 C   0  0  1  0  0  0  0  0  0  0  0  0
    1.3954  -10.5961    3.3290 O   0  0  0  0  0  0  0  0  0  0  0  0
    0.6361  -10.0945    5.6265 C   0  0  0  0  0  0  0  0  0  0  0  0
    1.5878   -9.4399    6.6776 C   0  0  0  0  0  0  0  0  0  0  0  0
    1.5536   -7.9031    6.9327 C   0  0  1  0  0  0  0  0  0  0  0  0
    2.5516   -7.4821    8.0231 C   0  0  0  0  0  0  0  0  0  0  0  0
    2.0317   -7.5936    3.0389 C   0  0  1  0  0  0  0  0  0  0  0  0
    2.2467   -7.6632    1.5106 C   0  0  0  0  0  0  0  0  0  0  0  0
    3.5202   -7.0851    1.1573 O   0  0  0  0  0  0  0  0  0  0  0  0
    4.5920   -6.8903    2.1348 C   0  0  1  0  0  0  0  0  0  0  0  0
    5.8729   -6.9134    1.4695 O   0  0  0  0  0  0  0  0  0  0  0  0
    5.3713   -5.6328    1.8525 C   0  0  1  0  0  0  0  0  0  0  0  0
    4.9525   -4.8008    0.6855 C   0  0  0  0  0  0  0  0  0  0  0  0
    5.8339   -4.3939   -0.2994 N   0  0  0  0  0  0  0  0  0  0  0  0
    5.1800   -3.6541   -1.2624 C   0  0  0  0  0  0  0  0  0  0  0  0
    5.6196   -3.0446   -2.4508 C   0  0  0  0  0  0  0  0  0  0  0  0
    4.6974   -2.3286   -3.2426 C   0  0  0  0  0  0  0  0  0  0  0  0
    3.3560   -2.2371   -2.8436 C   0  0  0  0  0  0  0  0  0  0  0  0
    2.9348   -2.8592   -1.6502 C   0  0  0  0  0  0  0  0  0  0  0  0
    3.8308   -3.5736   -0.8208 C   0  0  0  0  0  0  0  0  0  0  0  0
    3.7041   -4.2808    0.4252 C   0  0  0  0  0  0  0  0  0  0  0  0
    2.4282   -4.4253    1.2299 C   0  0  0  0  0  0  0  0  0  0  0  0
    2.6082   -4.7432    2.7404 C   0  0  0  0  0  0  0  0  0  0  0  0
    2.0128   -6.0323    3.4542 C   0  0  2  0  0  0  0  0  0  0  0  0
    4.4438   -7.4474    3.5603 C   0  0  2  0  0  0  0  0  0  0  0  0
    3.3312   -8.4138    3.4419 C   0  0  1  0  0  0  0  0  0  0  0  0
    3.4141   -9.2039    4.5772 O   0  0  0  0  0  0  0  0  0  0  0  0
    6.8056   -4.6575   -0.3023 H   0  0  0  0  0  0  0  0  0  0  0  0
    6.4018   -6.9404    7.0617 H   0  0  0  0  0  0  0  0  0  0  0  0
    6.2930   -5.5784    5.9511 H   0  0  0  0  0  0  0  0  0  0  0  0
    6.6266   -7.2009    5.3433 H   0  0  0  0  0  0  0  0  0  0  0  0
    4.5454   -5.5218    4.5453 H   0  0  0  0  0  0  0  0  0  0  0  0
    2.4966   -5.1093    5.3265 H   0  0  0  0  0  0  0  0  0  0  0  0
    0.9274   -6.0756    6.2689 H   0  0  0  0  0  0  0  0  0  0  0  0
   -0.5639   -7.9069    5.4498 H   0  0  0  0  0  0  0  0  0  0  0  0
   -0.4044   -6.5165    4.5706 H   0  0  0  0  0  0  0  0  0  0  0  0
   -0.3229   -8.6623    1.6932 H   0  0  0  0  0  0  0  0  0  0  0  0
   -0.5256   -6.9895    2.2016 H   0  0  0  0  0  0  0  0  0  0  0  0
   -1.4612   -8.2551    2.9653 H   0  0  0  0  0  0  0  0  0  0  0  0
   -0.4105  -10.0661    3.8263 H   0  0  0  0  0  0  0  0  0  0  0  0
    1.1619  -11.4872    3.5447 H   0  0  0  0  0  0  0  0  0  0  0  0
   -0.3685   -9.9884    6.0323 H   0  0  0  0  0  0  0  0  0  0  0  0
    0.8020  -11.1717    5.6794 H   0  0  0  0  0  0  0  0  0  0  0  0
    1.2723   -9.8762    7.6259 H   0  0  0  0  0  0  0  0  0  0  0  0
    2.5998   -9.8303    6.6348 H   0  0  0  0  0  0  0  0  0  0  0  0
    0.5973   -7.7936    7.4486 H   0  0  0  0  0  0  0  0  0  0  0  0
    3.5523   -7.8607    7.8255 H   0  0  0  0  0  0  0  0  0  0  0  0
    2.2555   -7.8991    8.9875 H   0  0  0  0  0  0  0  0  0  0  0  0
    2.6016   -6.3993    8.1350 H   0  0  0  0  0  0  0  0  0  0  0  0
    2.2341   -8.6993    1.1576 H   0  0  0  0  0  0  0  0  0  0  0  0
    1.4582   -7.1739    0.9415 H   0  0  0  0  0  0  0  0  0  0  0  0
    5.9539   -5.1197    2.6147 H   0  0  0  0  0  0  0  0  0  0  0  0
    6.6492   -3.1246   -2.7525 H   0  0  0  0  0  0  0  0  0  0  0  0
    5.0128   -1.8433   -4.1484 H   0  0  0  0  0  0  0  0  0  0  0  0
    2.6379   -1.6879   -3.4373 H   0  0  0  0  0  0  0  0  0  0  0  0
    1.9027   -2.7691   -1.3556 H   0  0  0  0  0  0  0  0  0  0  0  0
    1.9157   -3.4643    1.1705 H   0  0  0  0  0  0  0  0  0  0  0  0
    1.7489   -5.1165    0.7387 H   0  0  0  0  0  0  0  0  0  0  0  0
    3.6126   -4.4914    3.0425 H   0  0  0  0  0  0  0  0  0  0  0  0
    2.0989   -3.9158    3.2381 H   0  0  0  0  0  0  0  0  0  0  0  0
    0.9867   -5.6899    3.3774 H   0  0  0  0  0  0  0  0  0  0  0  0
    5.3722   -7.9746    3.7712 H   0  0  0  0  0  0  0  0  0  0  0  0
    3.6010   -9.1562    2.6897 H   0  0  0  0  0  0  0  0  0  0  0  0
    2.8036   -9.9218    4.4495 H   0  0  0  0  0  0  0  0  0  0  0  0
  1  2  1  0
  1 37  1  0
  1 38  1  0
  1 39  1  0
  2  3  1  0
  3 33  1  0
  3  4  1  0
  3 40  1  6
  4 32  1  0
  4  5  1  0
  4 41  1  1
  5 13  1  0
  5  6  1  0
  5 42  1  1
  6  7  1  0
  6 43  1  0
  6 44  1  0
  7  8  1  6
  7  9  1  0
  7 15  1  0
  8 45  1  0
  8 46  1  0
  8 47  1  0
  9 10  1  0
  9 11  1  0
  9 48  1  6
 10 49  1  0
 11 12  1  0
 11 50  1  0
 11 51  1  0
 12 13  1  0
 12 52  1  0
 12 53  1  0
 13 14  1  0
 13 54  1  1
 14 55  1  0
 14 56  1  0
 14 57  1  0
 15 32  1  0
 15 34  1  0
 15 16  1  6
 16 17  1  0
 16 58  1  0
 16 59  1  0
 17 18  1  0
 18 20  1  0
 18 19  1  6
 18 33  1  0
 19 20  1  0
 20 21  1  0
 20 60  1  1
 21 29  2  0
 21 22  1  0
 22 36  1  0
 22 23  1  0
 23 28  2  0
 23 24  1  0
 24 25  2  0
 24 61  1  0
 25 26  1  0
 25 62  1  0
 26 27  2  0
 26 63  1  0
 27 28  1  0
 27 64  1  0
 28 29  1  0
 29 30  1  0
 30 31  1  0
 30 65  1  0
 30 66  1  0
 31 32  1  0
 31 67  1  0
 31 68  1  0
 32 69  1  1
 33 34  1  0
 33 70  1  1
 34 35  1  0
 34 71  1  6
 35 72  1  0
M  END
>  <i_m_ct_stereo_status>  (60) 
1

>  <s_m_source_file>  (60) 
/var/tmp/pbs.5076255.sched01/tmpmjg_sug8/0d5zvyqle.sdf

>  <i_m_source_file_index>  (60) 
30

>  <i_lp_mmshare_version>  (60) 
48012

>  <i_f3d_flags>  (60) 
0

>  <s_epik_input>  (60) 
W2NIXTFbY0hdW2NIXVtjSF1jMmMxW25IXWMoW0NASF0zW0NAXShPMykoT1tDSDJdNClbQ0BIXShbQ0BIXTVbT0hdKVtDQEBIXTZPW0NIM10pYzJbQ0gyXVtDSDJdW0NAQEhdN1tDQEhdNltDSF0oW0NIMl1bQ0BdOChbQ0BdNDU3KVtDSDNdKVtDQEhdKFtDSDNdKVtDSDJdW0NIMl1bQ0BASF04W09IXQ==

>  <s_epik_cmdline>  (60) 
J2VwaWtfcHl0aG9uJywgJy1waHQnLCAnMi4wJywgJy1waCcsICc3LjAnLCAnLXRuJywgJzgnLCAnLW1hJywgJzIwMCcsICctaW1hZScsICc8aW5maWxlLm1hZT4nLCAnLW9tYWUnLCAnPG91dGZpbGUubWFlPic=

>  <r_lp_tautomer_probability>  (60) 
1

>  <r_epik_Ionization_Penalty>  (60) 
1.2673e-06

>  <r_epik_Ionization_Penalty_Charging>  (60) 
0

>  <r_epik_Ionization_Penalty_Neutral>  (60) 
1.2673e-06

>  <r_epik_State_Penalty>  (60) 
-0

>  <r_epik_Charging_Adjusted_Penalty>  (60) 
0

>  <i_epik_Tot_Q>  (60) 
0

>  <i_epik_Tot_abs_Q>  (60) 
0

>  <s_lp_Force_Field>  (60) 
OPLS3e

>  <r_lp_Energy>  (60) 
174.809

>  <b_lp_Chiralities_Consistent>  (60) 
1

>  <s_lp_Variant>  (60) 
23:0-1

>  <s_i_glide_gridfile>  (60) 
pfpi4k_grid

>  <i_i_glide_lignum>  (60) 
30

>  <i_i_glide_rotatable_bonds>  (60) 
3

>  <r_i_docking_score>  (60) 
-1.97635

>  <r_i_glide_ligand_efficiency>  (60) 
-0.0564671

>  <r_i_glide_ligand_efficiency_sa>  (60) 
-0.184708

>  <r_i_glide_ligand_efficiency_ln>  (60) 
-0.433853

>  <r_i_glide_gscore>  (60) 
-1.97635

>  <r_i_glide_lipo>  (60) 
-0.402087

>  <r_i_glide_hbond>  (60) 
0

>  <r_i_glide_metal>  (60) 
-0

>  <r_i_glide_rewards>  (60) 
-0.166623

>  <r_i_glide_evdw>  (60) 
-27.83

>  <r_i_glide_ecoul>  (60) 
-0.107598

>  <r_i_glide_erotb>  (60) 
0

>  <r_i_glide_esite>  (60) 
0

>  <r_i_glide_emodel>  (60) 
-30.1716

>  <r_i_glide_energy>  (60) 
-27.9376

>  <r_i_glide_einternal>  (60) 
1.9082

>  <r_i_glide_intrahb_reward>  (60) 
-0

>  <i_i_glide_confnum>  (60) 
1

>  <i_i_glide_posenum>  (60) 
33

>  <r_i_glide_eff_state_penalty>  (60) 
0

>  <ligand_id>  (60) 
23

>  <original_smiles>  (60) 
COC1C2C3CC(C)(C(O)CCC3C)C34COC5(OC5c5[nH]c6ccccc6c5CCC23)C1C4O

>  <smiles>  (60) 
[H]OC1([H])C([H])([H])C([H])([H])C([H])(C([H])([H])[H])C2([H])C([H])([H])C1(C([H])([H])[H])C13C([H])([H])OC45OC4([H])c4c(c6c([H])c([H])c([H])c([H])c6n4[H])C([H])([H])C([H])([H])C1([H])C2([H])C([H])(OC([H])([H])[H])C5([H])C3([H])O[H]

$$$$
23:0:1
     RDKit          3D

 72 79  0  0  1  0  0  0  0  0999 V2000
    6.0343   -6.6624    6.0775 C   0  0  0  0  0  0  0  0  0  0  0  0
    4.6312   -6.8649    5.9915 O   0  0  0  0  0  0  0  0  0  0  0  0
    4.0439   -6.4935    4.7515 C   0  0  2  0  0  0  0  0  0  0  0  0
    2.5034   -6.1357    4.9098 C   0  0  2  0  0  0  0  0  0  0  0  0
    1.3711   -6.9296    5.7282 C   0  0  1  0  0  0  0  0  0  0  0  0
    0.1778   -7.3960    4.8575 C   0  0  0  0  0  0  0  0  0  0  0  0
    0.6330   -8.2204    3.6185 C   0  0  2  0  0  0  0  0  0  0  0  0
   -0.4902   -8.0257    2.5647 C   0  0  0  0  0  0  0  0  0  0  0  0
    0.5891   -9.7349    4.0724 C   0  0  1  0  0  0  0  0  0  0  0  0
    1.2509  -10.6459    3.2103 O   0  0  0  0  0  0  0  0  0  0  0  0
    0.6216  -10.1083    5.6089 C   0  0  0  0  0  0  0  0  0  0  0  0
    1.5718   -9.4567    6.6638 C   0  0  0  0  0  0  0  0  0  0  0  0
    1.5392   -7.9217    6.9272 C   0  0  1  0  0  0  0  0  0  0  0  0
    2.5394   -7.5058    8.0178 C   0  0  0  0  0  0  0  0  0  0  0  0
    2.0186   -7.6129    3.0376 C   0  0  1  0  0  0  0  0  0  0  0  0
    2.2188   -7.6756    1.5098 C   0  0  0  0  0  0  0  0  0  0  0  0
    3.4878   -7.1136    1.1600 O   0  0  0  0  0  0  0  0  0  0  0  0
    4.5644   -6.9105    2.1136 C   0  0  1  0  0  0  0  0  0  0  0  0
    5.8456   -6.9196    1.4710 O   0  0  0  0  0  0  0  0  0  0  0  0
    5.3478   -5.6542    1.8489 C   0  0  1  0  0  0  0  0  0  0  0  0
    4.9394   -4.8102    0.6952 C   0  0  0  0  0  0  0  0  0  0  0  0
    5.8210   -4.4131   -0.2941 N   0  0  0  0  0  0  0  0  0  0  0  0
    5.1724   -3.6653   -1.2630 C   0  0  0  0  0  0  0  0  0  0  0  0
    5.6110   -3.0572   -2.4453 C   0  0  0  0  0  0  0  0  0  0  0  0
    4.6967   -2.3317   -3.2351 C   0  0  0  0  0  0  0  0  0  0  0  0
    3.3496   -2.2415   -2.8311 C   0  0  0  0  0  0  0  0  0  0  0  0
    2.9300   -2.8652   -1.6471 C   0  0  0  0  0  0  0  0  0  0  0  0
    3.8204   -3.5808   -0.8196 C   0  0  0  0  0  0  0  0  0  0  0  0
    3.6933   -4.2834    0.4240 C   0  0  0  0  0  0  0  0  0  0  0  0
    2.4200   -4.4387    1.2401 C   0  0  0  0  0  0  0  0  0  0  0  0
    2.5999   -4.7547    2.7510 C   0  0  0  0  0  0  0  0  0  0  0  0
    2.0079   -6.0477    3.4571 C   0  0  2  0  0  0  0  0  0  0  0  0
    4.4240   -7.4764    3.5428 C   0  0  2  0  0  0  0  0  0  0  0  0
    3.3074   -8.4527    3.4420 C   0  0  1  0  0  0  0  0  0  0  0  0
    3.4532   -9.1868    4.6166 O   0  0  0  0  0  0  0  0  0  0  0  0
    6.7902   -4.6845   -0.2935 H   0  0  0  0  0  0  0  0  0  0  0  0
    6.3804   -6.9732    7.0664 H   0  0  0  0  0  0  0  0  0  0  0  0
    6.2833   -5.6093    5.9545 H   0  0  0  0  0  0  0  0  0  0  0  0
    6.6062   -7.2341    5.3461 H   0  0  0  0  0  0  0  0  0  0  0  0
    4.5258   -5.5456    4.5487 H   0  0  0  0  0  0  0  0  0  0  0  0
    2.4897   -5.1372    5.3331 H   0  0  0  0  0  0  0  0  0  0  0  0
    0.9212   -6.0953    6.2679 H   0  0  0  0  0  0  0  0  0  0  0  0
   -0.5689   -7.9223    5.4462 H   0  0  0  0  0  0  0  0  0  0  0  0
   -0.4118   -6.5270    4.5689 H   0  0  0  0  0  0  0  0  0  0  0  0
   -0.3416   -8.6742    1.6963 H   0  0  0  0  0  0  0  0  0  0  0  0
   -0.5395   -6.9978    2.2023 H   0  0  0  0  0  0  0  0  0  0  0  0
   -1.4739   -8.2612    2.9770 H   0  0  0  0  0  0  0  0  0  0  0  0
   -0.4335  -10.0368    3.8416 H   0  0  0  0  0  0  0  0  0  0  0  0
    2.1846  -10.6736    3.3632 H   0  0  0  0  0  0  0  0  0  0  0  0
   -0.3823   -9.9829    6.0226 H   0  0  0  0  0  0  0  0  0  0  0  0
    0.7637  -11.1846    5.6702 H   0  0  0  0  0  0  0  0  0  0  0  0
    1.2508   -9.8877    7.6097 H   0  0  0  0  0  0  0  0  0  0  0  0
    2.5826   -9.8523    6.6273 H   0  0  0  0  0  0  0  0  0  0  0  0
    0.5848   -7.8128    7.4412 H   0  0  0  0  0  0  0  0  0  0  0  0
    3.5381   -7.8885    7.8165 H   0  0  0  0  0  0  0  0  0  0  0  0
    2.2423   -7.9265    8.9786 H   0  0  0  0  0  0  0  0  0  0  0  0
    2.5937   -6.4223    8.1315 H   0  0  0  0  0  0  0  0  0  0  0  0
    2.2011   -8.7044    1.1524 H   0  0  0  0  0  0  0  0  0  0  0  0
    1.4325   -7.1742    0.9383 H   0  0  0  0  0  0  0  0  0  0  0  0
    5.9451   -5.1527    2.6038 H   0  0  0  0  0  0  0  0  0  0  0  0
    6.6380   -3.1367   -2.7455 H   0  0  0  0  0  0  0  0  0  0  0  0
    5.0288   -1.8368   -4.1380 H   0  0  0  0  0  0  0  0  0  0  0  0
    2.6288   -1.6854   -3.4216 H   0  0  0  0  0  0  0  0  0  0  0  0
    1.9073   -2.7773   -1.3478 H   0  0  0  0  0  0  0  0  0  0  0  0
    1.9178   -3.4760    1.1820 H   0  0  0  0  0  0  0  0  0  0  0  0
    1.7509   -5.1347    0.7404 H   0  0  0  0  0  0  0  0  0  0  0  0
    3.6014   -4.4975    3.0587 H   0  0  0  0  0  0  0  0  0  0  0  0
    2.0846   -3.9359    3.2454 H   0  0  0  0  0  0  0  0  0  0  0  0
    0.9810   -5.7023    3.3805 H   0  0  0  0  0  0  0  0  0  0  0  0
    5.3592   -8.0154    3.7596 H   0  0  0  0  0  0  0  0  0  0  0  0
    3.5723   -9.1829    2.6779 H   0  0  0  0  0  0  0  0  0  0  0  0
    2.7694   -9.8419    4.7077 H   0  0  0  0  0  0  0  0  0  0  0  0
  1  2  1  0
  1 37  1  0
  1 38  1  0
  1 39  1  0
  2  3  1  0
  3 33  1  0
  3  4  1  0
  3 40  1  6
  4 32  1  0
  4  5  1  0
  4 41  1  1
  5 13  1  0
  5  6  1  0
  5 42  1  1
  6  7  1  0
  6 43  1  0
  6 44  1  0
  7  8  1  6
  7  9  1  0
  7 15  1  0
  8 45  1  0
  8 46  1  0
  8 47  1  0
  9 10  1  0
  9 11  1  0
  9 48  1  6
 10 49  1  0
 11 12  1  0
 11 50  1  0
 11 51  1  0
 12 13  1  0
 12 52  1  0
 12 53  1  0
 13 14  1  0
 13 54  1  1
 14 55  1  0
 14 56  1  0
 14 57  1  0
 15 32  1  0
 15 34  1  0
 15 16  1  6
 16 17  1  0
 16 58  1  0
 16 59  1  0
 17 18  1  0
 18 20  1  0
 18 19  1  6
 18 33  1  0
 19 20  1  0
 20 21  1  0
 20 60  1  1
 21 29  2  0
 21 22  1  0
 22 36  1  0
 22 23  1  0
 23 28  2  0
 23 24  1  0
 24 25  2  0
 24 61  1  0
 25 26  1  0
 25 62  1  0
 26 27  2  0
 26 63  1  0
 27 28  1  0
 27 64  1  0
 28 29  1  0
 29 30  1  0
 30 31  1  0
 30 65  1  0
 30 66  1  0
 31 32  1  0
 31 67  1  0
 31 68  1  0
 32 69  1  1
 33 34  1  0
 33 70  1  1
 34 35  1  0
 34 71  1  6
 35 72  1  0
M  END
>  <i_m_ct_stereo_status>  (61) 
1

>  <s_m_source_file>  (61) 
/var/tmp/pbs.5076255.sched01/tmpmjg_sug8/0d5zvyqle.sdf

>  <i_m_source_file_index>  (61) 
30

>  <i_lp_mmshare_version>  (61) 
48012

>  <i_f3d_flags>  (61) 
0

>  <s_epik_input>  (61) 
W2NIXTFbY0hdW2NIXVtjSF1jMmMxW25IXWMoW0NASF0zW0NAXShPMykoT1tDSDJdNClbQ0BIXShbQ0BIXTVbT0hdKVtDQEBIXTZPW0NIM10pYzJbQ0gyXVtDSDJdW0NAQEhdN1tDQEhdNltDSF0oW0NIMl1bQ0BdOChbQ0BdNDU3KVtDSDNdKVtDQEhdKFtDSDNdKVtDSDJdW0NIMl1bQ0BASF04W09IXQ==

>  <s_epik_cmdline>  (61) 
J2VwaWtfcHl0aG9uJywgJy1waHQnLCAnMi4wJywgJy1waCcsICc3LjAnLCAnLXRuJywgJzgnLCAnLW1hJywgJzIwMCcsICctaW1hZScsICc8aW5maWxlLm1hZT4nLCAnLW9tYWUnLCAnPG91dGZpbGUubWFlPic=

>  <r_lp_tautomer_probability>  (61) 
1

>  <r_epik_Ionization_Penalty>  (61) 
1.2673e-06

>  <r_epik_Ionization_Penalty_Charging>  (61) 
0

>  <r_epik_Ionization_Penalty_Neutral>  (61) 
1.2673e-06

>  <r_epik_State_Penalty>  (61) 
-0

>  <r_epik_Charging_Adjusted_Penalty>  (61) 
0

>  <i_epik_Tot_Q>  (61) 
0

>  <i_epik_Tot_abs_Q>  (61) 
0

>  <s_lp_Force_Field>  (61) 
OPLS3e

>  <r_lp_Energy>  (61) 
174.809

>  <b_lp_Chiralities_Consistent>  (61) 
1

>  <s_lp_Variant>  (61) 
23:0-1

>  <s_i_glide_gridfile>  (61) 
pfpi4k_grid

>  <i_i_glide_lignum>  (61) 
30

>  <i_i_glide_rotatable_bonds>  (61) 
3

>  <r_i_docking_score>  (61) 
-1.92892

>  <r_i_glide_ligand_efficiency>  (61) 
-0.055112

>  <r_i_glide_ligand_efficiency_sa>  (61) 
-0.180275

>  <r_i_glide_ligand_efficiency_ln>  (61) 
-0.423441

>  <r_i_glide_gscore>  (61) 
-1.92892

>  <r_i_glide_lipo>  (61) 
-0.402038

>  <r_i_glide_hbond>  (61) 
0

>  <r_i_glide_metal>  (61) 
-0

>  <r_i_glide_rewards>  (61) 
-0.169017

>  <r_i_glide_evdw>  (61) 
-27.8571

>  <r_i_glide_ecoul>  (61) 
0.233267

>  <r_i_glide_erotb>  (61) 
0

>  <r_i_glide_esite>  (61) 
0

>  <r_i_glide_emodel>  (61) 
-29.7911

>  <r_i_glide_energy>  (61) 
-27.6238

>  <r_i_glide_einternal>  (61) 
1.65764

>  <r_i_glide_intrahb_reward>  (61) 
-0

>  <i_i_glide_confnum>  (61) 
2

>  <i_i_glide_posenum>  (61) 
11

>  <r_i_glide_eff_state_penalty>  (61) 
0

>  <ligand_id>  (61) 
23

>  <original_smiles>  (61) 
COC1C2C3CC(C)(C(O)CCC3C)C34COC5(OC5c5[nH]c6ccccc6c5CCC23)C1C4O

>  <smiles>  (61) 
[H]OC1([H])C([H])([H])C([H])([H])C([H])(C([H])([H])[H])C2([H])C([H])([H])C1(C([H])([H])[H])C13C([H])([H])OC45OC4([H])c4c(c6c([H])c([H])c([H])c([H])c6n4[H])C([H])([H])C([H])([H])C1([H])C2([H])C([H])(OC([H])([H])[H])C5([H])C3([H])O[H]

$$$$
23:0:2
     RDKit          3D

 72 79  0  0  1  0  0  0  0  0999 V2000
    5.9338   -6.6793    6.0795 C   0  0  0  0  0  0  0  0  0  0  0  0
    4.5256   -6.8748    5.9842 O   0  0  0  0  0  0  0  0  0  0  0  0
    3.9490   -6.4774    4.7519 C   0  0  2  0  0  0  0  0  0  0  0  0
    2.4098   -6.0879    4.9054 C   0  0  2  0  0  0  0  0  0  0  0  0
    1.2598   -6.8614    5.7306 C   0  0  1  0  0  0  0  0  0  0  0  0
    0.0597   -7.3018    4.8583 C   0  0  0  0  0  0  0  0  0  0  0  0
    0.5029   -8.1346    3.6206 C   0  0  2  0  0  0  0  0  0  0  0  0
   -0.6138   -7.9253    2.5565 C   0  0  0  0  0  0  0  0  0  0  0  0
    0.4168   -9.6436    4.0852 C   0  0  1  0  0  0  0  0  0  0  0  0
    1.1509  -10.5382    3.2762 O   0  0  0  0  0  0  0  0  0  0  0  0
    0.4516  -10.0230    5.6201 C   0  0  0  0  0  0  0  0  0  0  0  0
    1.4140   -9.3938    6.6773 C   0  0  0  0  0  0  0  0  0  0  0  0
    1.4105   -7.8569    6.9322 C   0  0  1  0  0  0  0  0  0  0  0  0
    2.4158   -7.4555    8.0229 C   0  0  0  0  0  0  0  0  0  0  0  0
    1.9019   -7.5537    3.0366 C   0  0  1  0  0  0  0  0  0  0  0  0
    2.1147   -7.6277    1.5112 C   0  0  0  0  0  0  0  0  0  0  0  0
    3.4009   -7.0812    1.1628 O   0  0  0  0  0  0  0  0  0  0  0  0
    4.4716   -6.9036    2.1306 C   0  0  1  0  0  0  0  0  0  0  0  0
    5.7543   -6.9556    1.4749 O   0  0  0  0  0  0  0  0  0  0  0  0
    5.2825   -5.6663    1.8533 C   0  0  1  0  0  0  0  0  0  0  0  0
    4.8866   -4.8257    0.6897 C   0  0  0  0  0  0  0  0  0  0  0  0
    5.7772   -4.4381   -0.3001 N   0  0  0  0  0  0  0  0  0  0  0  0
    5.1427   -3.6796   -1.2617 C   0  0  0  0  0  0  0  0  0  0  0  0
    5.5883   -3.0732   -2.4461 C   0  0  0  0  0  0  0  0  0  0  0  0
    4.6836   -2.3433   -3.2400 C   0  0  0  0  0  0  0  0  0  0  0  0
    3.3410   -2.2275   -2.8401 C   0  0  0  0  0  0  0  0  0  0  0  0
    2.9134   -2.8419   -1.6514 C   0  0  0  0  0  0  0  0  0  0  0  0
    3.7898   -3.5743   -0.8205 C   0  0  0  0  0  0  0  0  0  0  0  0
    3.6486   -4.2779    0.4239 C   0  0  0  0  0  0  0  0  0  0  0  0
    2.3665   -4.3980    1.2302 C   0  0  0  0  0  0  0  0  0  0  0  0
    2.5369   -4.7169    2.7416 C   0  0  0  0  0  0  0  0  0  0  0  0
    1.9157   -5.9933    3.4537 C   0  0  2  0  0  0  0  0  0  0  0  0
    4.3127   -7.4653    3.5614 C   0  0  2  0  0  0  0  0  0  0  0  0
    3.1815   -8.4094    3.4397 C   0  0  1  0  0  0  0  0  0  0  0  0
    3.2420   -9.2205    4.5625 O   0  0  0  0  0  0  0  0  0  0  0  0
    6.7430   -4.7249   -0.3033 H   0  0  0  0  0  0  0  0  0  0  0  0
    6.2778   -6.9870    7.0680 H   0  0  0  0  0  0  0  0  0  0  0  0
    6.1954   -5.6279    5.9529 H   0  0  0  0  0  0  0  0  0  0  0  0
    6.5043   -7.2572    5.3507 H   0  0  0  0  0  0  0  0  0  0  0  0
    4.4545   -5.5368    4.5492 H   0  0  0  0  0  0  0  0  0  0  0  0
    2.4148   -5.0814    5.3277 H   0  0  0  0  0  0  0  0  0  0  0  0
    0.8256   -6.0158    6.2681 H   0  0  0  0  0  0  0  0  0  0  0  0
   -0.6986   -7.8124    5.4413 H   0  0  0  0  0  0  0  0  0  0  0  0
   -0.5132   -6.4244    4.5669 H   0  0  0  0  0  0  0  0  0  0  0  0
   -0.4776   -8.5736    1.6863 H   0  0  0  0  0  0  0  0  0  0  0  0
   -0.6425   -6.8966    2.1963 H   0  0  0  0  0  0  0  0  0  0  0  0
   -1.6064   -8.1398    2.9630 H   0  0  0  0  0  0  0  0  0  0  0  0
   -0.5906   -9.9626    3.8243 H   0  0  0  0  0  0  0  0  0  0  0  0
    2.0520  -10.4882    3.5660 H   0  0  0  0  0  0  0  0  0  0  0  0
   -0.5515   -9.8789    6.0237 H   0  0  0  0  0  0  0  0  0  0  0  0
    0.5850  -11.1041    5.6738 H   0  0  0  0  0  0  0  0  0  0  0  0
    1.0913   -9.8385    7.6189 H   0  0  0  0  0  0  0  0  0  0  0  0
    2.4167   -9.8026    6.6254 H   0  0  0  0  0  0  0  0  0  0  0  0
    0.4566   -7.7273    7.4468 H   0  0  0  0  0  0  0  0  0  0  0  0
    3.4088   -7.8552    7.8269 H   0  0  0  0  0  0  0  0  0  0  0  0
    2.1109   -7.8659    8.9876 H   0  0  0  0  0  0  0  0  0  0  0  0
    2.4890   -6.3730    8.1351 H   0  0  0  0  0  0  0  0  0  0  0  0
    2.0797   -8.6612    1.1564 H   0  0  0  0  0  0  0  0  0  0  0  0
    1.3358   -7.1223    0.9389 H   0  0  0  0  0  0  0  0  0  0  0  0
    5.8761   -5.1638    2.6155 H   0  0  0  0  0  0  0  0  0  0  0  0
    6.6169   -3.1774   -2.7501 H   0  0  0  0  0  0  0  0  0  0  0  0
    4.9956   -1.8617   -4.1507 H   0  0  0  0  0  0  0  0  0  0  0  0
    2.6353   -1.6631   -3.4364 H   0  0  0  0  0  0  0  0  0  0  0  0
    1.8807   -2.7315   -1.3582 H   0  0  0  0  0  0  0  0  0  0  0  0
    1.8753   -3.4266    1.1674 H   0  0  0  0  0  0  0  0  0  0  0  0
    1.6794   -5.0778    0.7375 H   0  0  0  0  0  0  0  0  0  0  0  0
    3.5471   -4.4863    3.0419 H   0  0  0  0  0  0  0  0  0  0  0  0
    2.0434   -3.8784    3.2363 H   0  0  0  0  0  0  0  0  0  0  0  0
    0.8971   -5.6283    3.3765 H   0  0  0  0  0  0  0  0  0  0  0  0
    5.2367   -8.0027    3.7730 H   0  0  0  0  0  0  0  0  0  0  0  0
    3.4341   -9.1453    2.6762 H   0  0  0  0  0  0  0  0  0  0  0  0
    4.0431   -9.7248    4.5475 H   0  0  0  0  0  0  0  0  0  0  0  0
  1  2  1  0
  1 37  1  0
  1 38  1  0
  1 39  1  0
  2  3  1  0
  3 33  1  0
  3  4  1  0
  3 40  1  6
  4 32  1  0
  4  5  1  0
  4 41  1  1
  5 13  1  0
  5  6  1  0
  5 42  1  1
  6  7  1  0
  6 43  1  0
  6 44  1  0
  7  8  1  6
  7  9  1  0
  7 15  1  0
  8 45  1  0
  8 46  1  0
  8 47  1  0
  9 10  1  0
  9 11  1  0
  9 48  1  6
 10 49  1  0
 11 12  1  0
 11 50  1  0
 11 51  1  0
 12 13  1  0
 12 52  1  0
 12 53  1  0
 13 14  1  0
 13 54  1  1
 14 55  1  0
 14 56  1  0
 14 57  1  0
 15 32  1  0
 15 34  1  0
 15 16  1  6
 16 17  1  0
 16 58  1  0
 16 59  1  0
 17 18  1  0
 18 20  1  0
 18 19  1  6
 18 33  1  0
 19 20  1  0
 20 21  1  0
 20 60  1  1
 21 29  2  0
 21 22  1  0
 22 36  1  0
 22 23  1  0
 23 28  2  0
 23 24  1  0
 24 25  2  0
 24 61  1  0
 25 26  1  0
 25 62  1  0
 26 27  2  0
 26 63  1  0
 27 28  1  0
 27 64  1  0
 28 29  1  0
 29 30  1  0
 30 31  1  0
 30 65  1  0
 30 66  1  0
 31 32  1  0
 31 67  1  0
 31 68  1  0
 32 69  1  1
 33 34  1  0
 33 70  1  1
 34 35  1  0
 34 71  1  6
 35 72  1  0
M  END
>  <i_m_ct_stereo_status>  (62) 
1

>  <s_m_source_file>  (62) 
/var/tmp/pbs.5076255.sched01/tmpmjg_sug8/0d5zvyqle.sdf

>  <i_m_source_file_index>  (62) 
30

>  <i_lp_mmshare_version>  (62) 
48012

>  <i_f3d_flags>  (62) 
0

>  <s_epik_input>  (62) 
W2NIXTFbY0hdW2NIXVtjSF1jMmMxW25IXWMoW0NASF0zW0NAXShPMykoT1tDSDJdNClbQ0BIXShbQ0BIXTVbT0hdKVtDQEBIXTZPW0NIM10pYzJbQ0gyXVtDSDJdW0NAQEhdN1tDQEhdNltDSF0oW0NIMl1bQ0BdOChbQ0BdNDU3KVtDSDNdKVtDQEhdKFtDSDNdKVtDSDJdW0NIMl1bQ0BASF04W09IXQ==

>  <s_epik_cmdline>  (62) 
J2VwaWtfcHl0aG9uJywgJy1waHQnLCAnMi4wJywgJy1waCcsICc3LjAnLCAnLXRuJywgJzgnLCAnLW1hJywgJzIwMCcsICctaW1hZScsICc8aW5maWxlLm1hZT4nLCAnLW9tYWUnLCAnPG91dGZpbGUubWFlPic=

>  <r_lp_tautomer_probability>  (62) 
1

>  <r_epik_Ionization_Penalty>  (62) 
1.2673e-06

>  <r_epik_Ionization_Penalty_Charging>  (62) 
0

>  <r_epik_Ionization_Penalty_Neutral>  (62) 
1.2673e-06

>  <r_epik_State_Penalty>  (62) 
-0

>  <r_epik_Charging_Adjusted_Penalty>  (62) 
0

>  <i_epik_Tot_Q>  (62) 
0

>  <i_epik_Tot_abs_Q>  (62) 
0

>  <s_lp_Force_Field>  (62) 
OPLS3e

>  <r_lp_Energy>  (62) 
174.809

>  <b_lp_Chiralities_Consistent>  (62) 
1

>  <s_lp_Variant>  (62) 
23:0-1

>  <s_i_glide_gridfile>  (62) 
pfpi4k_grid

>  <i_i_glide_lignum>  (62) 
30

>  <i_i_glide_rotatable_bonds>  (62) 
3

>  <r_i_docking_score>  (62) 
-1.84663

>  <r_i_glide_ligand_efficiency>  (62) 
-0.0527608

>  <r_i_glide_ligand_efficiency_sa>  (62) 
-0.172584

>  <r_i_glide_ligand_efficiency_ln>  (62) 
-0.405376

>  <r_i_glide_gscore>  (62) 
-1.84663

>  <r_i_glide_lipo>  (62) 
-0.403702

>  <r_i_glide_hbond>  (62) 
0

>  <r_i_glide_metal>  (62) 
-0

>  <r_i_glide_rewards>  (62) 
-0.166696

>  <r_i_glide_evdw>  (62) 
-28.3083

>  <r_i_glide_ecoul>  (62) 
0.927909

>  <r_i_glide_erotb>  (62) 
0

>  <r_i_glide_esite>  (62) 
0

>  <r_i_glide_emodel>  (62) 
-29.4151

>  <r_i_glide_energy>  (62) 
-27.3804

>  <r_i_glide_einternal>  (62) 
1.74368

>  <r_i_glide_intrahb_reward>  (62) 
-0

>  <i_i_glide_confnum>  (62) 
2

>  <i_i_glide_posenum>  (62) 
26

>  <r_i_glide_eff_state_penalty>  (62) 
0

>  <ligand_id>  (62) 
23

>  <original_smiles>  (62) 
COC1C2C3CC(C)(C(O)CCC3C)C34COC5(OC5c5[nH]c6ccccc6c5CCC23)C1C4O

>  <smiles>  (62) 
[H]OC1([H])C([H])([H])C([H])([H])C([H])(C([H])([H])[H])C2([H])C([H])([H])C1(C([H])([H])[H])C13C([H])([H])OC45OC4([H])c4c(c6c([H])c([H])c([H])c([H])c6n4[H])C([H])([H])C([H])([H])C1([H])C2([H])C([H])(OC([H])([H])[H])C5([H])C3([H])O[H]

$$$$
24:0:0
     RDKit          3D

 41 44  0  0  1  0  0  0  0  0999 V2000
    4.6123   -4.0232   -4.1687 C   0  0  0  0  0  0  0  0  0  0  0  0
    4.2096   -3.1296   -3.0085 C   0  0  2  0  0  0  0  0  0  0  0  0
    4.3444   -1.6228   -3.3245 C   0  0  1  0  0  0  0  0  0  0  0  0
    3.1005   -1.0417   -3.6440 O   0  0  0  0  0  0  0  0  0  0  0  0
    4.9596   -0.9586   -2.0778 C   0  0  0  0  0  0  0  0  0  0  0  0
    4.8736   -2.0192   -0.9899 C   0  0  2  0  0  0  0  0  0  0  0  0
    3.5002   -2.0757   -0.3441 C   0  0  0  0  0  0  0  0  0  0  0  0
    3.5773   -2.6757    0.8411 C   0  0  0  0  0  0  0  0  0  0  0  0
    5.0108   -2.9880    1.1671 C   0  0  1  0  0  0  0  0  0  0  0  0
    5.2236   -2.9458    2.6813 C   0  0  0  0  0  0  0  0  0  0  0  0
    5.5215   -4.3068    0.5301 C   0  0  2  0  0  0  0  0  0  0  0  0
    7.0445   -4.0508    0.4064 C   0  0  0  0  0  0  0  0  0  0  0  0
    7.2047   -2.5393    0.1253 C   0  0  0  0  0  0  0  0  0  0  0  0
    5.7821   -1.9620    0.2859 C   0  0  1  0  0  0  0  0  0  0  0  0
    5.8202   -0.5550    0.9016 C   0  0  0  0  0  0  0  0  0  0  0  0
    4.8812   -4.5424   -0.8686 C   0  0  0  0  0  0  0  0  0  0  0  0
    5.1006   -3.3132   -1.7825 C   0  0  1  0  0  0  0  0  0  0  0  0
    5.6540   -3.8406   -4.4460 H   0  0  0  0  0  0  0  0  0  0  0  0
    3.9878   -3.8161   -5.0244 H   0  0  0  0  0  0  0  0  0  0  0  0
    4.5408   -5.0812   -3.9225 H   0  0  0  0  0  0  0  0  0  0  0  0
    3.1764   -3.3591   -2.7298 H   0  0  0  0  0  0  0  0  0  0  0  0
    5.0142   -1.4665   -4.1678 H   0  0  0  0  0  0  0  0  0  0  0  0
    2.5302   -1.1464   -2.9038 H   0  0  0  0  0  0  0  0  0  0  0  0
    6.0113   -0.8057   -2.2700 H   0  0  0  0  0  0  0  0  0  0  0  0
    4.5232    0.0072   -1.8221 H   0  0  0  0  0  0  0  0  0  0  0  0
    2.6021   -1.6502   -0.7674 H   0  0  0  0  0  0  0  0  0  0  0  0
    2.7553   -2.7876    1.5361 H   0  0  0  0  0  0  0  0  0  0  0  0
    6.2563   -3.0483    2.8906 H   0  0  0  0  0  0  0  0  0  0  0  0
    4.7351   -3.7835    3.1737 H   0  0  0  0  0  0  0  0  0  0  0  0
    4.8904   -2.0277    3.1626 H   0  0  0  0  0  0  0  0  0  0  0  0
    5.3180   -5.1673    1.1657 H   0  0  0  0  0  0  0  0  0  0  0  0
    7.5349   -4.2996    1.3532 H   0  0  0  0  0  0  0  0  0  0  0  0
    7.5325   -4.6674   -0.3399 H   0  0  0  0  0  0  0  0  0  0  0  0
    7.9019   -2.1252    0.8566 H   0  0  0  0  0  0  0  0  0  0  0  0
    7.6434   -2.3379   -0.8554 H   0  0  0  0  0  0  0  0  0  0  0  0
    6.3605   -0.5685    1.8500 H   0  0  0  0  0  0  0  0  0  0  0  0
    4.8246   -0.1566    1.0941 H   0  0  0  0  0  0  0  0  0  0  0  0
    6.3402    0.1464    0.2493 H   0  0  0  0  0  0  0  0  0  0  0  0
    5.3303   -5.4196   -1.3216 H   0  0  0  0  0  0  0  0  0  0  0  0
    3.8136   -4.7688   -0.7711 H   0  0  0  0  0  0  0  0  0  0  0  0
    6.1263   -3.3404   -2.1357 H   0  0  0  0  0  0  0  0  0  0  0  0
  1  2  1  0
  1 18  1  0
  1 19  1  0
  1 20  1  0
  2 17  1  0
  2  3  1  0
  2 21  1  1
  3  4  1  0
  3  5  1  0
  3 22  1  6
  4 23  1  0
  6  5  1  6
  5 24  1  0
  5 25  1  0
  6 14  1  0
  6 17  1  0
  6  7  1  0
  7  8  2  0
  7 26  1  0
  8  9  1  0
  8 27  1  0
  9 14  1  0
  9 10  1  1
  9 11  1  0
 10 28  1  0
 10 29  1  0
 10 30  1  0
 11 12  1  0
 11 16  1  0
 11 31  1  1
 12 13  1  0
 12 32  1  0
 12 33  1  0
 13 14  1  0
 13 34  1  0
 13 35  1  0
 14 15  1  1
 15 36  1  0
 15 37  1  0
 15 38  1  0
 16 17  1  0
 16 39  1  0
 16 40  1  0
 17 41  1  6
M  END
>  <i_m_ct_stereo_status>  (63) 
1

>  <s_m_source_file>  (63) 
/var/tmp/pbs.5076255.sched01/tmpmjg_sug8/0d5zvyqle.sdf

>  <i_m_source_file_index>  (63) 
31

>  <i_lp_mmshare_version>  (63) 
48012

>  <i_f3d_flags>  (63) 
0

>  <s_epik_input>  (63) 
W09IXVtDQEBIXShbQ0gyXTEpW0NAQEhdKFtDSDNdKVtDQEBIXTJbQ0gyXVtDQEBIXShbQ0gyXVtDSDJdMylbQ0BdKFtDSDNdKShbQ0hdPVtDSF00KVtDQEBdMyhbQ0BAXTEyNClbQ0gzXQ==

>  <s_epik_cmdline>  (63) 
J2VwaWtfcHl0aG9uJywgJy1waHQnLCAnMi4wJywgJy1waCcsICc3LjAnLCAnLXRuJywgJzgnLCAnLW1hJywgJzIwMCcsICctaW1hZScsICc8aW5maWxlLm1hZT4nLCAnLW9tYWUnLCAnPG91dGZpbGUubWFlPic=

>  <r_lp_tautomer_probability>  (63) 
1

>  <r_epik_Ionization_Penalty>  (63) 
1.8918e-06

>  <r_epik_Ionization_Penalty_Charging>  (63) 
0

>  <r_epik_Ionization_Penalty_Neutral>  (63) 
1.8918e-06

>  <r_epik_State_Penalty>  (63) 
-0

>  <r_epik_Charging_Adjusted_Penalty>  (63) 
0

>  <i_epik_Tot_Q>  (63) 
0

>  <i_epik_Tot_abs_Q>  (63) 
0

>  <s_lp_Force_Field>  (63) 
OPLS3e

>  <r_lp_Energy>  (63) 
52.0588

>  <b_lp_Chiralities_Consistent>  (63) 
1

>  <s_lp_Variant>  (63) 
24:0-1

>  <s_i_glide_gridfile>  (63) 
pfpi4k_grid

>  <i_i_glide_lignum>  (63) 
31

>  <i_i_glide_rotatable_bonds>  (63) 
1

>  <r_i_docking_score>  (63) 
-3.64307

>  <r_i_glide_ligand_efficiency>  (63) 
-0.214298

>  <r_i_glide_ligand_efficiency_sa>  (63) 
-0.551021

>  <r_i_glide_ligand_efficiency_ln>  (63) 
-0.950396

>  <r_i_glide_gscore>  (63) 
-3.64307

>  <r_i_glide_lipo>  (63) 
-0.773041

>  <r_i_glide_hbond>  (63) 
0

>  <r_i_glide_metal>  (63) 
-0

>  <r_i_glide_rewards>  (63) 
-1.82481

>  <r_i_glide_evdw>  (63) 
-18.0319

>  <r_i_glide_ecoul>  (63) 
-0.957494

>  <r_i_glide_erotb>  (63) 
0

>  <r_i_glide_esite>  (63) 
0

>  <r_i_glide_emodel>  (63) 
-23.3838

>  <r_i_glide_energy>  (63) 
-18.9894

>  <r_i_glide_einternal>  (63) 
0.0104515

>  <r_i_glide_intrahb_reward>  (63) 
-0

>  <i_i_glide_confnum>  (63) 
1

>  <i_i_glide_posenum>  (63) 
31

>  <r_i_glide_eff_state_penalty>  (63) 
0

>  <ligand_id>  (63) 
24

>  <original_smiles>  (63) 
CC1C(O)CC23C=CC4(C)C(CCC42C)CC13

>  <smiles>  (63) 
[H]OC1([H])C([H])([H])C23C([H])=C([H])C4(C([H])([H])[H])C([H])(C([H])([H])C([H])([H])C42C([H])([H])[H])C([H])([H])C3([H])C1([H])C([H])([H])[H]

$$$$
24:0:1
     RDKit          3D

 41 44  0  0  1  0  0  0  0  0999 V2000
    8.0622   -6.5899    1.3749 C   0  0  0  0  0  0  0  0  0  0  0  0
    6.7737   -5.8140    1.6872 C   0  0  2  0  0  0  0  0  0  0  0  0
    5.5113   -6.7061    1.7478 C   0  0  1  0  0  0  0  0  0  0  0  0
    5.1488   -6.9359    3.0947 O   0  0  0  0  0  0  0  0  0  0  0  0
    4.3630   -5.9538    1.0262 C   0  0  0  0  0  0  0  0  0  0  0  0
    4.8949   -4.5292    0.8563 C   0  0  2  0  0  0  0  0  0  0  0  0
    4.7355   -3.6640    2.0895 C   0  0  0  0  0  0  0  0  0  0  0  0
    4.8284   -2.3721    1.7632 C   0  0  0  0  0  0  0  0  0  0  0  0
    4.9058   -2.2291    0.2613 C   0  0  1  0  0  0  0  0  0  0  0  0
    4.2728   -0.9232   -0.2254 C   0  0  0  0  0  0  0  0  0  0  0  0
    6.3795   -2.3955   -0.2414 C   0  0  2  0  0  0  0  0  0  0  0  0
    6.1650   -2.8924   -1.6922 C   0  0  0  0  0  0  0  0  0  0  0  0
    4.8751   -3.7385   -1.6660 C   0  0  0  0  0  0  0  0  0  0  0  0
    4.3121   -3.5718   -0.2478 C   0  0  1  0  0  0  0  0  0  0  0  0
    2.7706   -3.5692   -0.2353 C   0  0  0  0  0  0  0  0  0  0  0  0
    7.1901   -3.4642    0.5556 C   0  0  0  0  0  0  0  0  0  0  0  0
    6.3938   -4.7800    0.6343 C   0  0  1  0  0  0  0  0  0  0  0  0
    7.9975   -7.1184    0.4258 H   0  0  0  0  0  0  0  0  0  0  0  0
    8.2601   -7.3310    2.1505 H   0  0  0  0  0  0  0  0  0  0  0  0
    8.9247   -5.9244    1.3268 H   0  0  0  0  0  0  0  0  0  0  0  0
    6.8934   -5.2994    2.6372 H   0  0  0  0  0  0  0  0  0  0  0  0
    5.6853   -7.6637    1.2548 H   0  0  0  0  0  0  0  0  0  0  0  0
    4.4746   -7.5894    3.1065 H   0  0  0  0  0  0  0  0  0  0  0  0
    4.2180   -6.3854    0.0362 H   0  0  0  0  0  0  0  0  0  0  0  0
    3.4038   -6.0013    1.5413 H   0  0  0  0  0  0  0  0  0  0  0  0
    4.5899   -4.0545    3.0910 H   0  0  0  0  0  0  0  0  0  0  0  0
    4.7274   -1.5428    2.4561 H   0  0  0  0  0  0  0  0  0  0  0  0
    4.2130   -0.8504   -1.3040 H   0  0  0  0  0  0  0  0  0  0  0  0
    4.8526   -0.0667    0.1080 H   0  0  0  0  0  0  0  0  0  0  0  0
    3.2684   -0.7799    0.1500 H   0  0  0  0  0  0  0  0  0  0  0  0
    6.9182   -1.4419   -0.2353 H   0  0  0  0  0  0  0  0  0  0  0  0
    5.9871   -2.0370   -2.3483 H   0  0  0  0  0  0  0  0  0  0  0  0
    7.0128   -3.4511   -2.0945 H   0  0  0  0  0  0  0  0  0  0  0  0
    4.1671   -3.3486   -2.3971 H   0  0  0  0  0  0  0  0  0  0  0  0
    5.0266   -4.7872   -1.9226 H   0  0  0  0  0  0  0  0  0  0  0  0
    2.3636   -2.8150   -0.9068 H   0  0  0  0  0  0  0  0  0  0  0  0
    2.3671   -3.3581    0.7567 H   0  0  0  0  0  0  0  0  0  0  0  0
    2.3707   -4.5234   -0.5615 H   0  0  0  0  0  0  0  0  0  0  0  0
    8.1507   -3.6270    0.0552 H   0  0  0  0  0  0  0  0  0  0  0  0
    7.4028   -3.1004    1.5557 H   0  0  0  0  0  0  0  0  0  0  0  0
    6.5122   -5.2994   -0.3127 H   0  0  0  0  0  0  0  0  0  0  0  0
  1  2  1  0
  1 18  1  0
  1 19  1  0
  1 20  1  0
  2 17  1  0
  2  3  1  0
  2 21  1  1
  3  4  1  0
  3  5  1  0
  3 22  1  6
  4 23  1  0
  6  5  1  1
  5 24  1  0
  5 25  1  0
  6 14  1  0
  6 17  1  0
  6  7  1  0
  7  8  2  0
  7 26  1  0
  8  9  1  0
  8 27  1  0
  9 14  1  0
  9 10  1  6
  9 11  1  0
 10 28  1  0
 10 29  1  0
 10 30  1  0
 11 12  1  0
 11 16  1  0
 11 31  1  6
 12 13  1  0
 12 32  1  0
 12 33  1  0
 13 14  1  0
 13 34  1  0
 13 35  1  0
 14 15  1  6
 15 36  1  0
 15 37  1  0
 15 38  1  0
 16 17  1  0
 16 39  1  0
 16 40  1  0
 17 41  1  6
M  END
>  <i_m_ct_stereo_status>  (64) 
1

>  <s_m_source_file>  (64) 
/var/tmp/pbs.5076255.sched01/tmpmjg_sug8/0d5zvyqle.sdf

>  <i_m_source_file_index>  (64) 
31

>  <i_lp_mmshare_version>  (64) 
48012

>  <i_f3d_flags>  (64) 
0

>  <s_epik_input>  (64) 
W09IXVtDQEBIXShbQ0gyXTEpW0NAQEhdKFtDSDNdKVtDQEBIXTJbQ0gyXVtDQEBIXShbQ0gyXVtDSDJdMylbQ0BdKFtDSDNdKShbQ0hdPVtDSF00KVtDQEBdMyhbQ0BAXTEyNClbQ0gzXQ==

>  <s_epik_cmdline>  (64) 
J2VwaWtfcHl0aG9uJywgJy1waHQnLCAnMi4wJywgJy1waCcsICc3LjAnLCAnLXRuJywgJzgnLCAnLW1hJywgJzIwMCcsICctaW1hZScsICc8aW5maWxlLm1hZT4nLCAnLW9tYWUnLCAnPG91dGZpbGUubWFlPic=

>  <r_lp_tautomer_probability>  (64) 
1

>  <r_epik_Ionization_Penalty>  (64) 
1.8918e-06

>  <r_epik_Ionization_Penalty_Charging>  (64) 
0

>  <r_epik_Ionization_Penalty_Neutral>  (64) 
1.8918e-06

>  <r_epik_State_Penalty>  (64) 
-0

>  <r_epik_Charging_Adjusted_Penalty>  (64) 
0

>  <i_epik_Tot_Q>  (64) 
0

>  <i_epik_Tot_abs_Q>  (64) 
0

>  <s_lp_Force_Field>  (64) 
OPLS3e

>  <r_lp_Energy>  (64) 
52.0588

>  <b_lp_Chiralities_Consistent>  (64) 
1

>  <s_lp_Variant>  (64) 
24:0-1

>  <s_i_glide_gridfile>  (64) 
pfpi4k_grid

>  <i_i_glide_lignum>  (64) 
31

>  <i_i_glide_rotatable_bonds>  (64) 
1

>  <r_i_docking_score>  (64) 
-3.48865

>  <r_i_glide_ligand_efficiency>  (64) 
-0.205215

>  <r_i_glide_ligand_efficiency_sa>  (64) 
-0.527665

>  <r_i_glide_ligand_efficiency_ln>  (64) 
-0.910112

>  <r_i_glide_gscore>  (64) 
-3.48865

>  <r_i_glide_lipo>  (64) 
-0.614271

>  <r_i_glide_hbond>  (64) 
0

>  <r_i_glide_metal>  (64) 
-0

>  <r_i_glide_rewards>  (64) 
-1.82481

>  <r_i_glide_evdw>  (64) 
-20.5876

>  <r_i_glide_ecoul>  (64) 
-0.134602

>  <r_i_glide_erotb>  (64) 
0

>  <r_i_glide_esite>  (64) 
0

>  <r_i_glide_emodel>  (64) 
-24.7729

>  <r_i_glide_energy>  (64) 
-20.7222

>  <r_i_glide_einternal>  (64) 
0.332671

>  <r_i_glide_intrahb_reward>  (64) 
-0

>  <i_i_glide_confnum>  (64) 
1

>  <i_i_glide_posenum>  (64) 
29

>  <r_i_glide_eff_state_penalty>  (64) 
0

>  <ligand_id>  (64) 
24

>  <original_smiles>  (64) 
CC1C(O)CC23C=CC4(C)C(CCC42C)CC13

>  <smiles>  (64) 
[H]OC1([H])C([H])([H])C23C([H])=C([H])C4(C([H])([H])[H])C([H])(C([H])([H])C([H])([H])C42C([H])([H])[H])C([H])([H])C3([H])C1([H])C([H])([H])[H]

$$$$
24:0:2
     RDKit          3D

 41 44  0  0  1  0  0  0  0  0999 V2000
    7.8323   -4.8399    1.3885 C   0  0  0  0  0  0  0  0  0  0  0  0
    6.4317   -4.2021    1.3506 C   0  0  2  0  0  0  0  0  0  0  0  0
    5.2929   -5.1748    1.7428 C   0  0  1  0  0  0  0  0  0  0  0  0
    4.8717   -4.9457    3.0682 O   0  0  0  0  0  0  0  0  0  0  0  0
    4.1195   -4.9326    0.7586 C   0  0  0  0  0  0  0  0  0  0  0  0
    4.4653   -3.6194    0.0543 C   0  0  2  0  0  0  0  0  0  0  0  0
    4.1175   -2.3653    0.8377 C   0  0  0  0  0  0  0  0  0  0  0  0
    4.0607   -1.3269    0.0317 C   0  0  0  0  0  0  0  0  0  0  0  0
    4.2390   -1.7699   -1.4071 C   0  0  1  0  0  0  0  0  0  0  0  0
    3.5224   -0.8863   -2.4427 C   0  0  0  0  0  0  0  0  0  0  0  0
    5.7372   -1.9003   -1.7562 C   0  0  2  0  0  0  0  0  0  0  0  0
    5.6993   -2.9367   -2.8908 C   0  0  0  0  0  0  0  0  0  0  0  0
    4.5521   -3.8528   -2.5733 C   0  0  0  0  0  0  0  0  0  0  0  0
    3.8508   -3.2623   -1.3476 C   0  0  1  0  0  0  0  0  0  0  0  0
    2.3261   -3.4703   -1.3667 C   0  0  0  0  0  0  0  0  0  0  0  0
    6.6276   -2.4222   -0.5902 C   0  0  0  0  0  0  0  0  0  0  0  0
    6.0048   -3.7254   -0.0365 C   0  0  1  0  0  0  0  0  0  0  0  0
    7.9083   -5.6994    0.7221 H   0  0  0  0  0  0  0  0  0  0  0  0
    8.0616   -5.1799    2.3965 H   0  0  0  0  0  0  0  0  0  0  0  0
    8.6014   -4.1191    1.1077 H   0  0  0  0  0  0  0  0  0  0  0  0
    6.4238   -3.3386    2.0220 H   0  0  0  0  0  0  0  0  0  0  0  0
    5.6248   -6.2112    1.6625 H   0  0  0  0  0  0  0  0  0  0  0  0
    4.6438   -4.0336    3.1580 H   0  0  0  0  0  0  0  0  0  0  0  0
    4.1227   -5.7272    0.0111 H   0  0  0  0  0  0  0  0  0  0  0  0
    3.1311   -4.9352    1.2234 H   0  0  0  0  0  0  0  0  0  0  0  0
    3.8875   -2.3690    1.9026 H   0  0  0  0  0  0  0  0  0  0  0  0
    3.7380   -0.3302    0.3238 H   0  0  0  0  0  0  0  0  0  0  0  0
    3.5352   -1.2795   -3.4529 H   0  0  0  0  0  0  0  0  0  0  0  0
    3.9898    0.0957   -2.4716 H   0  0  0  0  0  0  0  0  0  0  0  0
    2.4896   -0.7290   -2.1855 H   0  0  0  0  0  0  0  0  0  0  0  0
    6.1383   -0.9649   -2.1290 H   0  0  0  0  0  0  0  0  0  0  0  0
    5.4075   -2.4572   -3.8248 H   0  0  0  0  0  0  0  0  0  0  0  0
    6.6258   -3.4847   -3.0514 H   0  0  0  0  0  0  0  0  0  0  0  0
    3.8578   -3.8866   -3.4141 H   0  0  0  0  0  0  0  0  0  0  0  0
    4.8831   -4.8829   -2.3863 H   0  0  0  0  0  0  0  0  0  0  0  0
    1.8705   -3.1077   -2.2847 H   0  0  0  0  0  0  0  0  0  0  0  0
    1.8339   -2.9867   -0.5287 H   0  0  0  0  0  0  0  0  0  0  0  0
    2.0774   -4.5224   -1.2869 H   0  0  0  0  0  0  0  0  0  0  0  0
    7.6342   -2.6294   -0.9585 H   0  0  0  0  0  0  0  0  0  0  0  0
    6.7309   -1.6639    0.1908 H   0  0  0  0  0  0  0  0  0  0  0  0
    6.2593   -4.5364   -0.7190 H   0  0  0  0  0  0  0  0  0  0  0  0
  1  2  1  0
  1 18  1  0
  1 19  1  0
  1 20  1  0
  2 17  1  0
  2  3  1  0
  2 21  1  1
  3  4  1  0
  3  5  1  0
  3 22  1  1
  4 23  1  0
  6  5  1  1
  5 24  1  0
  5 25  1  0
  6 14  1  0
  6 17  1  0
  6  7  1  0
  7  8  2  0
  7 26  1  0
  8  9  1  0
  8 27  1  0
  9 14  1  0
  9 10  1  6
  9 11  1  0
 10 28  1  0
 10 29  1  0
 10 30  1  0
 11 12  1  0
 11 16  1  0
 11 31  1  6
 12 13  1  0
 12 32  1  0
 12 33  1  0
 13 14  1  0
 13 34  1  0
 13 35  1  0
 14 15  1  1
 15 36  1  0
 15 37  1  0
 15 38  1  0
 16 17  1  0
 16 39  1  0
 16 40  1  0
 17 41  1  6
M  END
>  <i_m_ct_stereo_status>  (65) 
1

>  <s_m_source_file>  (65) 
/var/tmp/pbs.5076255.sched01/tmpmjg_sug8/0d5zvyqle.sdf

>  <i_m_source_file_index>  (65) 
31

>  <i_lp_mmshare_version>  (65) 
48012

>  <i_f3d_flags>  (65) 
0

>  <s_epik_input>  (65) 
W09IXVtDQEBIXShbQ0gyXTEpW0NAQEhdKFtDSDNdKVtDQEBIXTJbQ0gyXVtDQEBIXShbQ0gyXVtDSDJdMylbQ0BdKFtDSDNdKShbQ0hdPVtDSF00KVtDQEBdMyhbQ0BAXTEyNClbQ0gzXQ==

>  <s_epik_cmdline>  (65) 
J2VwaWtfcHl0aG9uJywgJy1waHQnLCAnMi4wJywgJy1waCcsICc3LjAnLCAnLXRuJywgJzgnLCAnLW1hJywgJzIwMCcsICctaW1hZScsICc8aW5maWxlLm1hZT4nLCAnLW9tYWUnLCAnPG91dGZpbGUubWFlPic=

>  <r_lp_tautomer_probability>  (65) 
1

>  <r_epik_Ionization_Penalty>  (65) 
1.8918e-06

>  <r_epik_Ionization_Penalty_Charging>  (65) 
0

>  <r_epik_Ionization_Penalty_Neutral>  (65) 
1.8918e-06

>  <r_epik_State_Penalty>  (65) 
-0

>  <r_epik_Charging_Adjusted_Penalty>  (65) 
0

>  <i_epik_Tot_Q>  (65) 
0

>  <i_epik_Tot_abs_Q>  (65) 
0

>  <s_lp_Force_Field>  (65) 
OPLS3e

>  <r_lp_Energy>  (65) 
52.0588

>  <b_lp_Chiralities_Consistent>  (65) 
1

>  <s_lp_Variant>  (65) 
24:0-1

>  <s_i_glide_gridfile>  (65) 
pfpi4k_grid

>  <i_i_glide_lignum>  (65) 
31

>  <i_i_glide_rotatable_bonds>  (65) 
1

>  <r_i_docking_score>  (65) 
-3.28433

>  <r_i_glide_ligand_efficiency>  (65) 
-0.193196

>  <r_i_glide_ligand_efficiency_sa>  (65) 
-0.496762

>  <r_i_glide_ligand_efficiency_ln>  (65) 
-0.85681

>  <r_i_glide_gscore>  (65) 
-3.28433

>  <r_i_glide_lipo>  (65) 
-0.564474

>  <r_i_glide_hbond>  (65) 
0

>  <r_i_glide_metal>  (65) 
-0

>  <r_i_glide_rewards>  (65) 
-1.82481

>  <r_i_glide_evdw>  (65) 
-17.4936

>  <r_i_glide_ecoul>  (65) 
-0.13581

>  <r_i_glide_erotb>  (65) 
0

>  <r_i_glide_esite>  (65) 
0

>  <r_i_glide_emodel>  (65) 
-21.438

>  <r_i_glide_energy>  (65) 
-17.6294

>  <r_i_glide_einternal>  (65) 
0.00289236

>  <r_i_glide_intrahb_reward>  (65) 
-0

>  <i_i_glide_confnum>  (65) 
1

>  <i_i_glide_posenum>  (65) 
5

>  <r_i_glide_eff_state_penalty>  (65) 
0

>  <ligand_id>  (65) 
24

>  <original_smiles>  (65) 
CC1C(O)CC23C=CC4(C)C(CCC42C)CC13

>  <smiles>  (65) 
[H]OC1([H])C([H])([H])C23C([H])=C([H])C4(C([H])([H])[H])C([H])(C([H])([H])C([H])([H])C42C([H])([H])[H])C([H])([H])C3([H])C1([H])C([H])([H])[H]

$$$$
25:0:0
     RDKit          3D

 65 70  0  0  1  0  0  0  0  0999 V2000
    2.6844    0.0835    1.3913 C   0  0  0  0  0  0  0  0  0  0  0  0
    1.7784   -0.4446    2.5200 C   0  0  0  0  0  0  0  0  0  0  0  0
    1.5392    0.5271    3.5890 N   0  0  0  0  0  0  0  0  0  0  0  0
    2.7030    0.7122    4.4610 C   0  0  0  0  0  0  0  0  0  0  0  0
    2.6907    2.0000    5.3310 C   0  0  0  0  0  0  0  0  0  0  0  0
    1.3162    2.9248    5.4439 C   0  0  2  0  0  0  0  0  0  0  0  0
    0.7467    1.7622    6.5740 C   0  0  0  0  0  0  0  0  0  0  0  0
    0.4314    0.2190    6.4474 C   0  0  1  0  0  0  0  0  0  0  0  0
    0.0420   -0.2017    7.7453 O   0  0  0  0  0  0  0  0  0  0  0  0
   -0.6853   -0.1874    5.5253 C   0  0  0  0  0  0  0  0  0  0  0  0
   -1.1687    0.5241    4.5066 C   0  0  0  0  0  0  0  0  0  0  0  0
   -0.7005    1.9075    4.0943 C   0  0  1  0  0  0  0  0  0  0  0  0
   -1.6438    2.2419    3.0578 O   0  0  0  0  0  0  0  0  0  0  0  0
   -2.4105    3.3196    3.2763 C   0  0  0  0  0  0  0  0  0  0  0  0
   -3.3364    3.6989    2.5756 O   0  0  0  0  0  0  0  0  0  0  0  0
   -1.8103    4.0347    4.4065 C   0  0  0  0  0  0  0  0  0  0  0  0
   -0.8720    4.8458    3.9776 C   0  0  0  0  0  0  0  0  0  0  0  0
    0.5230    4.2130    4.0391 C   0  0  1  0  0  0  0  0  0  0  0  0
    1.4640    5.1490    3.2903 C   0  0  1  0  0  0  0  0  0  0  0  0
    1.3884    6.5130    3.7431 O   0  0  0  0  0  0  0  0  0  0  0  0
    2.5833    4.3303    3.7417 C   0  0  0  0  0  0  0  0  0  0  0  0
    2.6366    4.6520    5.1181 C   0  0  0  0  0  0  0  0  0  0  0  0
    3.3480    5.6893    5.6658 O   0  0  0  0  0  0  0  0  0  0  0  0
    4.3109    6.3184    4.8294 C   0  0  0  0  0  0  0  0  0  0  0  0
    1.5426    4.0960    6.2052 C   0  0  2  0  0  0  0  0  0  0  0  0
    2.1880    4.0901    7.6137 C   0  0  0  0  0  0  0  0  0  0  0  0
   -0.1251    4.1635    6.3330 C   0  0  0  0  0  0  0  0  0  0  0  0
   -1.1998    3.0818    5.3614 C   0  0  2  0  0  0  0  0  0  0  0  0
   -2.2367    2.4755    6.1989 O   0  0  0  0  0  0  0  0  0  0  0  0
   -2.4657    2.7917    7.5838 C   0  0  0  0  0  0  0  0  0  0  0  0
    2.1747    2.9155    2.8477 C   0  0  0  0  0  0  0  0  0  0  0  0
    0.8525    1.7567    3.1807 C   0  0  1  0  0  0  0  0  0  0  0  0
    2.8747   -0.6882    0.6465 H   0  0  0  0  0  0  0  0  0  0  0  0
    3.6568    0.4221    1.7455 H   0  0  0  0  0  0  0  0  0  0  0  0
    2.2039    0.9168    0.8854 H   0  0  0  0  0  0  0  0  0  0  0  0
    0.8180   -0.7358    2.0951 H   0  0  0  0  0  0  0  0  0  0  0  0
    2.2005   -1.3550    2.9492 H   0  0  0  0  0  0  0  0  0  0  0  0
    2.8636   -0.1921    5.0505 H   0  0  0  0  0  0  0  0  0  0  0  0
    3.6199    0.7454    3.8729 H   0  0  0  0  0  0  0  0  0  0  0  0
    3.0742    1.6726    6.2963 H   0  0  0  0  0  0  0  0  0  0  0  0
    3.6096    2.5094    5.0524 H   0  0  0  0  0  0  0  0  0  0  0  0
    1.4578    1.7434    7.4004 H   0  0  0  0  0  0  0  0  0  0  0  0
   -0.1132    2.0526    7.1600 H   0  0  0  0  0  0  0  0  0  0  0  0
    1.2760   -0.4177    6.2300 H   0  0  0  0  0  0  0  0  0  0  0  0
    0.7866   -0.1310    8.3242 H   0  0  0  0  0  0  0  0  0  0  0  0
   -1.1183   -1.1647    5.7077 H   0  0  0  0  0  0  0  0  0  0  0  0
   -1.9721    0.0956    3.9254 H   0  0  0  0  0  0  0  0  0  0  0  0
   -1.0078    5.4301    3.0670 H   0  0  0  0  0  0  0  0  0  0  0  0
    0.1445    3.8430    3.0926 H   0  0  0  0  0  0  0  0  0  0  0  0
    1.4175    5.1549    2.1983 H   0  0  0  0  0  0  0  0  0  0  0  0
    0.9890    7.0462    3.0584 H   0  0  0  0  0  0  0  0  0  0  0  0
    4.8110    7.0892    5.4154 H   0  0  0  0  0  0  0  0  0  0  0  0
    3.8755    6.8113    3.9657 H   0  0  0  0  0  0  0  0  0  0  0  0
    5.0491    5.5984    4.4896 H   0  0  0  0  0  0  0  0  0  0  0  0
    1.5651    3.6418    8.3927 H   0  0  0  0  0  0  0  0  0  0  0  0
    2.3623    5.1120    7.9435 H   0  0  0  0  0  0  0  0  0  0  0  0
    3.1465    3.5837    7.6163 H   0  0  0  0  0  0  0  0  0  0  0  0
   -0.2827    4.0536    7.4039 H   0  0  0  0  0  0  0  0  0  0  0  0
   -0.4454    5.2083    6.2765 H   0  0  0  0  0  0  0  0  0  0  0  0
   -3.3666    2.2580    7.9199 H   0  0  0  0  0  0  0  0  0  0  0  0
   -2.6216    3.8469    7.7728 H   0  0  0  0  0  0  0  0  0  0  0  0
   -1.7127    2.4204    8.2704 H   0  0  0  0  0  0  0  0  0  0  0  0
    1.9914    3.2226    1.8189 H   0  0  0  0  0  0  0  0  0  0  0  0
    3.1160    2.4132    2.7401 H   0  0  0  0  0  0  0  0  0  0  0  0
    0.4602    1.5243    2.1885 H   0  0  0  0  0  0  0  0  0  0  0  0
  1  2  1  0
  1 33  1  0
  1 34  1  0
  1 35  1  0
  2  3  1  0
  2 36  1  0
  2 37  1  0
  3 32  1  0
  3  4  1  0
  4  5  1  0
  4 38  1  0
  4 39  1  0
  5  6  1  0
  5 40  1  0
  5 41  1  0
  6 18  1  0
  6 25  1  0
  6  7  1  1
  7  8  1  0
  7 42  1  0
  7 43  1  0
  8  9  1  0
  8 10  1  0
  8 44  1  6
  9 45  1  0
 10 11  2  3
 10 46  1  0
 11 12  1  0
 11 47  1  0
 12 28  1  0
 12 32  1  0
 12 13  1  6
 13 14  1  0
 14 15  2  0
 14 16  1  0
 16 28  1  0
 16 17  2  0
 17 18  1  0
 17 48  1  0
 18 19  1  0
 18 49  1  6
 19 20  1  0
 19 21  1  0
 19 50  1  6
 20 51  1  0
 21 22  2  0
 21 31  1  0
 22 23  1  0
 22 25  1  0
 23 24  1  0
 24 52  1  0
 24 53  1  0
 24 54  1  0
 25 26  1  1
 25 27  1  0
 26 55  1  0
 26 56  1  0
 26 57  1  0
 27 28  1  0
 27 58  1  0
 27 59  1  0
 28 29  1  1
 29 30  1  0
 30 60  1  0
 30 61  1  0
 30 62  1  0
 31 32  1  0
 31 63  1  0
 31 64  1  0
 32 65  1  6
M  END
>  <i_m_ct_stereo_status>  (66) 
1

>  <s_m_source_file>  (66) 
/var/tmp/pbs.5076255.sched01/tmpmjg_sug8/0d5zvyqle.sdf

>  <i_m_source_file_index>  (66) 
32

>  <i_lp_mmshare_version>  (66) 
48012

>  <i_f3d_flags>  (66) 
1

>  <s_epik_input>  (66) 
W0NIM11PQyhbQ0BAXTEoW0NIM10pW0NIMl0yKT1DKFtDQEBIXTNbT0hdKVtDSDJdW0NAQEhdKE4oW0NIMl1bQ0gzXSlbQ0gyXVtDSDJdNClbQ0BAXShPQzU9TykoL1tDSF09W0NIXVxbQ0BASF0oW0NIMl02KVtPSF0pW0NAXTIoT1tDSDNdKUM1PVtDSF1bQ0BASF0zW0NAXTE0Ng==

>  <s_epik_cmdline>  (66) 
J2VwaWtfcHl0aG9uJywgJy1waHQnLCAnMi4wJywgJy1waCcsICc3LjAnLCAnLXRuJywgJzgnLCAnLW1hJywgJzIwMCcsICctaW1hZScsICc8aW5maWxlLm1hZT4nLCAnLW9tYWUnLCAnPG91dGZpbGUubWFlPic=

>  <r_epik_Ionization_Penalty>  (66) 
0.0502442

>  <r_epik_Ionization_Penalty_Charging>  (66) 
0

>  <r_epik_Ionization_Penalty_Neutral>  (66) 
0.0502442

>  <r_epik_State_Penalty>  (66) 
0.0429359

>  <r_epik_Charging_Adjusted_Penalty>  (66) 
0.0429359

>  <i_epik_Tot_Q>  (66) 
0

>  <i_epik_Tot_abs_Q>  (66) 
0

>  <s_epik_Chemistry_Notes>  (66) 
This compound has an ester and may undergo hydrolysis at high or low pH.

>  <s_lp_Force_Field>  (66) 
OPLS3e

>  <r_lp_Energy>  (66) 
732.939

>  <b_lp_Chiralities_Consistent>  (66) 
1

>  <s_lp_Variant>  (66) 
25:0-1

>  <s_i_glide_gridfile>  (66) 
pfpi4k_grid

>  <i_i_glide_lignum>  (66) 
32

>  <i_i_glide_rotatable_bonds>  (66) 
5

>  <r_i_docking_score>  (66) 
-2.82742

>  <r_i_glide_ligand_efficiency>  (66) 
-0.0883568

>  <r_i_glide_ligand_efficiency_sa>  (66) 
-0.280515

>  <r_i_glide_ligand_efficiency_ln>  (66) 
-0.633136

>  <r_i_glide_gscore>  (66) 
-2.82742

>  <r_i_glide_lipo>  (66) 
-0.124876

>  <r_i_glide_hbond>  (66) 
0

>  <r_i_glide_metal>  (66) 
-0

>  <r_i_glide_rewards>  (66) 
-0.385005

>  <r_i_glide_evdw>  (66) 
-25.9922

>  <r_i_glide_ecoul>  (66) 
-6.40489

>  <r_i_glide_erotb>  (66) 
0

>  <r_i_glide_esite>  (66) 
-0.0571938

>  <r_i_glide_emodel>  (66) 
-31.143

>  <r_i_glide_energy>  (66) 
-32.3971

>  <r_i_glide_einternal>  (66) 
10.4365

>  <r_i_glide_intrahb_reward>  (66) 
-0

>  <i_i_glide_confnum>  (66) 
1

>  <i_i_glide_posenum>  (66) 
12

>  <r_i_glide_eff_state_penalty>  (66) 
0

>  <ligand_id>  (66) 
25

>  <original_smiles>  (66) 
CCN1CCC23CC(O)C=CC45OC(=O)C6=CC2C(O)C(=C(OC)C3(C)CC64OC)CC15

>  <smiles>  (66) 
[H]OC1([H])C([H])=C([H])C23OC(=O)C4=C([H])C5([H])C([H])(O[H])C6=C(OC([H])([H])[H])C(C([H])([H])[H])(C([H])([H])C42OC([H])([H])[H])C5(C1([H])[H])C([H])([H])C([H])([H])N(C([H])([H])C([H])([H])[H])C3([H])C6([H])[H]

$$$$
25:0:1
     RDKit          3D

 65 70  0  0  1  0  0  0  0  0999 V2000
    2.1855   -1.7736    2.5404 C   0  0  0  0  0  0  0  0  0  0  0  0
    1.8262   -0.3318    2.1413 C   0  0  0  0  0  0  0  0  0  0  0  0
    1.6189    0.5443    3.2994 N   0  0  0  0  0  0  0  0  0  0  0  0
    2.8162    0.7129    4.1199 C   0  0  0  0  0  0  0  0  0  0  0  0
    2.8040    1.9507    5.0734 C   0  0  0  0  0  0  0  0  0  0  0  0
    1.4025    2.8645    5.2733 C   0  0  2  0  0  0  0  0  0  0  0  0
    0.8889    1.6416    6.3840 C   0  0  0  0  0  0  0  0  0  0  0  0
    0.6338    0.0883    6.1352 C   0  0  1  0  0  0  0  0  0  0  0  0
    0.3514   -0.5081    7.4118 O   0  0  0  0  0  0  0  0  0  0  0  0
   -0.5155   -0.3078    5.2182 C   0  0  0  0  0  0  0  0  0  0  0  0
   -1.0404    0.4687    4.2604 C   0  0  0  0  0  0  0  0  0  0  0  0
   -0.6243    1.8769    3.9131 C   0  0  1  0  0  0  0  0  0  0  0  0
   -1.6225    2.2473    2.9316 O   0  0  0  0  0  0  0  0  0  0  0  0
   -2.3564    3.3344    3.1996 C   0  0  0  0  0  0  0  0  0  0  0  0
   -3.2974    3.7725    2.5174 O   0  0  0  0  0  0  0  0  0  0  0  0
   -1.7441    3.9844    4.3304 C   0  0  0  0  0  0  0  0  0  0  0  0
   -0.8197    4.8534    3.9330 C   0  0  0  0  0  0  0  0  0  0  0  0
    0.5885    4.2143    3.9563 C   0  0  1  0  0  0  0  0  0  0  0  0
    1.5049    5.1981    3.2238 C   0  0  1  0  0  0  0  0  0  0  0  0
    1.4424    6.5445    3.7259 O   0  0  0  0  0  0  0  0  0  0  0  0
    2.6385    4.3625    3.6076 C   0  0  0  0  0  0  0  0  0  0  0  0
    2.6836    4.6044    5.0114 C   0  0  0  0  0  0  0  0  0  0  0  0
    3.4140    5.6537    5.5916 O   0  0  0  0  0  0  0  0  0  0  0  0
    4.2899    6.3752    4.7464 C   0  0  0  0  0  0  0  0  0  0  0  0
    1.6361    4.0034    6.0987 C   0  0  2  0  0  0  0  0  0  0  0  0
    2.3369    3.9294    7.4847 C   0  0  0  0  0  0  0  0  0  0  0  0
   -0.0711    4.0208    6.2478 C   0  0  0  0  0  0  0  0  0  0  0  0
   -1.1104    2.9906    5.2238 C   0  0  2  0  0  0  0  0  0  0  0  0
   -2.2185    2.4652    6.0330 O   0  0  0  0  0  0  0  0  0  0  0  0
   -1.9886    1.6903    7.2246 C   0  0  0  0  0  0  0  0  0  0  0  0
    2.2195    2.9819    2.6671 C   0  0  0  0  0  0  0  0  0  0  0  0
    0.9271    1.8048    2.9695 C   0  0  1  0  0  0  0  0  0  0  0  0
    2.2156   -2.4119    1.6571 H   0  0  0  0  0  0  0  0  0  0  0  0
    1.4477   -2.1955    3.2217 H   0  0  0  0  0  0  0  0  0  0  0  0
    3.1640   -1.8379    3.0140 H   0  0  0  0  0  0  0  0  0  0  0  0
    2.5898    0.0883    1.4880 H   0  0  0  0  0  0  0  0  0  0  0  0
    0.9043   -0.3765    1.5604 H   0  0  0  0  0  0  0  0  0  0  0  0
    3.0323   -0.2008    4.6700 H   0  0  0  0  0  0  0  0  0  0  0  0
    3.6895    0.7843    3.4771 H   0  0  0  0  0  0  0  0  0  0  0  0
    3.2193    1.5877    6.0132 H   0  0  0  0  0  0  0  0  0  0  0  0
    3.7077    2.4864    4.7871 H   0  0  0  0  0  0  0  0  0  0  0  0
    1.6508    1.5625    7.1448 H   0  0  0  0  0  0  0  0  0  0  0  0
    0.1829    1.9123    7.0905 H   0  0  0  0  0  0  0  0  0  0  0  0
    1.4908   -0.4920    5.8561 H   0  0  0  0  0  0  0  0  0  0  0  0
    1.0584   -0.3833    7.9819 H   0  0  0  0  0  0  0  0  0  0  0  0
   -0.9172   -1.2953    5.3371 H   0  0  0  0  0  0  0  0  0  0  0  0
   -1.8586    0.0534    3.6866 H   0  0  0  0  0  0  0  0  0  0  0  0
   -1.0252    5.4814    3.0767 H   0  0  0  0  0  0  0  0  0  0  0  0
    0.2024    3.8848    2.9786 H   0  0  0  0  0  0  0  0  0  0  0  0
    1.4100    5.2909    2.1402 H   0  0  0  0  0  0  0  0  0  0  0  0
    1.0090    7.0973    3.0905 H   0  0  0  0  0  0  0  0  0  0  0  0
    4.8099    7.1253    5.3443 H   0  0  0  0  0  0  0  0  0  0  0  0
    3.7809    6.9287    3.9546 H   0  0  0  0  0  0  0  0  0  0  0  0
    5.0258    5.7085    4.2864 H   0  0  0  0  0  0  0  0  0  0  0  0
    1.7626    3.4312    8.2632 H   0  0  0  0  0  0  0  0  0  0  0  0
    2.5320    4.9311    7.8695 H   0  0  0  0  0  0  0  0  0  0  0  0
    3.3087    3.4363    7.4217 H   0  0  0  0  0  0  0  0  0  0  0  0
   -0.3100    3.8551    7.2945 H   0  0  0  0  0  0  0  0  0  0  0  0
   -0.3936    5.0665    6.2769 H   0  0  0  0  0  0  0  0  0  0  0  0
   -2.8632    1.2724    7.6688 H   0  0  0  0  0  0  0  0  0  0  0  0
   -1.4388    2.2588    8.0145 H   0  0  0  0  0  0  0  0  0  0  0  0
   -1.4154    0.8239    6.9917 H   0  0  0  0  0  0  0  0  0  0  0  0
    2.0080    3.3459    1.6544 H   0  0  0  0  0  0  0  0  0  0  0  0
    3.1598    2.4836    2.4339 H   0  0  0  0  0  0  0  0  0  0  0  0
    0.5310    1.6532    1.9611 H   0  0  0  0  0  0  0  0  0  0  0  0
  1  2  1  0
  1 33  1  0
  1 34  1  0
  1 35  1  0
  2  3  1  0
  2 36  1  0
  2 37  1  0
  3 32  1  0
  3  4  1  0
  4  5  1  0
  4 38  1  0
  4 39  1  0
  5  6  1  0
  5 40  1  0
  5 41  1  0
  6 18  1  0
  6 25  1  0
  6  7  1  1
  7  8  1  0
  7 42  1  0
  7 43  1  0
  8  9  1  0
  8 10  1  0
  8 44  1  6
  9 45  1  0
 10 11  2  3
 10 46  1  0
 11 12  1  0
 11 47  1  0
 12 28  1  0
 12 32  1  0
 12 13  1  6
 13 14  1  0
 14 15  2  0
 14 16  1  0
 16 28  1  0
 16 17  2  0
 17 18  1  0
 17 48  1  0
 18 19  1  0
 18 49  1  6
 19 20  1  0
 19 21  1  0
 19 50  1  6
 20 51  1  0
 21 22  2  0
 21 31  1  0
 22 23  1  0
 22 25  1  0
 23 24  1  0
 24 52  1  0
 24 53  1  0
 24 54  1  0
 25 26  1  1
 25 27  1  0
 26 55  1  0
 26 56  1  0
 26 57  1  0
 27 28  1  0
 27 58  1  0
 27 59  1  0
 28 29  1  1
 29 30  1  0
 30 60  1  0
 30 61  1  0
 30 62  1  0
 31 32  1  0
 31 63  1  0
 31 64  1  0
 32 65  1  6
M  END
>  <i_m_ct_stereo_status>  (67) 
1

>  <s_m_source_file>  (67) 
/var/tmp/pbs.5076255.sched01/tmpmjg_sug8/0d5zvyqle.sdf

>  <i_m_source_file_index>  (67) 
32

>  <i_lp_mmshare_version>  (67) 
48012

>  <i_f3d_flags>  (67) 
1

>  <s_epik_input>  (67) 
W0NIM11PQyhbQ0BAXTEoW0NIM10pW0NIMl0yKT1DKFtDQEBIXTNbT0hdKVtDSDJdW0NAQEhdKE4oW0NIMl1bQ0gzXSlbQ0gyXVtDSDJdNClbQ0BAXShPQzU9TykoL1tDSF09W0NIXVxbQ0BASF0oW0NIMl02KVtPSF0pW0NAXTIoT1tDSDNdKUM1PVtDSF1bQ0BASF0zW0NAXTE0Ng==

>  <s_epik_cmdline>  (67) 
J2VwaWtfcHl0aG9uJywgJy1waHQnLCAnMi4wJywgJy1waCcsICc3LjAnLCAnLXRuJywgJzgnLCAnLW1hJywgJzIwMCcsICctaW1hZScsICc8aW5maWxlLm1hZT4nLCAnLW9tYWUnLCAnPG91dGZpbGUubWFlPic=

>  <r_epik_Ionization_Penalty>  (67) 
0.0502442

>  <r_epik_Ionization_Penalty_Charging>  (67) 
0

>  <r_epik_Ionization_Penalty_Neutral>  (67) 
0.0502442

>  <r_epik_State_Penalty>  (67) 
0.0429359

>  <r_epik_Charging_Adjusted_Penalty>  (67) 
0.0429359

>  <i_epik_Tot_Q>  (67) 
0

>  <i_epik_Tot_abs_Q>  (67) 
0

>  <s_epik_Chemistry_Notes>  (67) 
This compound has an ester and may undergo hydrolysis at high or low pH.

>  <s_lp_Force_Field>  (67) 
OPLS3e

>  <r_lp_Energy>  (67) 
732.939

>  <b_lp_Chiralities_Consistent>  (67) 
1

>  <s_lp_Variant>  (67) 
25:0-1

>  <s_i_glide_gridfile>  (67) 
pfpi4k_grid

>  <i_i_glide_lignum>  (67) 
32

>  <i_i_glide_rotatable_bonds>  (67) 
5

>  <r_i_docking_score>  (67) 
-2.59303

>  <r_i_glide_ligand_efficiency>  (67) 
-0.081032

>  <r_i_glide_ligand_efficiency_sa>  (67) 
-0.257261

>  <r_i_glide_ligand_efficiency_ln>  (67) 
-0.580649

>  <r_i_glide_gscore>  (67) 
-2.59303

>  <r_i_glide_lipo>  (67) 
-0.0158914

>  <r_i_glide_hbond>  (67) 
0

>  <r_i_glide_metal>  (67) 
-0

>  <r_i_glide_rewards>  (67) 
-0.385005

>  <r_i_glide_evdw>  (67) 
-25.4943

>  <r_i_glide_ecoul>  (67) 
-5.90479

>  <r_i_glide_erotb>  (67) 
0

>  <r_i_glide_esite>  (67) 
-0.0584886

>  <r_i_glide_emodel>  (67) 
-31.2309

>  <r_i_glide_energy>  (67) 
-31.3991

>  <r_i_glide_einternal>  (67) 
4.63813

>  <r_i_glide_intrahb_reward>  (67) 
-0

>  <i_i_glide_confnum>  (67) 
2

>  <i_i_glide_posenum>  (67) 
8

>  <r_i_glide_eff_state_penalty>  (67) 
0

>  <ligand_id>  (67) 
25

>  <original_smiles>  (67) 
CCN1CCC23CC(O)C=CC45OC(=O)C6=CC2C(O)C(=C(OC)C3(C)CC64OC)CC15

>  <smiles>  (67) 
[H]OC1([H])C([H])=C([H])C23OC(=O)C4=C([H])C5([H])C([H])(O[H])C6=C(OC([H])([H])[H])C(C([H])([H])[H])(C([H])([H])C42OC([H])([H])[H])C5(C1([H])[H])C([H])([H])C([H])([H])N(C([H])([H])C([H])([H])[H])C3([H])C6([H])[H]

$$$$
25:0:2
     RDKit          3D

 65 70  0  0  1  0  0  0  0  0999 V2000
   -3.0501    3.9048    2.9069 C   0  0  0  0  0  0  0  0  0  0  0  0
   -3.3228    2.9743    4.0963 C   0  0  0  0  0  0  0  0  0  0  0  0
   -2.1632    2.8359    4.9850 N   0  0  0  0  0  0  0  0  0  0  0  0
   -2.5247    2.6698    6.3926 C   0  0  0  0  0  0  0  0  0  0  0  0
   -1.4060    2.0778    7.3049 C   0  0  0  0  0  0  0  0  0  0  0  0
    0.1571    1.8590    6.7384 C   0  0  2  0  0  0  0  0  0  0  0  0
    0.4072    3.5479    7.0255 C   0  0  0  0  0  0  0  0  0  0  0  0
   -0.3237    4.8039    6.4641 C   0  0  1  0  0  0  0  0  0  0  0  0
    0.1626    5.9303    7.1671 O   0  0  0  0  0  0  0  0  0  0  0  0
   -0.1592    5.0880    4.9951 C   0  0  0  0  0  0  0  0  0  0  0  0
    0.1451    4.1942    4.0509 C   0  0  0  0  0  0  0  0  0  0  0  0
    0.4052    2.7137    4.2688 C   0  0  1  0  0  0  0  0  0  0  0  0
    0.8191    2.2663    2.9578 O   0  0  0  0  0  0  0  0  0  0  0  0
    2.0449    1.7261    2.8581 C   0  0  0  0  0  0  0  0  0  0  0  0
    2.5912    1.3515    1.8244 O   0  0  0  0  0  0  0  0  0  0  0  0
    2.5287    1.5022    4.2177 C   0  0  0  0  0  0  0  0  0  0  0  0
    2.1619    0.3148    4.6564 C   0  0  0  0  0  0  0  0  0  0  0  0
    0.8309    0.3946    5.4364 C   0  0  1  0  0  0  0  0  0  0  0  0
    0.2771   -1.0291    5.5573 C   0  0  1  0  0  0  0  0  0  0  0  0
    1.1290   -2.0346    6.0734 O   0  0  0  0  0  0  0  0  0  0  0  0
   -0.7193   -0.5164    6.4757 C   0  0  0  0  0  0  0  0  0  0  0  0
    0.0753   -0.1573    7.6099 C   0  0  0  0  0  0  0  0  0  0  0  0
    0.3595   -1.1030    8.5962 O   0  0  0  0  0  0  0  0  0  0  0  0
    1.7325   -1.3916    8.9080 C   0  0  0  0  0  0  0  0  0  0  0  0
    0.9756    1.2056    7.7129 C   0  0  2  0  0  0  0  0  0  0  0  0
    1.0169    1.7248    9.2043 C   0  0  0  0  0  0  0  0  0  0  0  0
    2.2382    1.8085    6.7597 C   0  0  0  0  0  0  0  0  0  0  0  0
    1.9558    2.5143    5.1290 C   0  0  2  0  0  0  0  0  0  0  0  0
    2.6969    3.7439    5.0440 O   0  0  0  0  0  0  0  0  0  0  0  0
    4.1095    3.6750    5.1889 C   0  0  0  0  0  0  0  0  0  0  0  0
   -1.5870    0.3349    5.2730 C   0  0  0  0  0  0  0  0  0  0  0  0
   -1.1638    1.8704    4.5051 C   0  0  1  0  0  0  0  0  0  0  0  0
   -3.9053    3.8938    2.2303 H   0  0  0  0  0  0  0  0  0  0  0  0
   -2.1771    3.5875    2.3384 H   0  0  0  0  0  0  0  0  0  0  0  0
   -2.8937    4.9278    3.2339 H   0  0  0  0  0  0  0  0  0  0  0  0
   -4.1848    3.3319    4.6591 H   0  0  0  0  0  0  0  0  0  0  0  0
   -3.6133    2.0178    3.6789 H   0  0  0  0  0  0  0  0  0  0  0  0
   -2.9244    3.6000    6.7874 H   0  0  0  0  0  0  0  0  0  0  0  0
   -3.3841    2.0243    6.4780 H   0  0  0  0  0  0  0  0  0  0  0  0
   -1.4501    2.6743    8.2117 H   0  0  0  0  0  0  0  0  0  0  0  0
   -1.8775    1.2057    7.7510 H   0  0  0  0  0  0  0  0  0  0  0  0
    0.2220    3.7292    8.0777 H   0  0  0  0  0  0  0  0  0  0  0  0
    1.4183    3.9347    7.0197 H   0  0  0  0  0  0  0  0  0  0  0  0
   -1.3722    4.8400    6.7161 H   0  0  0  0  0  0  0  0  0  0  0  0
    1.0966    5.9900    7.0333 H   0  0  0  0  0  0  0  0  0  0  0  0
   -0.3336    6.1110    4.6890 H   0  0  0  0  0  0  0  0  0  0  0  0
    0.2016    4.5434    3.0295 H   0  0  0  0  0  0  0  0  0  0  0  0
    2.2107   -0.5301    3.9868 H   0  0  0  0  0  0  0  0  0  0  0  0
    0.4796    0.4004    4.3994 H   0  0  0  0  0  0  0  0  0  0  0  0
   -0.1409   -1.4525    4.6303 H   0  0  0  0  0  0  0  0  0  0  0  0
    1.9514   -1.9565    5.6218 H   0  0  0  0  0  0  0  0  0  0  0  0
    1.7342   -2.0648    9.7749 H   0  0  0  0  0  0  0  0  0  0  0  0
    2.3451   -0.5221    9.1491 H   0  0  0  0  0  0  0  0  0  0  0  0
    2.2058   -1.9160    8.0798 H   0  0  0  0  0  0  0  0  0  0  0  0
    1.5056    2.6904    9.3076 H   0  0  0  0  0  0  0  0  0  0  0  0
    1.5635    1.0676    9.8623 H   0  0  0  0  0  0  0  0  0  0  0  0
    0.0151    1.7978    9.6257 H   0  0  0  0  0  0  0  0  0  0  0  0
    2.7800    2.5266    7.3695 H   0  0  0  0  0  0  0  0  0  0  0  0
    3.0182    1.0465    6.7652 H   0  0  0  0  0  0  0  0  0  0  0  0
    4.5199    4.6798    5.0977 H   0  0  0  0  0  0  0  0  0  0  0  0
    4.5636    3.0756    4.4070 H   0  0  0  0  0  0  0  0  0  0  0  0
    4.4450    3.2656    6.1409 H   0  0  0  0  0  0  0  0  0  0  0  0
   -1.7706   -0.3341    4.4326 H   0  0  0  0  0  0  0  0  0  0  0  0
   -2.5896    0.3273    5.6640 H   0  0  0  0  0  0  0  0  0  0  0  0
   -1.4545    1.6925    3.4659 H   0  0  0  0  0  0  0  0  0  0  0  0
  1  2  1  0
  1 33  1  0
  1 34  1  0
  1 35  1  0
  2  3  1  0
  2 36  1  0
  2 37  1  0
  3 32  1  0
  3  4  1  0
  4  5  1  0
  4 38  1  0
  4 39  1  0
  5  6  1  0
  5 40  1  0
  5 41  1  0
  6 18  1  0
  6 25  1  0
  6  7  1  6
  7  8  1  0
  7 42  1  0
  7 43  1  0
  8  9  1  0
  8 10  1  0
  8 44  1  6
  9 45  1  0
 10 11  2  3
 10 46  1  0
 11 12  1  0
 11 47  1  0
 12 28  1  0
 12 32  1  0
 12 13  1  6
 13 14  1  0
 14 15  2  0
 14 16  1  0
 16 28  1  0
 16 17  2  0
 17 18  1  0
 17 48  1  0
 18 19  1  0
 18 49  1  6
 19 20  1  0
 19 21  1  0
 19 50  1  6
 20 51  1  0
 21 22  2  0
 21 31  1  0
 22 23  1  0
 22 25  1  0
 23 24  1  0
 24 52  1  0
 24 53  1  0
 24 54  1  0
 25 26  1  1
 25 27  1  0
 26 55  1  0
 26 56  1  0
 26 57  1  0
 27 28  1  0
 27 58  1  0
 27 59  1  0
 28 29  1  1
 29 30  1  0
 30 60  1  0
 30 61  1  0
 30 62  1  0
 31 32  1  0
 31 63  1  0
 31 64  1  0
 32 65  1  6
M  END
>  <i_m_ct_stereo_status>  (68) 
1

>  <s_m_source_file>  (68) 
/var/tmp/pbs.5076255.sched01/tmpmjg_sug8/0d5zvyqle.sdf

>  <i_m_source_file_index>  (68) 
32

>  <i_lp_mmshare_version>  (68) 
48012

>  <i_f3d_flags>  (68) 
1

>  <s_epik_input>  (68) 
W0NIM11PQyhbQ0BAXTEoW0NIM10pW0NIMl0yKT1DKFtDQEBIXTNbT0hdKVtDSDJdW0NAQEhdKE4oW0NIMl1bQ0gzXSlbQ0gyXVtDSDJdNClbQ0BAXShPQzU9TykoL1tDSF09W0NIXVxbQ0BASF0oW0NIMl02KVtPSF0pW0NAXTIoT1tDSDNdKUM1PVtDSF1bQ0BASF0zW0NAXTE0Ng==

>  <s_epik_cmdline>  (68) 
J2VwaWtfcHl0aG9uJywgJy1waHQnLCAnMi4wJywgJy1waCcsICc3LjAnLCAnLXRuJywgJzgnLCAnLW1hJywgJzIwMCcsICctaW1hZScsICc8aW5maWxlLm1hZT4nLCAnLW9tYWUnLCAnPG91dGZpbGUubWFlPic=

>  <r_epik_Ionization_Penalty>  (68) 
0.0502442

>  <r_epik_Ionization_Penalty_Charging>  (68) 
0

>  <r_epik_Ionization_Penalty_Neutral>  (68) 
0.0502442

>  <r_epik_State_Penalty>  (68) 
0.0429359

>  <r_epik_Charging_Adjusted_Penalty>  (68) 
0.0429359

>  <i_epik_Tot_Q>  (68) 
0

>  <i_epik_Tot_abs_Q>  (68) 
0

>  <s_epik_Chemistry_Notes>  (68) 
This compound has an ester and may undergo hydrolysis at high or low pH.

>  <s_lp_Force_Field>  (68) 
OPLS3e

>  <r_lp_Energy>  (68) 
732.939

>  <b_lp_Chiralities_Consistent>  (68) 
1

>  <s_lp_Variant>  (68) 
25:0-1

>  <s_i_glide_gridfile>  (68) 
pfpi4k_grid

>  <i_i_glide_lignum>  (68) 
32

>  <i_i_glide_rotatable_bonds>  (68) 
5

>  <r_i_docking_score>  (68) 
-1.68289

>  <r_i_glide_ligand_efficiency>  (68) 
-0.0525905

>  <r_i_glide_ligand_efficiency_sa>  (68) 
-0.166964

>  <r_i_glide_ligand_efficiency_ln>  (68) 
-0.376846

>  <r_i_glide_gscore>  (68) 
-1.68289

>  <r_i_glide_lipo>  (68) 
-0.162116

>  <r_i_glide_hbond>  (68) 
-0.0169992

>  <r_i_glide_metal>  (68) 
-0

>  <r_i_glide_rewards>  (68) 
-0.402027

>  <r_i_glide_evdw>  (68) 
-17.6772

>  <r_i_glide_ecoul>  (68) 
-1.45261

>  <r_i_glide_erotb>  (68) 
0

>  <r_i_glide_esite>  (68) 
0

>  <r_i_glide_emodel>  (68) 
-15.0068

>  <r_i_glide_energy>  (68) 
-19.1298

>  <r_i_glide_einternal>  (68) 
14.301

>  <r_i_glide_intrahb_reward>  (68) 
-0

>  <i_i_glide_confnum>  (68) 
1

>  <i_i_glide_posenum>  (68) 
14

>  <r_i_glide_eff_state_penalty>  (68) 
0

>  <ligand_id>  (68) 
25

>  <original_smiles>  (68) 
CCN1CCC23CC(O)C=CC45OC(=O)C6=CC2C(O)C(=C(OC)C3(C)CC64OC)CC15

>  <smiles>  (68) 
[H]OC1([H])C([H])=C([H])C23OC(=O)C4=C([H])C5([H])C([H])(O[H])C6=C(OC([H])([H])[H])C(C([H])([H])[H])(C([H])([H])C42OC([H])([H])[H])C5(C1([H])[H])C([H])([H])C([H])([H])N(C([H])([H])C([H])([H])[H])C3([H])C6([H])[H]

$$$$
25:1:0
     RDKit          3D

 65 70  0  0  1  0  0  0  0  0999 V2000
    3.7518   -2.0631   -3.0798 C   0  0  0  0  0  0  0  0  0  0  0  0
    3.5129   -3.5089   -2.6435 C   0  0  0  0  0  0  0  0  0  0  0  0
    3.6891   -3.6775   -1.2020 N   0  0  0  0  0  0  0  0  0  0  0  0
    2.4195   -3.2672   -0.4261 C   0  0  0  0  0  0  0  0  0  0  0  0
    2.0711   -3.4155    1.2215 C   0  0  0  0  0  0  0  0  0  0  0  0
    3.3170   -3.2342    2.3198 C   0  0  2  0  0  0  0  0  0  0  0  0
    3.1044   -1.6170    2.5460 C   0  0  0  0  0  0  0  0  0  0  0  0
    2.9879   -0.5882    1.3537 C   0  0  1  0  0  0  0  0  0  0  0  0
    2.5325    0.6549    1.8686 O   0  0  0  0  0  0  0  0  0  0  0  0
    4.2832   -0.3480    0.6334 C   0  0  0  0  0  0  0  0  0  0  0  0
    4.9430   -1.1167   -0.2551 C   0  0  0  0  0  0  0  0  0  0  0  0
    5.7630   -2.3431    0.0917 C   0  0  1  0  0  0  0  0  0  0  0  0
    7.1363   -2.3150   -0.3706 O   0  0  0  0  0  0  0  0  0  0  0  0
    7.8592   -2.9577    0.4947 C   0  0  0  0  0  0  0  0  0  0  0  0
    9.0223   -3.3482    0.3630 O   0  0  0  0  0  0  0  0  0  0  0  0
    6.9838   -3.1335    1.6684 C   0  0  0  0  0  0  0  0  0  0  0  0
    6.1855   -4.1353    1.6812 C   0  0  0  0  0  0  0  0  0  0  0  0
    4.3301   -3.9918    1.5241 C   0  0  1  0  0  0  0  0  0  0  0  0
    3.5535   -5.4325    1.2441 C   0  0  1  0  0  0  0  0  0  0  0  0
    2.7434   -5.9516    0.1752 O   0  0  0  0  0  0  0  0  0  0  0  0
    4.7134   -6.1725    1.4646 C   0  0  0  0  0  0  0  0  0  0  0  0
    4.7064   -5.7775    2.8974 C   0  0  0  0  0  0  0  0  0  0  0  0
    5.1469   -6.6234    3.8838 O   0  0  0  0  0  0  0  0  0  0  0  0
    6.0194   -6.0418    4.8471 C   0  0  0  0  0  0  0  0  0  0  0  0
    4.2093   -4.1212    3.3879 C   0  0  2  0  0  0  0  0  0  0  0  0
    3.3474   -4.2215    4.6664 C   0  0  0  0  0  0  0  0  0  0  0  0
    5.3478   -2.8216    3.4415 C   0  0  0  0  0  0  0  0  0  0  0  0
    6.0231   -2.1425    1.8868 C   0  0  2  0  0  0  0  0  0  0  0  0
    6.6638   -0.8908    2.1970 O   0  0  0  0  0  0  0  0  0  0  0  0
    6.2675   -0.0511    3.3056 C   0  0  0  0  0  0  0  0  0  0  0  0
    5.2334   -5.5574   -0.1486 C   0  0  0  0  0  0  0  0  0  0  0  0
    5.1532   -3.8454   -0.7729 C   0  0  1  0  0  0  0  0  0  0  0  0
    3.6466   -1.9630   -4.1567 H   0  0  0  0  0  0  0  0  0  0  0  0
    4.7605   -1.7464   -2.8157 H   0  0  0  0  0  0  0  0  0  0  0  0
    3.0441   -1.3793   -2.6117 H   0  0  0  0  0  0  0  0  0  0  0  0
    2.5069   -3.8289   -2.9332 H   0  0  0  0  0  0  0  0  0  0  0  0
    4.1862   -4.1711   -3.1922 H   0  0  0  0  0  0  0  0  0  0  0  0
    2.2288   -2.2659   -0.7541 H   0  0  0  0  0  0  0  0  0  0  0  0
    1.6197   -3.8300   -0.9088 H   0  0  0  0  0  0  0  0  0  0  0  0
    1.3624   -2.6402    1.4234 H   0  0  0  0  0  0  0  0  0  0  0  0
    1.4452   -4.2728    1.4340 H   0  0  0  0  0  0  0  0  0  0  0  0
    2.1456   -1.5414    3.0597 H   0  0  0  0  0  0  0  0  0  0  0  0
    3.6974   -1.0924    3.2729 H   0  0  0  0  0  0  0  0  0  0  0  0
    2.2358   -0.8306    0.6205 H   0  0  0  0  0  0  0  0  0  0  0  0
    3.2208    1.0639    2.3804 H   0  0  0  0  0  0  0  0  0  0  0  0
    4.9297    0.2032    1.2585 H   0  0  0  0  0  0  0  0  0  0  0  0
    5.8452   -0.6687   -0.2561 H   0  0  0  0  0  0  0  0  0  0  0  0
    6.7681   -5.0370    1.5210 H   0  0  0  0  0  0  0  0  0  0  0  0
    4.0816   -3.1155    1.0491 H   0  0  0  0  0  0  0  0  0  0  0  0
    2.7732   -5.6913    1.9808 H   0  0  0  0  0  0  0  0  0  0  0  0
    3.1903   -5.8140   -0.6559 H   0  0  0  0  0  0  0  0  0  0  0  0
    6.3416   -6.7991    5.5547 H   0  0  0  0  0  0  0  0  0  0  0  0
    5.5964   -5.2778    5.4782 H   0  0  0  0  0  0  0  0  0  0  0  0
    6.8836   -5.5693    4.3946 H   0  0  0  0  0  0  0  0  0  0  0  0
    2.9509   -3.2645    4.9895 H   0  0  0  0  0  0  0  0  0  0  0  0
    3.8393   -4.5895    5.5612 H   0  0  0  0  0  0  0  0  0  0  0  0
    2.5271   -4.9166    4.5144 H   0  0  0  0  0  0  0  0  0  0  0  0
    5.0363   -2.1043    4.1909 H   0  0  0  0  0  0  0  0  0  0  0  0
    6.1859   -3.1763    4.0388 H   0  0  0  0  0  0  0  0  0  0  0  0
    6.9731    0.7517    3.4949 H   0  0  0  0  0  0  0  0  0  0  0  0
    6.2253   -0.5365    4.2682 H   0  0  0  0  0  0  0  0  0  0  0  0
    5.3146    0.4427    3.1658 H   0  0  0  0  0  0  0  0  0  0  0  0
    6.2735   -5.8709   -0.2625 H   0  0  0  0  0  0  0  0  0  0  0  0
    4.8211   -6.1967   -0.9281 H   0  0  0  0  0  0  0  0  0  0  0  0
    5.7427   -3.8441   -1.6929 H   0  0  0  0  0  0  0  0  0  0  0  0
  1  2  1  0
  1 33  1  0
  1 34  1  0
  1 35  1  0
  2  3  1  0
  2 36  1  0
  2 37  1  0
  3 32  1  0
  3  4  1  0
  4  5  1  0
  4 38  1  0
  4 39  1  0
  5  6  1  0
  5 40  1  0
  5 41  1  0
  6 18  1  0
  6 25  1  0
  6  7  1  1
  7  8  1  0
  7 42  1  0
  7 43  1  0
  8  9  1  0
  8 10  1  0
  8 44  1  6
  9 45  1  0
 10 11  2  3
 10 46  1  0
 11 12  1  0
 11 47  1  0
 12 28  1  0
 12 32  1  0
 12 13  1  6
 13 14  1  0
 14 15  2  0
 14 16  1  0
 16 28  1  0
 16 17  2  0
 17 18  1  0
 17 48  1  0
 18 19  1  0
 18 49  1  6
 19 20  1  0
 19 21  1  0
 19 50  1  1
 20 51  1  0
 21 22  2  0
 21 31  1  0
 22 23  1  0
 22 25  1  0
 23 24  1  0
 24 52  1  0
 24 53  1  0
 24 54  1  0
 25 26  1  1
 25 27  1  0
 26 55  1  0
 26 56  1  0
 26 57  1  0
 27 28  1  0
 27 58  1  0
 27 59  1  0
 28 29  1  1
 29 30  1  0
 30 60  1  0
 30 61  1  0
 30 62  1  0
 31 32  1  0
 31 63  1  0
 31 64  1  0
 32 65  1  6
M  END
>  <i_m_ct_stereo_status>  (69) 
1

>  <s_m_source_file>  (69) 
/var/tmp/pbs.5076255.sched01/tmpmjg_sug8/0d5zvyqle.sdf

>  <i_m_source_file_index>  (69) 
33

>  <i_lp_mmshare_version>  (69) 
48012

>  <i_f3d_flags>  (69) 
0

>  <s_epik_input>  (69) 
W0NIM11PQyhbQ0BAXTEoW0NIM10pW0NIMl0yKT1DKFtDQEBIXTNbT0hdKVtDSDJdW0NAQEhdKE4oW0NIMl1bQ0gzXSlbQ0gyXVtDSDJdNClbQ0BAXShPQzU9TykoL1tDSF09W0NIXVxbQ0BASF0oW0NIMl02KVtPSF0pW0NAXTIoT1tDSDNdKUM1PVtDSF1bQ0BASF0zW0NAXTE0Ng==

>  <s_epik_cmdline>  (69) 
J2VwaWtfcHl0aG9uJywgJy1waHQnLCAnMi4wJywgJy1waCcsICc3LjAnLCAnLXRuJywgJzgnLCAnLW1hJywgJzIwMCcsICctaW1hZScsICc8aW5maWxlLm1hZT4nLCAnLW9tYWUnLCAnPG91dGZpbGUubWFlPic=

>  <r_epik_Ionization_Penalty>  (69) 
0.0502442

>  <r_epik_Ionization_Penalty_Charging>  (69) 
0

>  <r_epik_Ionization_Penalty_Neutral>  (69) 
0.0502442

>  <r_epik_State_Penalty>  (69) 
0.0429359

>  <r_epik_Charging_Adjusted_Penalty>  (69) 
0.0429359

>  <i_epik_Tot_Q>  (69) 
0

>  <i_epik_Tot_abs_Q>  (69) 
0

>  <s_epik_Chemistry_Notes>  (69) 
This compound has an ester and may undergo hydrolysis at high or low pH.

>  <s_lp_Force_Field>  (69) 
OPLS3e

>  <r_lp_Energy>  (69) 
970.111

>  <b_lp_Chiralities_Consistent>  (69) 
1

>  <s_lp_Variant>  (69) 
25:0-2

>  <s_i_glide_gridfile>  (69) 
pfpi4k_grid

>  <i_i_glide_lignum>  (69) 
33

>  <i_i_glide_rotatable_bonds>  (69) 
5

>  <r_i_docking_score>  (69) 
2.42602

>  <r_i_glide_ligand_efficiency>  (69) 
0.075813

>  <r_i_glide_ligand_efficiency_sa>  (69) 
0.240691

>  <r_i_glide_ligand_efficiency_ln>  (69) 
0.543251

>  <r_i_glide_gscore>  (69) 
2.42602

>  <r_i_glide_lipo>  (69) 
-0.710529

>  <r_i_glide_hbond>  (69) 
-0.369728

>  <r_i_glide_metal>  (69) 
-0

>  <r_i_glide_rewards>  (69) 
-0.652516

>  <r_i_glide_evdw>  (69) 
2.32051

>  <r_i_glide_ecoul>  (69) 
-3.6356

>  <r_i_glide_erotb>  (69) 
0

>  <r_i_glide_esite>  (69) 
0

>  <r_i_glide_emodel>  (69) 
26.3399

>  <r_i_glide_energy>  (69) 
-1.31509

>  <r_i_glide_einternal>  (69) 
13.7504

>  <r_i_glide_intrahb_reward>  (69) 
-0

>  <i_i_glide_confnum>  (69) 
2

>  <i_i_glide_posenum>  (69) 
18

>  <r_i_glide_eff_state_penalty>  (69) 
0

>  <ligand_id>  (69) 
25

>  <original_smiles>  (69) 
CCN1CCC23CC(O)C=CC45OC(=O)C6=CC2C(O)C(=C(OC)C3(C)CC64OC)CC15

>  <smiles>  (69) 
[H]OC1([H])C([H])=C([H])C23OC(=O)C4=C([H])C5([H])C([H])(O[H])C6=C(OC([H])([H])[H])C(C([H])([H])[H])(C([H])([H])C42OC([H])([H])[H])C5(C1([H])[H])C([H])([H])C([H])([H])N(C([H])([H])C([H])([H])[H])C3([H])C6([H])[H]

$$$$
25:2:0
     RDKit          3D

 66 71  0  0  1  0  0  0  0  0999 V2000
    3.4183    5.9708    2.9466 C   0  0  0  0  0  0  0  0  0  0  0  0
    2.8194    4.5545    2.6851 C   0  0  0  0  0  0  0  0  0  0  0  0
    1.5480    4.1979    3.4079 N   0  0  2  0  0  0  0  0  0  0  0  0
    0.7161    5.2705    4.0152 C   0  0  0  0  0  0  0  0  0  0  0  0
   -0.0977    4.8840    5.2770 C   0  0  0  0  0  0  0  0  0  0  0  0
    0.3718    3.6392    6.2875 C   0  0  2  0  0  0  0  0  0  0  0  0
    1.5882    4.6897    6.9069 C   0  0  0  0  0  0  0  0  0  0  0  0
    2.8671    5.3373    6.3057 C   0  0  1  0  0  0  0  0  0  0  0  0
    3.4928    6.1103    7.3163 O   0  0  0  0  0  0  0  0  0  0  0  0
    3.9268    4.4422    5.7061 C   0  0  0  0  0  0  0  0  0  0  0  0
    3.7570    3.1925    5.2620 C   0  0  0  0  0  0  0  0  0  0  0  0
    2.4901    2.4022    5.3741 C   0  0  1  0  0  0  0  0  0  0  0  0
    2.9474    1.0815    5.0051 O   0  0  0  0  0  0  0  0  0  0  0  0
    2.8525    0.1272    5.9412 C   0  0  0  0  0  0  0  0  0  0  0  0
    3.2864   -1.0155    5.8414 O   0  0  0  0  0  0  0  0  0  0  0  0
    2.0067    0.6527    7.0059 C   0  0  0  0  0  0  0  0  0  0  0  0
    0.7356    0.4279    6.7149 C   0  0  0  0  0  0  0  0  0  0  0  0
    0.0767    1.6237    5.9853 C   0  0  1  0  0  0  0  0  0  0  0  0
   -1.2664    1.1512    5.4396 C   0  0  1  0  0  0  0  0  0  0  0  0
   -2.1398    0.4762    6.3308 O   0  0  0  0  0  0  0  0  0  0  0  0
   -1.5914    2.5241    5.1155 C   0  0  0  0  0  0  0  0  0  0  0  0
   -1.7488    3.1157    6.4100 C   0  0  0  0  0  0  0  0  0  0  0  0
   -2.9739    3.0986    7.0615 O   0  0  0  0  0  0  0  0  0  0  0  0
   -3.0699    2.5080    8.3645 C   0  0  0  0  0  0  0  0  0  0  0  0
   -0.5170    3.5183    7.3910 C   0  0  2  0  0  0  0  0  0  0  0  0
   -0.8705    4.7708    8.2862 C   0  0  0  0  0  0  0  0  0  0  0  0
    0.7147    2.6018    8.0728 C   0  0  0  0  0  0  0  0  0  0  0  0
    2.1770    2.1253    7.1270 C   0  0  2  0  0  0  0  0  0  0  0  0
    3.4030    2.4192    7.8777 O   0  0  0  0  0  0  0  0  0  0  0  0
    3.4405    2.9467    9.2204 C   0  0  0  0  0  0  0  0  0  0  0  0
   -0.4110    2.6570    3.8559 C   0  0  0  0  0  0  0  0  0  0  0  0
    1.3523    2.8360    4.0188 C   0  0  1  0  0  0  0  0  0  0  0  0
    4.3193    6.1716    2.3568 H   0  0  0  0  0  0  0  0  0  0  0  0
    3.7837    6.0951    3.9411 H   0  0  0  0  0  0  0  0  0  0  0  0
    2.7061    6.7770    2.8720 H   0  0  0  0  0  0  0  0  0  0  0  0
    2.5691    4.4840    1.6274 H   0  0  0  0  0  0  0  0  0  0  0  0
    3.5669    3.7685    2.8025 H   0  0  0  0  0  0  0  0  0  0  0  0
    1.1899    6.2086    4.2435 H   0  0  0  0  0  0  0  0  0  0  0  0
    0.0321    5.5664    3.2153 H   0  0  0  0  0  0  0  0  0  0  0  0
   -0.1687    5.8396    5.7968 H   0  0  0  0  0  0  0  0  0  0  0  0
   -1.1303    4.8966    4.9318 H   0  0  0  0  0  0  0  0  0  0  0  0
    1.1189    5.6139    7.2308 H   0  0  0  0  0  0  0  0  0  0  0  0
    1.9803    4.4285    7.8277 H   0  0  0  0  0  0  0  0  0  0  0  0
    2.5931    6.1476    5.6542 H   0  0  0  0  0  0  0  0  0  0  0  0
    3.8065    5.5470    8.0109 H   0  0  0  0  0  0  0  0  0  0  0  0
    4.9025    4.8834    5.5493 H   0  0  0  0  0  0  0  0  0  0  0  0
    4.5951    2.7023    4.7862 H   0  0  0  0  0  0  0  0  0  0  0  0
    0.4364   -0.5359    6.3186 H   0  0  0  0  0  0  0  0  0  0  0  0
    0.5675    1.1054    5.1619 H   0  0  0  0  0  0  0  0  0  0  0  0
   -1.2457    0.5028    4.5634 H   0  0  0  0  0  0  0  0  0  0  0  0
   -3.0212    0.7427    6.1158 H   0  0  0  0  0  0  0  0  0  0  0  0
   -4.1019    2.6273    8.7054 H   0  0  0  0  0  0  0  0  0  0  0  0
   -2.3954    2.7977    9.1483 H   0  0  0  0  0  0  0  0  0  0  0  0
   -2.8650    1.4543    8.3325 H   0  0  0  0  0  0  0  0  0  0  0  0
   -0.0333    5.1402    8.8957 H   0  0  0  0  0  0  0  0  0  0  0  0
   -1.6258    4.6265    9.0422 H   0  0  0  0  0  0  0  0  0  0  0  0
   -1.2732    5.5844    7.6827 H   0  0  0  0  0  0  0  0  0  0  0  0
    0.9579    3.1539    8.9653 H   0  0  0  0  0  0  0  0  0  0  0  0
    0.2901    1.7562    8.6104 H   0  0  0  0  0  0  0  0  0  0  0  0
    4.4769    3.0164    9.5549 H   0  0  0  0  0  0  0  0  0  0  0  0
    2.8807    2.3466    9.9293 H   0  0  0  0  0  0  0  0  0  0  0  0
    3.1269    3.9688    9.3419 H   0  0  0  0  0  0  0  0  0  0  0  0
   -0.5483    1.7941    3.1992 H   0  0  0  0  0  0  0  0  0  0  0  0
   -0.8008    3.4184    3.1910 H   0  0  0  0  0  0  0  0  0  0  0  0
    1.7155    2.1829    3.2145 H   0  0  0  0  0  0  0  0  0  0  0  0
    0.9927    4.0438    2.5679 H   0  0  0  0  0  0  0  0  0  0  0  0
  1  2  1  0
  1 33  1  0
  1 34  1  0
  1 35  1  0
  2  3  1  0
  2 36  1  0
  2 37  1  0
  3 32  1  0
  3  4  1  0
  3 66  1  6
  4  5  1  0
  4 38  1  0
  4 39  1  0
  5  6  1  0
  5 40  1  0
  5 41  1  0
  6 18  1  0
  6 25  1  0
  6  7  1  1
  7  8  1  0
  7 42  1  0
  7 43  1  0
  8  9  1  0
  8 10  1  0
  8 44  1  6
  9 45  1  0
 10 11  2  3
 10 46  1  0
 11 12  1  0
 11 47  1  0
 12 28  1  0
 12 32  1  0
 12 13  1  6
 13 14  1  0
 14 15  2  0
 14 16  1  0
 16 28  1  0
 16 17  2  0
 17 18  1  0
 17 48  1  0
 18 19  1  0
 18 49  1  6
 19 20  1  0
 19 21  1  0
 19 50  1  6
 20 51  1  0
 21 22  2  0
 21 31  1  0
 22 23  1  0
 22 25  1  0
 23 24  1  0
 24 52  1  0
 24 53  1  0
 24 54  1  0
 25 26  1  1
 25 27  1  0
 26 55  1  0
 26 56  1  0
 26 57  1  0
 27 28  1  0
 27 58  1  0
 27 59  1  0
 28 29  1  1
 29 30  1  0
 30 60  1  0
 30 61  1  0
 30 62  1  0
 31 32  1  0
 31 63  1  0
 31 64  1  0
 32 65  1  6
M  CHG  1   3   1
M  END
>  <i_m_ct_stereo_status>  (70) 
1

>  <s_m_source_file>  (70) 
/var/tmp/pbs.5076255.sched01/tmpmjg_sug8/0d5zvyqle.sdf

>  <i_m_source_file_index>  (70) 
34

>  <i_lp_mmshare_version>  (70) 
48012

>  <i_f3d_flags>  (70) 
1

>  <s_epik_input>  (70) 
W0NIM11PQyhbQ0BAXTEoW0NIM10pW0NIMl0yKT1DKFtDQEBIXTNbT0hdKVtDSDJdW0NAQEhdKE4oW0NIMl1bQ0gzXSlbQ0gyXVtDSDJdNClbQ0BAXShPQzU9TykoL1tDSF09W0NIXVxbQ0BASF0oW0NIMl02KVtPSF0pW0NAXTIoT1tDSDNdKUM1PVtDSF1bQ0BASF0zW0NAXTE0Ng==

>  <s_epik_cmdline>  (70) 
J2VwaWtfcHl0aG9uJywgJy1waHQnLCAnMi4wJywgJy1waCcsICc3LjAnLCAnLXRuJywgJzgnLCAnLW1hJywgJzIwMCcsICctaW1hZScsICc8aW5maWxlLm1hZT4nLCAnLW9tYWUnLCAnPG91dGZpbGUubWFlPic=

>  <r_epik_Ionization_Penalty>  (70) 
1.48987

>  <r_epik_Ionization_Penalty_Charging>  (70) 
1.48726

>  <r_epik_Ionization_Penalty_Neutral>  (70) 
0.00260424

>  <r_epik_State_Penalty>  (70) 
1.57639

>  <r_epik_Charging_Adjusted_Penalty>  (70) 
3.06365

>  <i_epik_Tot_Q>  (70) 
1

>  <i_epik_Tot_abs_Q>  (70) 
1

>  <s_epik_Chemistry_Notes>  (70) 
This compound has an ester and may undergo hydrolysis at high or low pH.

>  <s_lp_Force_Field>  (70) 
OPLS3e

>  <r_lp_Energy>  (70) 
743.813

>  <b_lp_Chiralities_Consistent>  (70) 
1

>  <s_lp_Variant>  (70) 
25:0-3

>  <s_i_glide_gridfile>  (70) 
pfpi4k_grid

>  <i_i_glide_lignum>  (70) 
34

>  <i_i_glide_rotatable_bonds>  (70) 
5

>  <r_i_docking_score>  (70) 
-2.57817

>  <r_i_glide_ligand_efficiency>  (70) 
-0.0805679

>  <r_i_glide_ligand_efficiency_sa>  (70) 
-0.255787

>  <r_i_glide_ligand_efficiency_ln>  (70) 
-0.577323

>  <r_i_glide_gscore>  (70) 
-2.57817

>  <r_i_glide_lipo>  (70) 
-0.163507

>  <r_i_glide_hbond>  (70) 
-0.195555

>  <r_i_glide_metal>  (70) 
-0

>  <r_i_glide_rewards>  (70) 
-0.378133

>  <r_i_glide_evdw>  (70) 
-16.519

>  <r_i_glide_ecoul>  (70) 
-6.69823

>  <r_i_glide_erotb>  (70) 
0

>  <r_i_glide_esite>  (70) 
-0.0739266

>  <r_i_glide_emodel>  (70) 
-9.081

>  <r_i_glide_energy>  (70) 
-23.2172

>  <r_i_glide_einternal>  (70) 
31.0177

>  <r_i_glide_intrahb_reward>  (70) 
-0

>  <i_i_glide_confnum>  (70) 
1

>  <i_i_glide_posenum>  (70) 
24

>  <r_i_glide_eff_state_penalty>  (70) 
0

>  <ligand_id>  (70) 
25

>  <original_smiles>  (70) 
CCN1CCC23CC(O)C=CC45OC(=O)C6=CC2C(O)C(=C(OC)C3(C)CC64OC)CC15

>  <smiles>  (70) 
[H]OC1([H])C([H])=C([H])C23OC(=O)C4=C([H])C5([H])C([H])(O[H])C6=C(OC([H])([H])[H])C(C([H])([H])[H])(C([H])([H])C42OC([H])([H])[H])C5(C1([H])[H])C([H])([H])C([H])([H])[N+]([H])(C([H])([H])C([H])([H])[H])C3([H])C6([H])[H]

$$$$
25:2:1
     RDKit          3D

 66 71  0  0  1  0  0  0  0  0999 V2000
    4.7134    6.4932    4.9815 C   0  0  0  0  0  0  0  0  0  0  0  0
    4.1381    5.0942    4.7027 C   0  0  0  0  0  0  0  0  0  0  0  0
    2.7119    4.9714    5.1415 N   0  0  2  0  0  0  0  0  0  0  0  0
    2.4096    5.2308    6.5718 C   0  0  0  0  0  0  0  0  0  0  0  0
    1.1811    4.4457    7.1732 C   0  0  0  0  0  0  0  0  0  0  0  0
    0.6840    2.9663    6.5469 C   0  0  2  0  0  0  0  0  0  0  0  0
    2.0172    2.3002    7.3741 C   0  0  0  0  0  0  0  0  0  0  0  0
    3.5825    2.4882    7.2242 C   0  0  1  0  0  0  0  0  0  0  0  0
    4.2230    1.6936    8.2208 O   0  0  0  0  0  0  0  0  0  0  0  0
    4.2292    2.1631    5.8912 C   0  0  0  0  0  0  0  0  0  0  0  0
    3.6055    2.0914    4.7188 C   0  0  0  0  0  0  0  0  0  0  0  0
    2.1272    2.2818    4.4713 C   0  0  1  0  0  0  0  0  0  0  0  0
    2.0173    1.8718    3.0882 O   0  0  0  0  0  0  0  0  0  0  0  0
    1.1876    0.8609    2.8092 C   0  0  0  0  0  0  0  0  0  0  0  0
    0.9975    0.3417    1.7122 O   0  0  0  0  0  0  0  0  0  0  0  0
    0.4163    0.6104    4.0137 C   0  0  0  0  0  0  0  0  0  0  0  0
   -0.6834    1.3418    4.0355 C   0  0  0  0  0  0  0  0  0  0  0  0
   -0.4532    2.6433    4.8374 C   0  0  1  0  0  0  0  0  0  0  0  0
   -1.6690    3.5496    4.5633 C   0  0  1  0  0  0  0  0  0  0  0  0
   -2.9624    3.0220    4.7447 O   0  0  0  0  0  0  0  0  0  0  0  0
   -1.1522    4.4550    5.5771 C   0  0  0  0  0  0  0  0  0  0  0  0
   -1.3573    3.6972    6.7723 C   0  0  0  0  0  0  0  0  0  0  0  0
   -2.5508    3.7646    7.4759 O   0  0  0  0  0  0  0  0  0  0  0  0
   -3.3310    2.5625    7.5890 C   0  0  0  0  0  0  0  0  0  0  0  0
   -0.4361    2.4379    7.2410 C   0  0  2  0  0  0  0  0  0  0  0  0
   -0.4812    2.3325    8.8157 C   0  0  0  0  0  0  0  0  0  0  0  0
   -0.0110    0.9700    6.4982 C   0  0  0  0  0  0  0  0  0  0  0  0
    1.2387    0.9105    5.2108 C   0  0  2  0  0  0  0  0  0  0  0  0
    2.0754   -0.2789    5.4092 O   0  0  0  0  0  0  0  0  0  0  0  0
    2.7433   -0.5312    6.6463 C   0  0  0  0  0  0  0  0  0  0  0  0
    0.2367    4.9636    4.7190 C   0  0  0  0  0  0  0  0  0  0  0  0
    1.7460    4.0652    4.4432 C   0  0  1  0  0  0  0  0  0  0  0  0
    5.7402    6.5753    4.6397 H   0  0  0  0  0  0  0  0  0  0  0  0
    4.7123    6.7073    6.0473 H   0  0  0  0  0  0  0  0  0  0  0  0
    4.1278    7.2540    4.4759 H   0  0  0  0  0  0  0  0  0  0  0  0
    4.1943    4.8814    3.6292 H   0  0  0  0  0  0  0  0  0  0  0  0
    4.7921    4.3829    5.2052 H   0  0  0  0  0  0  0  0  0  0  0  0
    3.3047    5.2250    7.1918 H   0  0  0  0  0  0  0  0  0  0  0  0
    2.1711    6.2964    6.6122 H   0  0  0  0  0  0  0  0  0  0  0  0
    1.3890    4.4038    8.2401 H   0  0  0  0  0  0  0  0  0  0  0  0
    0.4207    5.2265    7.2792 H   0  0  0  0  0  0  0  0  0  0  0  0
    1.9392    2.5470    8.4299 H   0  0  0  0  0  0  0  0  0  0  0  0
    1.9143    1.2918    7.6366 H   0  0  0  0  0  0  0  0  0  0  0  0
    3.9646    3.4411    7.5587 H   0  0  0  0  0  0  0  0  0  0  0  0
    4.0122    0.7792    8.0667 H   0  0  0  0  0  0  0  0  0  0  0  0
    5.2990    1.9901    5.9038 H   0  0  0  0  0  0  0  0  0  0  0  0
    4.2051    1.8723    3.8534 H   0  0  0  0  0  0  0  0  0  0  0  0
   -1.2601    1.4422    3.1186 H   0  0  0  0  0  0  0  0  0  0  0  0
   -0.0588    2.9247    3.8459 H   0  0  0  0  0  0  0  0  0  0  0  0
   -1.7357    3.9957    3.5706 H   0  0  0  0  0  0  0  0  0  0  0  0
   -3.1173    2.3030    4.1508 H   0  0  0  0  0  0  0  0  0  0  0  0
   -4.2433    2.7799    8.1444 H   0  0  0  0  0  0  0  0  0  0  0  0
   -2.8485    1.7066    8.0288 H   0  0  0  0  0  0  0  0  0  0  0  0
   -3.6359    2.1826    6.6429 H   0  0  0  0  0  0  0  0  0  0  0  0
    0.1893    1.5797    9.2256 H   0  0  0  0  0  0  0  0  0  0  0  0
   -1.4372    2.0373    9.2149 H   0  0  0  0  0  0  0  0  0  0  0  0
   -0.2884    3.2969    9.2907 H   0  0  0  0  0  0  0  0  0  0  0  0
    0.2354    0.2557    7.2842 H   0  0  0  0  0  0  0  0  0  0  0  0
   -0.9332    0.4492    6.2298 H   0  0  0  0  0  0  0  0  0  0  0  0
    3.4724   -1.3161    6.6585 H   0  0  0  0  0  0  0  0  0  0  0  0
    2.0995   -0.6146    7.5252 H   0  0  0  0  0  0  0  0  0  0  0  0
    3.3956    0.2510    6.7931 H   0  0  0  0  0  0  0  0  0  0  0  0
   -0.0999    5.2533    3.7235 H   0  0  0  0  0  0  0  0  0  0  0  0
    0.4536    5.9737    5.0933 H   0  0  0  0  0  0  0  0  0  0  0  0
    1.9675    4.3233    3.3955 H   0  0  0  0  0  0  0  0  0  0  0  0
    2.3882    5.8410    4.7378 H   0  0  0  0  0  0  0  0  0  0  0  0
  1  2  1  0
  1 33  1  0
  1 34  1  0
  1 35  1  0
  2  3  1  0
  2 36  1  0
  2 37  1  0
  3 32  1  0
  3  4  1  0
  3 66  1  6
  4  5  1  0
  4 38  1  0
  4 39  1  0
  5  6  1  0
  5 40  1  0
  5 41  1  0
  6 18  1  0
  6 25  1  0
  6  7  1  6
  7  8  1  0
  7 42  1  0
  7 43  1  0
  8  9  1  0
  8 10  1  0
  8 44  1  1
  9 45  1  0
 10 11  2  3
 10 46  1  0
 11 12  1  0
 11 47  1  0
 12 28  1  0
 12 32  1  0
 12 13  1  6
 13 14  1  0
 14 15  2  0
 14 16  1  0
 16 28  1  0
 16 17  2  0
 17 18  1  0
 17 48  1  0
 18 19  1  0
 18 49  1  6
 19 20  1  0
 19 21  1  0
 19 50  1  6
 20 51  1  0
 21 22  2  0
 21 31  1  0
 22 23  1  0
 22 25  1  0
 23 24  1  0
 24 52  1  0
 24 53  1  0
 24 54  1  0
 25 26  1  1
 25 27  1  0
 26 55  1  0
 26 56  1  0
 26 57  1  0
 27 28  1  0
 27 58  1  0
 27 59  1  0
 28 29  1  1
 29 30  1  0
 30 60  1  0
 30 61  1  0
 30 62  1  0
 31 32  1  0
 31 63  1  0
 31 64  1  0
 32 65  1  6
M  CHG  1   3   1
M  END
>  <i_m_ct_stereo_status>  (71) 
1

>  <s_m_source_file>  (71) 
/var/tmp/pbs.5076255.sched01/tmpmjg_sug8/0d5zvyqle.sdf

>  <i_m_source_file_index>  (71) 
34

>  <i_lp_mmshare_version>  (71) 
48012

>  <i_f3d_flags>  (71) 
1

>  <s_epik_input>  (71) 
W0NIM11PQyhbQ0BAXTEoW0NIM10pW0NIMl0yKT1DKFtDQEBIXTNbT0hdKVtDSDJdW0NAQEhdKE4oW0NIMl1bQ0gzXSlbQ0gyXVtDSDJdNClbQ0BAXShPQzU9TykoL1tDSF09W0NIXVxbQ0BASF0oW0NIMl02KVtPSF0pW0NAXTIoT1tDSDNdKUM1PVtDSF1bQ0BASF0zW0NAXTE0Ng==

>  <s_epik_cmdline>  (71) 
J2VwaWtfcHl0aG9uJywgJy1waHQnLCAnMi4wJywgJy1waCcsICc3LjAnLCAnLXRuJywgJzgnLCAnLW1hJywgJzIwMCcsICctaW1hZScsICc8aW5maWxlLm1hZT4nLCAnLW9tYWUnLCAnPG91dGZpbGUubWFlPic=

>  <r_epik_Ionization_Penalty>  (71) 
1.48987

>  <r_epik_Ionization_Penalty_Charging>  (71) 
1.48726

>  <r_epik_Ionization_Penalty_Neutral>  (71) 
0.00260424

>  <r_epik_State_Penalty>  (71) 
1.57639

>  <r_epik_Charging_Adjusted_Penalty>  (71) 
3.06365

>  <i_epik_Tot_Q>  (71) 
1

>  <i_epik_Tot_abs_Q>  (71) 
1

>  <s_epik_Chemistry_Notes>  (71) 
This compound has an ester and may undergo hydrolysis at high or low pH.

>  <s_lp_Force_Field>  (71) 
OPLS3e

>  <r_lp_Energy>  (71) 
743.813

>  <b_lp_Chiralities_Consistent>  (71) 
1

>  <s_lp_Variant>  (71) 
25:0-3

>  <s_i_glide_gridfile>  (71) 
pfpi4k_grid

>  <i_i_glide_lignum>  (71) 
34

>  <i_i_glide_rotatable_bonds>  (71) 
5

>  <r_i_docking_score>  (71) 
-1.57096

>  <r_i_glide_ligand_efficiency>  (71) 
-0.0490926

>  <r_i_glide_ligand_efficiency_sa>  (71) 
-0.155859

>  <r_i_glide_ligand_efficiency_ln>  (71) 
-0.351781

>  <r_i_glide_gscore>  (71) 
-1.57096

>  <r_i_glide_lipo>  (71) 
-0.160976

>  <r_i_glide_hbond>  (71) 
0

>  <r_i_glide_metal>  (71) 
-0

>  <r_i_glide_rewards>  (71) 
-0.378133

>  <r_i_glide_evdw>  (71) 
-16.3038

>  <r_i_glide_ecoul>  (71) 
-1.60504

>  <r_i_glide_erotb>  (71) 
0

>  <r_i_glide_esite>  (71) 
-0.0288717

>  <r_i_glide_emodel>  (71) 
-8.80289

>  <r_i_glide_energy>  (71) 
-17.9088

>  <r_i_glide_einternal>  (71) 
16.7063

>  <r_i_glide_intrahb_reward>  (71) 
-0

>  <i_i_glide_confnum>  (71) 
1

>  <i_i_glide_posenum>  (71) 
1

>  <r_i_glide_eff_state_penalty>  (71) 
0

>  <ligand_id>  (71) 
25

>  <original_smiles>  (71) 
CCN1CCC23CC(O)C=CC45OC(=O)C6=CC2C(O)C(=C(OC)C3(C)CC64OC)CC15

>  <smiles>  (71) 
[H]OC1([H])C([H])=C([H])C23OC(=O)C4=C([H])C5([H])C([H])(O[H])C6=C(OC([H])([H])[H])C(C([H])([H])[H])(C([H])([H])C42OC([H])([H])[H])C5(C1([H])[H])C([H])([H])C([H])([H])[N+]([H])(C([H])([H])C([H])([H])[H])C3([H])C6([H])[H]

$$$$
25:2:2
     RDKit          3D

 66 71  0  0  1  0  0  0  0  0999 V2000
    5.8474    3.3440    6.7023 C   0  0  0  0  0  0  0  0  0  0  0  0
    4.8149    2.2012    6.6735 C   0  0  0  0  0  0  0  0  0  0  0  0
    3.6339    2.5365    5.8252 N   0  0  2  0  0  0  0  0  0  0  0  0
    2.8658    3.7539    6.1681 C   0  0  0  0  0  0  0  0  0  0  0  0
    1.3254    3.7252    5.8179 C   0  0  0  0  0  0  0  0  0  0  0  0
    0.4698    2.3003    5.7237 C   0  0  2  0  0  0  0  0  0  0  0  0
    0.5133    2.3428    7.4310 C   0  0  0  0  0  0  0  0  0  0  0  0
    1.6548    2.2428    8.5193 C   0  0  1  0  0  0  0  0  0  0  0  0
    1.0825    2.4112    9.8024 O   0  0  0  0  0  0  0  0  0  0  0  0
    2.5583    1.0289    8.5047 C   0  0  0  0  0  0  0  0  0  0  0  0
    2.7138    0.1642    7.4982 C   0  0  0  0  0  0  0  0  0  0  0  0
    2.0328    0.2315    6.1485 C   0  0  1  0  0  0  0  0  0  0  0  0
    2.4228   -1.0395    5.5730 O   0  0  0  0  0  0  0  0  0  0  0  0
    1.4491   -1.8823    5.1990 C   0  0  0  0  0  0  0  0  0  0  0  0
    1.5872   -3.0199    4.7489 O   0  0  0  0  0  0  0  0  0  0  0  0
    0.1979   -1.1464    5.2888 C   0  0  0  0  0  0  0  0  0  0  0  0
   -0.0506   -0.5325    4.1462 C   0  0  0  0  0  0  0  0  0  0  0  0
    0.4500    0.9277    4.1678 C   0  0  1  0  0  0  0  0  0  0  0  0
    0.3775    1.4520    2.7288 C   0  0  1  0  0  0  0  0  0  0  0  0
   -0.8571    1.2233    2.0735 O   0  0  0  0  0  0  0  0  0  0  0  0
    0.6809    2.7742    3.2369 C   0  0  0  0  0  0  0  0  0  0  0  0
   -0.5107    3.1061    3.9524 C   0  0  0  0  0  0  0  0  0  0  0  0
   -1.5607    3.7505    3.3407 O   0  0  0  0  0  0  0  0  0  0  0  0
   -2.8113    3.0528    3.2560 C   0  0  0  0  0  0  0  0  0  0  0  0
   -0.9026    2.4932    5.4130 C   0  0  2  0  0  0  0  0  0  0  0  0
   -1.7942    3.5435    6.1715 C   0  0  0  0  0  0  0  0  0  0  0  0
   -1.1217    0.9182    5.9879 C   0  0  0  0  0  0  0  0  0  0  0  0
    0.2860   -0.1366    6.3771 C   0  0  2  0  0  0  0  0  0  0  0  0
   -0.0060   -0.8844    7.5976 O   0  0  0  0  0  0  0  0  0  0  0  0
   -0.3565   -0.2350    8.8161 C   0  0  0  0  0  0  0  0  0  0  0  0
    2.2970    2.4142    3.7026 C   0  0  0  0  0  0  0  0  0  0  0  0
    2.8513    1.4826    5.1169 C   0  0  1  0  0  0  0  0  0  0  0  0
    6.7187    3.0875    7.3082 H   0  0  0  0  0  0  0  0  0  0  0  0
    5.4224    4.2485    7.1321 H   0  0  0  0  0  0  0  0  0  0  0  0
    6.1942    3.5763    5.7018 H   0  0  0  0  0  0  0  0  0  0  0  0
    5.2969    1.2845    6.3082 H   0  0  0  0  0  0  0  0  0  0  0  0
    4.5616    2.0162    7.7117 H   0  0  0  0  0  0  0  0  0  0  0  0
    3.0986    4.1382    7.1561 H   0  0  0  0  0  0  0  0  0  0  0  0
    3.3186    4.5487    5.5687 H   0  0  0  0  0  0  0  0  0  0  0  0
    0.8794    4.4488    6.5095 H   0  0  0  0  0  0  0  0  0  0  0  0
    1.2555    4.4050    4.9610 H   0  0  0  0  0  0  0  0  0  0  0  0
    0.0279    3.2500    7.7816 H   0  0  0  0  0  0  0  0  0  0  0  0
   -0.3156    1.8402    7.8801 H   0  0  0  0  0  0  0  0  0  0  0  0
    2.2927    3.1307    8.5684 H   0  0  0  0  0  0  0  0  0  0  0  0
    1.7463    2.3441   10.4895 H   0  0  0  0  0  0  0  0  0  0  0  0
    3.1049    0.8160    9.4249 H   0  0  0  0  0  0  0  0  0  0  0  0
    3.4039   -0.6538    7.6471 H   0  0  0  0  0  0  0  0  0  0  0  0
    0.1116   -1.0713    3.2143 H   0  0  0  0  0  0  0  0  0  0  0  0
    1.3555    0.3913    3.8906 H   0  0  0  0  0  0  0  0  0  0  0  0
    1.0895    1.0647    2.0052 H   0  0  0  0  0  0  0  0  0  0  0  0
   -0.7836    1.4054    1.1306 H   0  0  0  0  0  0  0  0  0  0  0  0
   -3.5394    3.6472    2.7278 H   0  0  0  0  0  0  0  0  0  0  0  0
   -3.2494    2.6846    4.1722 H   0  0  0  0  0  0  0  0  0  0  0  0
   -2.7588    2.1478    2.6903 H   0  0  0  0  0  0  0  0  0  0  0  0
   -2.0420    3.2673    7.1940 H   0  0  0  0  0  0  0  0  0  0  0  0
   -2.7787    3.6972    5.7428 H   0  0  0  0  0  0  0  0  0  0  0  0
   -1.3590    4.5433    6.1529 H   0  0  0  0  0  0  0  0  0  0  0  0
   -1.7867    0.9567    6.8445 H   0  0  0  0  0  0  0  0  0  0  0  0
   -1.8682    0.4244    5.3551 H   0  0  0  0  0  0  0  0  0  0  0  0
   -0.3402   -0.8301    9.7403 H   0  0  0  0  0  0  0  0  0  0  0  0
   -1.2047    0.3951    8.8182 H   0  0  0  0  0  0  0  0  0  0  0  0
    0.4686    0.3470    9.1108 H   0  0  0  0  0  0  0  0  0  0  0  0
    2.7695    1.9294    2.8452 H   0  0  0  0  0  0  0  0  0  0  0  0
    2.8371    3.3638    3.6366 H   0  0  0  0  0  0  0  0  0  0  0  0
    3.6777    0.8956    4.6818 H   0  0  0  0  0  0  0  0  0  0  0  0
    4.1437    2.8795    5.0321 H   0  0  0  0  0  0  0  0  0  0  0  0
  1  2  1  0
  1 33  1  0
  1 34  1  0
  1 35  1  0
  2  3  1  0
  2 36  1  0
  2 37  1  0
  3 32  1  0
  3  4  1  0
  3 66  1  6
  4  5  1  0
  4 38  1  0
  4 39  1  0
  5  6  1  0
  5 40  1  0
  5 41  1  0
  6 18  1  0
  6 25  1  0
  6  7  1  1
  7  8  1  0
  7 42  1  0
  7 43  1  0
  8  9  1  0
  8 10  1  0
  8 44  1  6
  9 45  1  0
 10 11  2  3
 10 46  1  0
 11 12  1  0
 11 47  1  0
 12 28  1  0
 12 32  1  0
 12 13  1  6
 13 14  1  0
 14 15  2  0
 14 16  1  0
 16 28  1  0
 16 17  2  0
 17 18  1  0
 17 48  1  0
 18 19  1  0
 18 49  1  6
 19 20  1  0
 19 21  1  0
 19 50  1  6
 20 51  1  0
 21 22  2  0
 21 31  1  0
 22 23  1  0
 22 25  1  0
 23 24  1  0
 24 52  1  0
 24 53  1  0
 24 54  1  0
 25 26  1  1
 25 27  1  0
 26 55  1  0
 26 56  1  0
 26 57  1  0
 27 28  1  0
 27 58  1  0
 27 59  1  0
 28 29  1  1
 29 30  1  0
 30 60  1  0
 30 61  1  0
 30 62  1  0
 31 32  1  0
 31 63  1  0
 31 64  1  0
 32 65  1  6
M  CHG  1   3   1
M  END
>  <i_m_ct_stereo_status>  (72) 
1

>  <s_m_source_file>  (72) 
/var/tmp/pbs.5076255.sched01/tmpmjg_sug8/0d5zvyqle.sdf

>  <i_m_source_file_index>  (72) 
34

>  <i_lp_mmshare_version>  (72) 
48012

>  <i_f3d_flags>  (72) 
1

>  <s_epik_input>  (72) 
W0NIM11PQyhbQ0BAXTEoW0NIM10pW0NIMl0yKT1DKFtDQEBIXTNbT0hdKVtDSDJdW0NAQEhdKE4oW0NIMl1bQ0gzXSlbQ0gyXVtDSDJdNClbQ0BAXShPQzU9TykoL1tDSF09W0NIXVxbQ0BASF0oW0NIMl02KVtPSF0pW0NAXTIoT1tDSDNdKUM1PVtDSF1bQ0BASF0zW0NAXTE0Ng==

>  <s_epik_cmdline>  (72) 
J2VwaWtfcHl0aG9uJywgJy1waHQnLCAnMi4wJywgJy1waCcsICc3LjAnLCAnLXRuJywgJzgnLCAnLW1hJywgJzIwMCcsICctaW1hZScsICc8aW5maWxlLm1hZT4nLCAnLW9tYWUnLCAnPG91dGZpbGUubWFlPic=

>  <r_epik_Ionization_Penalty>  (72) 
1.48987

>  <r_epik_Ionization_Penalty_Charging>  (72) 
1.48726

>  <r_epik_Ionization_Penalty_Neutral>  (72) 
0.00260424

>  <r_epik_State_Penalty>  (72) 
1.57639

>  <r_epik_Charging_Adjusted_Penalty>  (72) 
3.06365

>  <i_epik_Tot_Q>  (72) 
1

>  <i_epik_Tot_abs_Q>  (72) 
1

>  <s_epik_Chemistry_Notes>  (72) 
This compound has an ester and may undergo hydrolysis at high or low pH.

>  <s_lp_Force_Field>  (72) 
OPLS3e

>  <r_lp_Energy>  (72) 
743.813

>  <b_lp_Chiralities_Consistent>  (72) 
1

>  <s_lp_Variant>  (72) 
25:0-3

>  <s_i_glide_gridfile>  (72) 
pfpi4k_grid

>  <i_i_glide_lignum>  (72) 
34

>  <i_i_glide_rotatable_bonds>  (72) 
5

>  <r_i_docking_score>  (72) 
-1.1288

>  <r_i_glide_ligand_efficiency>  (72) 
-0.0352751

>  <r_i_glide_ligand_efficiency_sa>  (72) 
-0.111992

>  <r_i_glide_ligand_efficiency_ln>  (72) 
-0.25277

>  <r_i_glide_gscore>  (72) 
-1.1288

>  <r_i_glide_lipo>  (72) 
-0.0634533

>  <r_i_glide_hbond>  (72) 
-0.000551362

>  <r_i_glide_metal>  (72) 
-0

>  <r_i_glide_rewards>  (72) 
-0.378133

>  <r_i_glide_evdw>  (72) 
-17.9679

>  <r_i_glide_ecoul>  (72) 
-1.91592

>  <r_i_glide_erotb>  (72) 
0

>  <r_i_glide_esite>  (72) 
0

>  <r_i_glide_emodel>  (72) 
-8.70349

>  <r_i_glide_energy>  (72) 
-19.8838

>  <r_i_glide_einternal>  (72) 
17.3028

>  <r_i_glide_intrahb_reward>  (72) 
-0

>  <i_i_glide_confnum>  (72) 
1

>  <i_i_glide_posenum>  (72) 
23

>  <r_i_glide_eff_state_penalty>  (72) 
0

>  <ligand_id>  (72) 
25

>  <original_smiles>  (72) 
CCN1CCC23CC(O)C=CC45OC(=O)C6=CC2C(O)C(=C(OC)C3(C)CC64OC)CC15

>  <smiles>  (72) 
[H]OC1([H])C([H])=C([H])C23OC(=O)C4=C([H])C5([H])C([H])(O[H])C6=C(OC([H])([H])[H])C(C([H])([H])[H])(C([H])([H])C42OC([H])([H])[H])C5(C1([H])[H])C([H])([H])C([H])([H])[N+]([H])(C([H])([H])C([H])([H])[H])C3([H])C6([H])[H]

$$$$
25:3:0
     RDKit          3D

 66 71  0  0  1  0  0  0  0  0999 V2000
    4.1735   -0.9307    1.2955 C   0  0  0  0  0  0  0  0  0  0  0  0
    3.1480    0.2102    1.4108 C   0  0  0  0  0  0  0  0  0  0  0  0
    2.3266    0.1406    2.6489 N   0  0  2  0  0  0  0  0  0  0  0  0
    0.8815    0.5937    2.3715 C   0  0  0  0  0  0  0  0  0  0  0  0
   -0.3546    0.6627    3.4091 C   0  0  0  0  0  0  0  0  0  0  0  0
   -0.4884    1.1646    5.0391 C   0  0  1  0  0  0  0  0  0  0  0  0
   -0.9317    2.6898    4.7053 C   0  0  0  0  0  0  0  0  0  0  0  0
   -0.4708    3.5409    3.4571 C   0  0  1  0  0  0  0  0  0  0  0  0
   -1.2080    4.7460    3.4077 O   0  0  0  0  0  0  0  0  0  0  0  0
    0.9643    3.8689    3.6491 C   0  0  0  0  0  0  0  0  0  0  0  0
    1.8995    2.9190    3.4204 C   0  0  0  0  0  0  0  0  0  0  0  0
    2.8749    2.1751    4.3622 C   0  0  1  0  0  0  0  0  0  0  0  0
    3.4374    3.4268    4.9764 O   0  0  0  0  0  0  0  0  0  0  0  0
    2.5962    4.0247    6.0872 C   0  0  0  0  0  0  0  0  0  0  0  0
    2.6358    5.1550    6.5587 O   0  0  0  0  0  0  0  0  0  0  0  0
    1.7294    2.8949    6.4578 C   0  0  0  0  0  0  0  0  0  0  0  0
    0.5340    2.4530    7.0864 C   0  0  0  0  0  0  0  0  0  0  0  0
   -0.0960    0.9192    6.7812 C   0  0  2  0  0  0  0  0  0  0  0  0
    0.7998   -0.7435    7.2658 C   0  0  1  0  0  0  0  0  0  0  0  0
    0.0159   -1.6619    7.9997 O   0  0  0  0  0  0  0  0  0  0  0  0
    1.6759   -1.5072    5.8758 C   0  0  0  0  0  0  0  0  0  0  0  0
    0.8834   -1.2862    4.8934 C   0  0  0  0  0  0  0  0  0  0  0  0
    0.9689   -1.8487    3.6269 O   0  0  0  0  0  0  0  0  0  0  0  0
    1.2175   -3.2566    3.5730 C   0  0  0  0  0  0  0  0  0  0  0  0
    0.6259    0.1990    5.0953 C   0  0  1  0  0  0  0  0  0  0  0  0
   -0.9171   -0.8037    5.3349 C   0  0  0  0  0  0  0  0  0  0  0  0
    2.1222    0.8892    6.0724 C   0  0  0  0  0  0  0  0  0  0  0  0
    2.7327    2.0293    5.8460 C   0  0  1  0  0  0  0  0  0  0  0  0
    3.9896    1.9850    6.6867 O   0  0  0  0  0  0  0  0  0  0  0  0
    5.2002    1.3828    6.2187 C   0  0  0  0  0  0  0  0  0  0  0  0
    3.0525   -1.0733    4.8942 C   0  0  0  0  0  0  0  0  0  0  0  0
    3.1255    0.4616    3.9173 C   0  0  1  0  0  0  0  0  0  0  0  0
    4.7022   -0.8591    0.3431 H   0  0  0  0  0  0  0  0  0  0  0  0
    3.6842   -1.9091    1.3196 H   0  0  0  0  0  0  0  0  0  0  0  0
    4.9315   -0.9042    2.0823 H   0  0  0  0  0  0  0  0  0  0  0  0
    3.6469    1.1734    1.3287 H   0  0  0  0  0  0  0  0  0  0  0  0
    2.5036    0.1322    0.5372 H   0  0  0  0  0  0  0  0  0  0  0  0
    0.7974    1.4118    1.6627 H   0  0  0  0  0  0  0  0  0  0  0  0
    0.5626   -0.1940    1.6903 H   0  0  0  0  0  0  0  0  0  0  0  0
   -1.1232    1.2123    2.8830 H   0  0  0  0  0  0  0  0  0  0  0  0
   -0.8937   -0.2168    3.0910 H   0  0  0  0  0  0  0  0  0  0  0  0
   -2.0054    2.5792    4.5474 H   0  0  0  0  0  0  0  0  0  0  0  0
   -0.9625    3.3682    5.5500 H   0  0  0  0  0  0  0  0  0  0  0  0
   -0.6360    3.0918    2.4799 H   0  0  0  0  0  0  0  0  0  0  0  0
   -0.9359    5.1645    2.5988 H   0  0  0  0  0  0  0  0  0  0  0  0
    0.9066    4.4670    4.5318 H   0  0  0  0  0  0  0  0  0  0  0  0
    2.0554    2.6925    2.3861 H   0  0  0  0  0  0  0  0  0  0  0  0
   -0.1295    3.1598    7.5665 H   0  0  0  0  0  0  0  0  0  0  0  0
   -1.0170    0.9498    7.3667 H   0  0  0  0  0  0  0  0  0  0  0  0
    1.4926   -0.5991    8.0916 H   0  0  0  0  0  0  0  0  0  0  0  0
    0.5987   -2.3108    8.3676 H   0  0  0  0  0  0  0  0  0  0  0  0
    1.2003   -3.5487    2.5230 H   0  0  0  0  0  0  0  0  0  0  0  0
    0.4521   -3.8205    4.1096 H   0  0  0  0  0  0  0  0  0  0  0  0
    2.1896   -3.5679    3.9552 H   0  0  0  0  0  0  0  0  0  0  0  0
   -1.8449   -0.3368    5.7125 H   0  0  0  0  0  0  0  0  0  0  0  0
   -0.9679   -1.6952    5.9655 H   0  0  0  0  0  0  0  0  0  0  0  0
   -1.3488   -1.3700    4.4995 H   0  0  0  0  0  0  0  0  0  0  0  0
    2.1950    0.9415    7.1723 H   0  0  0  0  0  0  0  0  0  0  0  0
    2.8966    0.2829    6.5306 H   0  0  0  0  0  0  0  0  0  0  0  0
    5.9883    1.5508    6.9545 H   0  0  0  0  0  0  0  0  0  0  0  0
    5.5378    1.7911    5.2682 H   0  0  0  0  0  0  0  0  0  0  0  0
    5.1371    0.3052    6.1295 H   0  0  0  0  0  0  0  0  0  0  0  0
    3.9020   -1.1811    5.5613 H   0  0  0  0  0  0  0  0  0  0  0  0
    3.3229   -1.8469    4.1804 H   0  0  0  0  0  0  0  0  0  0  0  0
    4.1723    0.4774    3.6380 H   0  0  0  0  0  0  0  0  0  0  0  0
    2.1663   -0.8565    2.7588 H   0  0  0  0  0  0  0  0  0  0  0  0
  1  2  1  0
  1 33  1  0
  1 34  1  0
  1 35  1  0
  2  3  1  0
  2 36  1  0
  2 37  1  0
  3 32  1  0
  3  4  1  0
  3 66  1  1
  4  5  1  0
  4 38  1  0
  4 39  1  0
  5  6  1  0
  5 40  1  0
  5 41  1  0
  6 18  1  0
  6 25  1  0
  6  7  1  6
  7  8  1  0
  7 42  1  0
  7 43  1  0
  8  9  1  0
  8 10  1  0
  8 44  1  6
  9 45  1  0
 10 11  2  3
 10 46  1  0
 11 12  1  0
 11 47  1  0
 12 28  1  0
 12 32  1  0
 12 13  1  1
 13 14  1  0
 14 15  2  0
 14 16  1  0
 16 28  1  0
 16 17  2  0
 17 18  1  0
 17 48  1  0
 18 19  1  0
 18 49  1  1
 19 20  1  0
 19 21  1  0
 19 50  1  1
 20 51  1  0
 21 22  2  0
 21 31  1  0
 22 23  1  0
 22 25  1  0
 23 24  1  0
 24 52  1  0
 24 53  1  0
 24 54  1  0
 25 26  1  1
 25 27  1  0
 26 55  1  0
 26 56  1  0
 26 57  1  0
 27 28  1  0
 27 58  1  0
 27 59  1  0
 28 29  1  1
 29 30  1  0
 30 60  1  0
 30 61  1  0
 30 62  1  0
 31 32  1  0
 31 63  1  0
 31 64  1  0
 32 65  1  6
M  CHG  1   3   1
M  END
>  <i_m_ct_stereo_status>  (73) 
1

>  <s_m_source_file>  (73) 
/var/tmp/pbs.5076255.sched01/tmpmjg_sug8/0d5zvyqle.sdf

>  <i_m_source_file_index>  (73) 
35

>  <i_lp_mmshare_version>  (73) 
48012

>  <i_f3d_flags>  (73) 
2

>  <s_epik_input>  (73) 
W0NIM11PQyhbQ0BAXTEoW0NIM10pW0NIMl0yKT1DKFtDQEBIXTNbT0hdKVtDSDJdW0NAQEhdKE4oW0NIMl1bQ0gzXSlbQ0gyXVtDSDJdNClbQ0BAXShPQzU9TykoL1tDSF09W0NIXVxbQ0BASF0oW0NIMl02KVtPSF0pW0NAXTIoT1tDSDNdKUM1PVtDSF1bQ0BASF0zW0NAXTE0Ng==

>  <s_epik_cmdline>  (73) 
J2VwaWtfcHl0aG9uJywgJy1waHQnLCAnMi4wJywgJy1waCcsICc3LjAnLCAnLXRuJywgJzgnLCAnLW1hJywgJzIwMCcsICctaW1hZScsICc8aW5maWxlLm1hZT4nLCAnLW9tYWUnLCAnPG91dGZpbGUubWFlPic=

>  <r_epik_Ionization_Penalty>  (73) 
1.48987

>  <r_epik_Ionization_Penalty_Charging>  (73) 
1.48726

>  <r_epik_Ionization_Penalty_Neutral>  (73) 
0.00260424

>  <r_epik_State_Penalty>  (73) 
1.57639

>  <r_epik_Charging_Adjusted_Penalty>  (73) 
3.06365

>  <i_epik_Tot_Q>  (73) 
1

>  <i_epik_Tot_abs_Q>  (73) 
1

>  <s_epik_Chemistry_Notes>  (73) 
This compound has an ester and may undergo hydrolysis at high or low pH.

>  <s_lp_Force_Field>  (73) 
OPLS3e

>  <r_lp_Energy>  (73) 
1141.31

>  <b_lp_Chiralities_Consistent>  (73) 
0

>  <s_lp_Variant>  (73) 
25:0-4

>  <s_i_glide_gridfile>  (73) 
pfpi4k_grid

>  <i_i_glide_lignum>  (73) 
35

>  <i_i_glide_rotatable_bonds>  (73) 
5

>  <r_i_docking_score>  (73) 
-3.68917

>  <r_i_glide_ligand_efficiency>  (73) 
-0.115286

>  <r_i_glide_ligand_efficiency_sa>  (73) 
-0.366012

>  <r_i_glide_ligand_efficiency_ln>  (73) 
-0.826105

>  <r_i_glide_gscore>  (73) 
-3.68917

>  <r_i_glide_lipo>  (73) 
-0.157284

>  <r_i_glide_hbond>  (73) 
-0.279136

>  <r_i_glide_metal>  (73) 
-0

>  <r_i_glide_rewards>  (73) 
-0.878133

>  <r_i_glide_evdw>  (73) 
-18.4938

>  <r_i_glide_ecoul>  (73) 
-9.59278

>  <r_i_glide_erotb>  (73) 
0

>  <r_i_glide_esite>  (73) 
-0.0110047

>  <r_i_glide_emodel>  (73) 
-40.4134

>  <r_i_glide_energy>  (73) 
-28.0866

>  <r_i_glide_einternal>  (73) 
0.806951

>  <r_i_glide_intrahb_reward>  (73) 
-0.5

>  <i_i_glide_confnum>  (73) 
2

>  <i_i_glide_posenum>  (73) 
18

>  <r_i_glide_eff_state_penalty>  (73) 
0

>  <ligand_id>  (73) 
25

>  <original_smiles>  (73) 
CCN1CCC23CC(O)C=CC45OC(=O)C6=CC2C(O)C(=C(OC)C3(C)CC64OC)CC15

>  <smiles>  (73) 
[H]OC1([H])C([H])=C([H])C23OC(=O)C4=C([H])C5([H])C([H])(O[H])C6=C(OC([H])([H])[H])C(C([H])([H])[H])(C([H])([H])C42OC([H])([H])[H])C5(C1([H])[H])C([H])([H])C([H])([H])[N+]([H])(C([H])([H])C([H])([H])[H])C3([H])C6([H])[H]

$$$$
25:3:1
     RDKit          3D

 66 71  0  0  1  0  0  0  0  0999 V2000
    4.2527   -0.2062    1.9514 C   0  0  0  0  0  0  0  0  0  0  0  0
    3.0026    0.6874    1.8813 C   0  0  0  0  0  0  0  0  0  0  0  0
    2.1244    0.5708    3.0745 N   0  0  2  0  0  0  0  0  0  0  0  0
    0.6494    0.6920    2.6696 C   0  0  0  0  0  0  0  0  0  0  0  0
   -0.6479    0.6036    3.6221 C   0  0  0  0  0  0  0  0  0  0  0  0
   -1.0083    1.2190    5.1762 C   0  0  1  0  0  0  0  0  0  0  0  0
   -1.7199    2.5790    4.6466 C   0  0  0  0  0  0  0  0  0  0  0  0
   -1.3361    3.3895    3.3470 C   0  0  1  0  0  0  0  0  0  0  0  0
   -2.2600    4.4328    3.1475 O   0  0  0  0  0  0  0  0  0  0  0  0
   -0.0224    3.9981    3.6248 C   0  0  0  0  0  0  0  0  0  0  0  0
    1.0982    3.2595    3.5272 C   0  0  0  0  0  0  0  0  0  0  0  0
    2.1319    2.8360    4.5769 C   0  0  1  0  0  0  0  0  0  0  0  0
    2.3810    4.2340    5.0814 O   0  0  0  0  0  0  0  0  0  0  0  0
    1.3583    4.7433    6.0727 C   0  0  0  0  0  0  0  0  0  0  0  0
    1.1226    5.9027    6.4109 O   0  0  0  0  0  0  0  0  0  0  0  0
    0.7084    3.5033    6.5211 C   0  0  0  0  0  0  0  0  0  0  0  0
   -0.4155    2.8806    7.1163 C   0  0  0  0  0  0  0  0  0  0  0  0
   -0.6986    1.2243    6.9554 C   0  0  2  0  0  0  0  0  0  0  0  0
    0.4792   -0.1542    7.6585 C   0  0  1  0  0  0  0  0  0  0  0  0
   -0.1313   -1.1678    8.4660 O   0  0  0  0  0  0  0  0  0  0  0  0
    1.5833   -0.8465    6.4069 C   0  0  0  0  0  0  0  0  0  0  0  0
    0.8316   -0.8925    5.3716 C   0  0  0  0  0  0  0  0  0  0  0  0
    1.1209   -1.5413    4.1809 O   0  0  0  0  0  0  0  0  0  0  0  0
    1.6172   -2.8811    4.2963 C   0  0  0  0  0  0  0  0  0  0  0  0
    0.2688    0.5214    5.3986 C   0  0  1  0  0  0  0  0  0  0  0  0
   -1.0550   -0.7492    5.6662 C   0  0  0  0  0  0  0  0  0  0  0  0
    1.5126    1.5940    6.3686 C   0  0  0  0  0  0  0  0  0  0  0  0
    1.9031    2.8060    6.0503 C   0  0  1  0  0  0  0  0  0  0  0  0
    3.0731    3.1084    6.9511 O   0  0  0  0  0  0  0  0  0  0  0  0
    4.4145    2.7706    6.5904 C   0  0  0  0  0  0  0  0  0  0  0  0
    2.9127   -0.2287    5.4637 C   0  0  0  0  0  0  0  0  0  0  0  0
    2.7424    1.1775    4.3327 C   0  0  1  0  0  0  0  0  0  0  0  0
    4.8309   -0.1164    1.0255 H   0  0  0  0  0  0  0  0  0  0  0  0
    3.9902   -1.2612    2.0658 H   0  0  0  0  0  0  0  0  0  0  0  0
    4.9299    0.0682    2.7645 H   0  0  0  0  0  0  0  0  0  0  0  0
    3.2961    1.7132    1.7169 H   0  0  0  0  0  0  0  0  0  0  0  0
    2.4647    0.3977    0.9842 H   0  0  0  0  0  0  0  0  0  0  0  0
    0.4533    1.3954    1.8720 H   0  0  0  0  0  0  0  0  0  0  0  0
    0.5399   -0.1963    2.0536 H   0  0  0  0  0  0  0  0  0  0  0  0
   -1.4707    0.9325    2.9988 H   0  0  0  0  0  0  0  0  0  0  0  0
   -0.9776   -0.3962    3.3733 H   0  0  0  0  0  0  0  0  0  0  0  0
   -2.7332    2.2418    4.4337 H   0  0  0  0  0  0  0  0  0  0  0  0
   -1.9563    3.3135    5.4069 H   0  0  0  0  0  0  0  0  0  0  0  0
   -1.3318    2.8329    2.4110 H   0  0  0  0  0  0  0  0  0  0  0  0
   -2.1004    4.7433    2.2629 H   0  0  0  0  0  0  0  0  0  0  0  0
   -0.2745    4.6656    4.4191 H   0  0  0  0  0  0  0  0  0  0  0  0
    1.3547    2.9756    2.5255 H   0  0  0  0  0  0  0  0  0  0  0  0
   -1.2469    3.4686    7.4769 H   0  0  0  0  0  0  0  0  0  0  0  0
   -1.6425    1.1287    7.4804 H   0  0  0  0  0  0  0  0  0  0  0  0
    1.0620    0.2197    8.4951 H   0  0  0  0  0  0  0  0  0  0  0  0
    0.5395   -1.4658    9.0515 H   0  0  0  0  0  0  0  0  0  0  0  0
    1.7339   -3.2747    3.2858 H   0  0  0  0  0  0  0  0  0  0  0  0
    0.9303   -3.5221    4.8507 H   0  0  0  0  0  0  0  0  0  0  0  0
    2.5915   -2.9797    4.7722 H   0  0  0  0  0  0  0  0  0  0  0  0
   -2.0819   -0.4448    5.9321 H   0  0  0  0  0  0  0  0  0  0  0  0
   -0.9628   -1.5575    6.3901 H   0  0  0  0  0  0  0  0  0  0  0  0
   -1.2919   -1.4663    4.8819 H   0  0  0  0  0  0  0  0  0  0  0  0
    1.4983    1.7731    7.4519 H   0  0  0  0  0  0  0  0  0  0  0  0
    2.3615    1.2231    6.9242 H   0  0  0  0  0  0  0  0  0  0  0  0
    5.0922    3.1474    7.3586 H   0  0  0  0  0  0  0  0  0  0  0  0
    4.7197    3.1915    5.6298 H   0  0  0  0  0  0  0  0  0  0  0  0
    4.5960    1.7032    6.5771 H   0  0  0  0  0  0  0  0  0  0  0  0
    3.7121   -0.0921    6.1846 H   0  0  0  0  0  0  0  0  0  0  0  0
    3.3915   -0.9875    4.8615 H   0  0  0  0  0  0  0  0  0  0  0  0
    3.7746    1.3845    4.1204 H   0  0  0  0  0  0  0  0  0  0  0  0
    2.1577   -0.4138    3.2801 H   0  0  0  0  0  0  0  0  0  0  0  0
  1  2  1  0
  1 33  1  0
  1 34  1  0
  1 35  1  0
  2  3  1  0
  2 36  1  0
  2 37  1  0
  3 32  1  0
  3  4  1  0
  3 66  1  1
  4  5  1  0
  4 38  1  0
  4 39  1  0
  5  6  1  0
  5 40  1  0
  5 41  1  0
  6 18  1  0
  6 25  1  0
  6  7  1  6
  7  8  1  0
  7 42  1  0
  7 43  1  0
  8  9  1  0
  8 10  1  0
  8 44  1  6
  9 45  1  0
 10 11  2  3
 10 46  1  0
 11 12  1  0
 11 47  1  0
 12 28  1  0
 12 32  1  0
 12 13  1  1
 13 14  1  0
 14 15  2  0
 14 16  1  0
 16 28  1  0
 16 17  2  0
 17 18  1  0
 17 48  1  0
 18 19  1  0
 18 49  1  1
 19 20  1  0
 19 21  1  0
 19 50  1  1
 20 51  1  0
 21 22  2  0
 21 31  1  0
 22 23  1  0
 22 25  1  0
 23 24  1  0
 24 52  1  0
 24 53  1  0
 24 54  1  0
 25 26  1  1
 25 27  1  0
 26 55  1  0
 26 56  1  0
 26 57  1  0
 27 28  1  0
 27 58  1  0
 27 59  1  0
 28 29  1  1
 29 30  1  0
 30 60  1  0
 30 61  1  0
 30 62  1  0
 31 32  1  0
 31 63  1  0
 31 64  1  0
 32 65  1  6
M  CHG  1   3   1
M  END
>  <i_m_ct_stereo_status>  (74) 
1

>  <s_m_source_file>  (74) 
/var/tmp/pbs.5076255.sched01/tmpmjg_sug8/0d5zvyqle.sdf

>  <i_m_source_file_index>  (74) 
35

>  <i_lp_mmshare_version>  (74) 
48012

>  <i_f3d_flags>  (74) 
2

>  <s_epik_input>  (74) 
W0NIM11PQyhbQ0BAXTEoW0NIM10pW0NIMl0yKT1DKFtDQEBIXTNbT0hdKVtDSDJdW0NAQEhdKE4oW0NIMl1bQ0gzXSlbQ0gyXVtDSDJdNClbQ0BAXShPQzU9TykoL1tDSF09W0NIXVxbQ0BASF0oW0NIMl02KVtPSF0pW0NAXTIoT1tDSDNdKUM1PVtDSF1bQ0BASF0zW0NAXTE0Ng==

>  <s_epik_cmdline>  (74) 
J2VwaWtfcHl0aG9uJywgJy1waHQnLCAnMi4wJywgJy1waCcsICc3LjAnLCAnLXRuJywgJzgnLCAnLW1hJywgJzIwMCcsICctaW1hZScsICc8aW5maWxlLm1hZT4nLCAnLW9tYWUnLCAnPG91dGZpbGUubWFlPic=

>  <r_epik_Ionization_Penalty>  (74) 
1.48987

>  <r_epik_Ionization_Penalty_Charging>  (74) 
1.48726

>  <r_epik_Ionization_Penalty_Neutral>  (74) 
0.00260424

>  <r_epik_State_Penalty>  (74) 
1.57639

>  <r_epik_Charging_Adjusted_Penalty>  (74) 
3.06365

>  <i_epik_Tot_Q>  (74) 
1

>  <i_epik_Tot_abs_Q>  (74) 
1

>  <s_epik_Chemistry_Notes>  (74) 
This compound has an ester and may undergo hydrolysis at high or low pH.

>  <s_lp_Force_Field>  (74) 
OPLS3e

>  <r_lp_Energy>  (74) 
1141.31

>  <b_lp_Chiralities_Consistent>  (74) 
0

>  <s_lp_Variant>  (74) 
25:0-4

>  <s_i_glide_gridfile>  (74) 
pfpi4k_grid

>  <i_i_glide_lignum>  (74) 
35

>  <i_i_glide_rotatable_bonds>  (74) 
5

>  <r_i_docking_score>  (74) 
-3.48512

>  <r_i_glide_ligand_efficiency>  (74) 
-0.10891

>  <r_i_glide_ligand_efficiency_sa>  (74) 
-0.345767

>  <r_i_glide_ligand_efficiency_ln>  (74) 
-0.780413

>  <r_i_glide_gscore>  (74) 
-3.48512

>  <r_i_glide_lipo>  (74) 
-0.201128

>  <r_i_glide_hbond>  (74) 
-0.243881

>  <r_i_glide_metal>  (74) 
-0

>  <r_i_glide_rewards>  (74) 
-0.878133

>  <r_i_glide_evdw>  (74) 
-17.1573

>  <r_i_glide_ecoul>  (74) 
-8.63605

>  <r_i_glide_erotb>  (74) 
0

>  <r_i_glide_esite>  (74) 
-0.00870376

>  <r_i_glide_emodel>  (74) 
-37.5967

>  <r_i_glide_energy>  (74) 
-25.7933

>  <r_i_glide_einternal>  (74) 
0.908819

>  <r_i_glide_intrahb_reward>  (74) 
-0.5

>  <i_i_glide_confnum>  (74) 
2

>  <i_i_glide_posenum>  (74) 
37

>  <r_i_glide_eff_state_penalty>  (74) 
0

>  <ligand_id>  (74) 
25

>  <original_smiles>  (74) 
CCN1CCC23CC(O)C=CC45OC(=O)C6=CC2C(O)C(=C(OC)C3(C)CC64OC)CC15

>  <smiles>  (74) 
[H]OC1([H])C([H])=C([H])C23OC(=O)C4=C([H])C5([H])C([H])(O[H])C6=C(OC([H])([H])[H])C(C([H])([H])[H])(C([H])([H])C42OC([H])([H])[H])C5(C1([H])[H])C([H])([H])C([H])([H])[N+]([H])(C([H])([H])C([H])([H])[H])C3([H])C6([H])[H]

$$$$
25:3:2
     RDKit          3D

 66 71  0  0  1  0  0  0  0  0999 V2000
    3.0535   -0.9538    1.4948 C   0  0  0  0  0  0  0  0  0  0  0  0
    2.4962    0.4641    1.6584 C   0  0  0  0  0  0  0  0  0  0  0  0
    1.8412    0.6886    2.9781 N   0  0  2  0  0  0  0  0  0  0  0  0
    0.5454    1.5075    2.8211 C   0  0  0  0  0  0  0  0  0  0  0  0
   -0.4834    1.9625    3.9695 C   0  0  0  0  0  0  0  0  0  0  0  0
   -0.2680    2.5727    5.5498 C   0  0  1  0  0  0  0  0  0  0  0  0
   -0.3134    4.1365    5.1392 C   0  0  0  0  0  0  0  0  0  0  0  0
    0.1929    4.7653    3.7782 C   0  0  1  0  0  0  0  0  0  0  0  0
   -0.1837    6.1382    3.7505 O   0  0  0  0  0  0  0  0  0  0  0  0
    1.6830    4.6903    3.7649 C   0  0  0  0  0  0  0  0  0  0  0  0
    2.2835    3.5023    3.5353 C   0  0  0  0  0  0  0  0  0  0  0  0
    3.1210    2.5750    4.4391 C   0  0  1  0  0  0  0  0  0  0  0  0
    4.0686    3.6555    4.8865 O   0  0  0  0  0  0  0  0  0  0  0  0
    3.5654    4.5168    6.0234 C   0  0  0  0  0  0  0  0  0  0  0  0
    3.9709    5.6152    6.3866 O   0  0  0  0  0  0  0  0  0  0  0  0
    2.4854    3.6962    6.5718 C   0  0  0  0  0  0  0  0  0  0  0  0
    1.3062    3.6340    7.3660 C   0  0  0  0  0  0  0  0  0  0  0  0
    0.2554    2.3282    7.2543 C   0  0  2  0  0  0  0  0  0  0  0  0
    0.7205    0.5070    7.7894 C   0  0  1  0  0  0  0  0  0  0  0  0
   -0.1913   -0.0984    8.6823 O   0  0  0  0  0  0  0  0  0  0  0  0
    1.1781   -0.5424    6.3812 C   0  0  0  0  0  0  0  0  0  0  0  0
    0.3646   -0.1647    5.4694 C   0  0  0  0  0  0  0  0  0  0  0  0
    0.1419   -0.7974    4.2551 O   0  0  0  0  0  0  0  0  0  0  0  0
   -0.0029   -2.2195    4.3059 C   0  0  0  0  0  0  0  0  0  0  0  0
    0.5395    1.3462    5.5660 C   0  0  1  0  0  0  0  0  0  0  0  0
   -1.1684    0.8210    6.0588 C   0  0  0  0  0  0  0  0  0  0  0  0
    2.2798    1.6490    6.3181 C   0  0  0  0  0  0  0  0  0  0  0  0
    3.1343    2.5578    5.9327 C   0  0  1  0  0  0  0  0  0  0  0  0
    4.4306    2.2091    6.6343 O   0  0  0  0  0  0  0  0  0  0  0  0
    5.3565    1.2466    6.1192 C   0  0  0  0  0  0  0  0  0  0  0  0
    2.4869   -0.5560    5.2281 C   0  0  0  0  0  0  0  0  0  0  0  0
    2.8450    0.8404    4.1243 C   0  0  1  0  0  0  0  0  0  0  0  0
    3.4614   -1.0779    0.4905 H   0  0  0  0  0  0  0  0  0  0  0  0
    2.2724   -1.7085    1.6098 H   0  0  0  0  0  0  0  0  0  0  0  0
    3.8573   -1.1716    2.1998 H   0  0  0  0  0  0  0  0  0  0  0  0
    3.2729    1.2006    1.4700 H   0  0  0  0  0  0  0  0  0  0  0  0
    1.7723    0.5942    0.8619 H   0  0  0  0  0  0  0  0  0  0  0  0
    0.6010    2.2740    2.0623 H   0  0  0  0  0  0  0  0  0  0  0  0
   -0.0474    0.8130    2.2337 H   0  0  0  0  0  0  0  0  0  0  0  0
   -1.1291    2.6744    3.4836 H   0  0  0  0  0  0  0  0  0  0  0  0
   -1.2801    1.2549    3.7753 H   0  0  0  0  0  0  0  0  0  0  0  0
   -1.3854    4.3207    5.1020 H   0  0  0  0  0  0  0  0  0  0  0  0
   -0.0652    4.8397    5.9193 H   0  0  0  0  0  0  0  0  0  0  0  0
   -0.2174    4.3272    2.8814 H   0  0  0  0  0  0  0  0  0  0  0  0
    0.1824    6.5325    2.9719 H   0  0  0  0  0  0  0  0  0  0  0  0
    1.8953    5.3257    4.5938 H   0  0  0  0  0  0  0  0  0  0  0  0
    2.2559    3.1873    2.5126 H   0  0  0  0  0  0  0  0  0  0  0  0
    0.9232    4.5160    7.8444 H   0  0  0  0  0  0  0  0  0  0  0  0
   -0.5386    2.6381    7.9282 H   0  0  0  0  0  0  0  0  0  0  0  0
    1.5384    0.4942    8.5082 H   0  0  0  0  0  0  0  0  0  0  0  0
   -0.0713    0.3075    9.5328 H   0  0  0  0  0  0  0  0  0  0  0  0
   -0.1933   -2.5500    3.2891 H   0  0  0  0  0  0  0  0  0  0  0  0
   -0.8202   -2.5276    4.9615 H   0  0  0  0  0  0  0  0  0  0  0  0
    0.8807   -2.7843    4.6025 H   0  0  0  0  0  0  0  0  0  0  0  0
   -1.8799    1.5489    6.4949 H   0  0  0  0  0  0  0  0  0  0  0  0
   -1.3645    0.0133    6.7664 H   0  0  0  0  0  0  0  0  0  0  0  0
   -1.8323    0.3541    5.3264 H   0  0  0  0  0  0  0  0  0  0  0  0
    2.4986    1.7320    7.3979 H   0  0  0  0  0  0  0  0  0  0  0  0
    2.9023    0.8784    6.7487 H   0  0  0  0  0  0  0  0  0  0  0  0
    6.2534    1.2405    6.7395 H   0  0  0  0  0  0  0  0  0  0  0  0
    5.6494    1.4229    5.0825 H   0  0  0  0  0  0  0  0  0  0  0  0
    4.9961    0.2303    6.2081 H   0  0  0  0  0  0  0  0  0  0  0  0
    3.3460   -0.8779    5.8035 H   0  0  0  0  0  0  0  0  0  0  0  0
    2.4710   -1.4002    4.5444 H   0  0  0  0  0  0  0  0  0  0  0  0
    3.8014    0.5444    3.7294 H   0  0  0  0  0  0  0  0  0  0  0  0
    1.4378   -0.2193    3.1805 H   0  0  0  0  0  0  0  0  0  0  0  0
  1  2  1  0
  1 33  1  0
  1 34  1  0
  1 35  1  0
  2  3  1  0
  2 36  1  0
  2 37  1  0
  3 32  1  0
  3  4  1  0
  3 66  1  1
  4  5  1  0
  4 38  1  0
  4 39  1  0
  5  6  1  0
  5 40  1  0
  5 41  1  0
  6 18  1  0
  6 25  1  0
  6  7  1  6
  7  8  1  0
  7 42  1  0
  7 43  1  0
  8  9  1  0
  8 10  1  0
  8 44  1  6
  9 45  1  0
 10 11  2  3
 10 46  1  0
 11 12  1  0
 11 47  1  0
 12 28  1  0
 12 32  1  0
 12 13  1  6
 13 14  1  0
 14 15  2  0
 14 16  1  0
 16 28  1  0
 16 17  2  0
 17 18  1  0
 17 48  1  0
 18 19  1  0
 18 49  1  1
 19 20  1  0
 19 21  1  0
 19 50  1  1
 20 51  1  0
 21 22  2  0
 21 31  1  0
 22 23  1  0
 22 25  1  0
 23 24  1  0
 24 52  1  0
 24 53  1  0
 24 54  1  0
 25 26  1  1
 25 27  1  0
 26 55  1  0
 26 56  1  0
 26 57  1  0
 27 28  1  0
 27 58  1  0
 27 59  1  0
 28 29  1  6
 29 30  1  0
 30 60  1  0
 30 61  1  0
 30 62  1  0
 31 32  1  0
 31 63  1  0
 31 64  1  0
 32 65  1  6
M  CHG  1   3   1
M  END
>  <i_m_ct_stereo_status>  (75) 
1

>  <s_m_source_file>  (75) 
/var/tmp/pbs.5076255.sched01/tmpmjg_sug8/0d5zvyqle.sdf

>  <i_m_source_file_index>  (75) 
35

>  <i_lp_mmshare_version>  (75) 
48012

>  <i_f3d_flags>  (75) 
2

>  <s_epik_input>  (75) 
W0NIM11PQyhbQ0BAXTEoW0NIM10pW0NIMl0yKT1DKFtDQEBIXTNbT0hdKVtDSDJdW0NAQEhdKE4oW0NIMl1bQ0gzXSlbQ0gyXVtDSDJdNClbQ0BAXShPQzU9TykoL1tDSF09W0NIXVxbQ0BASF0oW0NIMl02KVtPSF0pW0NAXTIoT1tDSDNdKUM1PVtDSF1bQ0BASF0zW0NAXTE0Ng==

>  <s_epik_cmdline>  (75) 
J2VwaWtfcHl0aG9uJywgJy1waHQnLCAnMi4wJywgJy1waCcsICc3LjAnLCAnLXRuJywgJzgnLCAnLW1hJywgJzIwMCcsICctaW1hZScsICc8aW5maWxlLm1hZT4nLCAnLW9tYWUnLCAnPG91dGZpbGUubWFlPic=

>  <r_epik_Ionization_Penalty>  (75) 
1.48987

>  <r_epik_Ionization_Penalty_Charging>  (75) 
1.48726

>  <r_epik_Ionization_Penalty_Neutral>  (75) 
0.00260424

>  <r_epik_State_Penalty>  (75) 
1.57639

>  <r_epik_Charging_Adjusted_Penalty>  (75) 
3.06365

>  <i_epik_Tot_Q>  (75) 
1

>  <i_epik_Tot_abs_Q>  (75) 
1

>  <s_epik_Chemistry_Notes>  (75) 
This compound has an ester and may undergo hydrolysis at high or low pH.

>  <s_lp_Force_Field>  (75) 
OPLS3e

>  <r_lp_Energy>  (75) 
1141.31

>  <b_lp_Chiralities_Consistent>  (75) 
0

>  <s_lp_Variant>  (75) 
25:0-4

>  <s_i_glide_gridfile>  (75) 
pfpi4k_grid

>  <i_i_glide_lignum>  (75) 
35

>  <i_i_glide_rotatable_bonds>  (75) 
5

>  <r_i_docking_score>  (75) 
-3.41233

>  <r_i_glide_ligand_efficiency>  (75) 
-0.106635

>  <r_i_glide_ligand_efficiency_sa>  (75) 
-0.338546

>  <r_i_glide_ligand_efficiency_ln>  (75) 
-0.764113

>  <r_i_glide_gscore>  (75) 
-3.41233

>  <r_i_glide_lipo>  (75) 
-0.0736337

>  <r_i_glide_hbond>  (75) 
-0.104824

>  <r_i_glide_metal>  (75) 
-0

>  <r_i_glide_rewards>  (75) 
-0.878133

>  <r_i_glide_evdw>  (75) 
-17.8374

>  <r_i_glide_ecoul>  (75) 
-9.67742

>  <r_i_glide_erotb>  (75) 
0

>  <r_i_glide_esite>  (75) 
-0.0122578

>  <r_i_glide_emodel>  (75) 
-38.9143

>  <r_i_glide_energy>  (75) 
-27.5148

>  <r_i_glide_einternal>  (75) 
1.0276

>  <r_i_glide_intrahb_reward>  (75) 
-0.5

>  <i_i_glide_confnum>  (75) 
1

>  <i_i_glide_posenum>  (75) 
23

>  <r_i_glide_eff_state_penalty>  (75) 
0

>  <ligand_id>  (75) 
25

>  <original_smiles>  (75) 
CCN1CCC23CC(O)C=CC45OC(=O)C6=CC2C(O)C(=C(OC)C3(C)CC64OC)CC15

>  <smiles>  (75) 
[H]OC1([H])C([H])=C([H])C23OC(=O)C4=C([H])C5([H])C([H])(O[H])C6=C(OC([H])([H])[H])C(C([H])([H])[H])(C([H])([H])C42OC([H])([H])[H])C5(C1([H])[H])C([H])([H])C([H])([H])[N+]([H])(C([H])([H])C([H])([H])[H])C3([H])C6([H])[H]

$$$$
25:4:0
     RDKit          3D

 66 71  0  0  1  0  0  0  0  0999 V2000
    2.3910   -1.7458    2.2074 C   0  0  0  0  0  0  0  0  0  0  0  0
    1.9771   -0.2999    1.8757 C   0  0  0  0  0  0  0  0  0  0  0  0
    1.7183    0.5329    3.0858 N   0  0  1  0  0  0  0  0  0  0  0  0
    2.9282    0.7309    3.9299 C   0  0  0  0  0  0  0  0  0  0  0  0
    2.8175    1.8921    4.9642 C   0  0  0  0  0  0  0  0  0  0  0  0
    1.3767    2.7108    5.2172 C   0  0  2  0  0  0  0  0  0  0  0  0
    0.8747    1.3879    6.2107 C   0  0  0  0  0  0  0  0  0  0  0  0
    0.6746   -0.1318    5.8805 C   0  0  1  0  0  0  0  0  0  0  0  0
    0.3855   -0.7961    7.0990 O   0  0  0  0  0  0  0  0  0  0  0  0
   -0.4207   -0.4946    4.9155 C   0  0  0  0  0  0  0  0  0  0  0  0
   -0.9674    0.3206    4.0041 C   0  0  0  0  0  0  0  0  0  0  0  0
   -0.5922    1.7657    3.7489 C   0  0  1  0  0  0  0  0  0  0  0  0
   -1.5910    2.1667    2.7894 O   0  0  0  0  0  0  0  0  0  0  0  0
   -2.3962    3.1867    3.1437 C   0  0  0  0  0  0  0  0  0  0  0  0
   -3.3807    3.5882    2.5272 O   0  0  0  0  0  0  0  0  0  0  0  0
   -1.8248    3.7861    4.3392 C   0  0  0  0  0  0  0  0  0  0  0  0
   -0.9266    4.6946    4.0236 C   0  0  0  0  0  0  0  0  0  0  0  0
    0.5054    4.1259    3.9986 C   0  0  1  0  0  0  0  0  0  0  0  0
    1.3827    5.1870    3.3525 C   0  0  1  0  0  0  0  0  0  0  0  0
    1.2413    6.4837    3.9478 O   0  0  0  0  0  0  0  0  0  0  0  0
    2.5498    4.3785    3.6710 C   0  0  0  0  0  0  0  0  0  0  0  0
    2.5901    4.5411    5.0908 C   0  0  0  0  0  0  0  0  0  0  0  0
    3.2802    5.5462    5.7356 O   0  0  0  0  0  0  0  0  0  0  0  0
    4.1783    6.3340    4.9606 C   0  0  0  0  0  0  0  0  0  0  0  0
    1.5614    3.7951    6.1136 C   0  0  2  0  0  0  0  0  0  0  0  0
    2.2675    3.6467    7.4895 C   0  0  0  0  0  0  0  0  0  0  0  0
   -0.1252    3.7248    6.2647 C   0  0  0  0  0  0  0  0  0  0  0  0
   -1.1346    2.7555    5.1322 C   0  0  2  0  0  0  0  0  0  0  0  0
   -2.0984    2.0137    5.9117 O   0  0  0  0  0  0  0  0  0  0  0  0
   -3.0352    2.7419    6.7090 C   0  0  0  0  0  0  0  0  0  0  0  0
    2.1900    3.0664    2.6264 C   0  0  0  0  0  0  0  0  0  0  0  0
    0.9634    1.8005    2.8345 C   0  0  1  0  0  0  0  0  0  0  0  0
    2.4491   -2.3353    1.2921 H   0  0  0  0  0  0  0  0  0  0  0  0
    1.6681   -2.2412    2.8607 H   0  0  0  0  0  0  0  0  0  0  0  0
    3.3745   -1.7988    2.6790 H   0  0  0  0  0  0  0  0  0  0  0  0
    2.7217    0.1721    1.2349 H   0  0  0  0  0  0  0  0  0  0  0  0
    1.0556   -0.3574    1.2990 H   0  0  0  0  0  0  0  0  0  0  0  0
    3.2110   -0.1963    4.4214 H   0  0  0  0  0  0  0  0  0  0  0  0
    3.7957    0.8987    3.2912 H   0  0  0  0  0  0  0  0  0  0  0  0
    3.2347    1.4914    5.8854 H   0  0  0  0  0  0  0  0  0  0  0  0
    3.6891    2.4960    4.7232 H   0  0  0  0  0  0  0  0  0  0  0  0
    1.6029    1.3002    7.0110 H   0  0  0  0  0  0  0  0  0  0  0  0
    0.0156    1.5105    6.8583 H   0  0  0  0  0  0  0  0  0  0  0  0
    1.5778   -0.6335    5.5578 H   0  0  0  0  0  0  0  0  0  0  0  0
    1.1781   -0.8315    7.6159 H   0  0  0  0  0  0  0  0  0  0  0  0
   -0.7786   -1.5122    4.9690 H   0  0  0  0  0  0  0  0  0  0  0  0
   -1.7511   -0.0800    3.3828 H   0  0  0  0  0  0  0  0  0  0  0  0
   -1.1182    5.3867    3.2090 H   0  0  0  0  0  0  0  0  0  0  0  0
    0.1351    3.8481    3.0175 H   0  0  0  0  0  0  0  0  0  0  0  0
    1.2936    5.3353    2.2773 H   0  0  0  0  0  0  0  0  0  0  0  0
    0.9697    7.1037    3.2736 H   0  0  0  0  0  0  0  0  0  0  0  0
    4.6754    7.0385    5.6268 H   0  0  0  0  0  0  0  0  0  0  0  0
    3.6828    6.9314    4.1957 H   0  0  0  0  0  0  0  0  0  0  0  0
    4.9445    5.7223    4.4854 H   0  0  0  0  0  0  0  0  0  0  0  0
    1.7173    3.0480    8.2138 H   0  0  0  0  0  0  0  0  0  0  0  0
    2.3858    4.6273    7.9462 H   0  0  0  0  0  0  0  0  0  0  0  0
    3.2685    3.2301    7.3884 H   0  0  0  0  0  0  0  0  0  0  0  0
   -0.3516    3.4174    7.2859 H   0  0  0  0  0  0  0  0  0  0  0  0
   -0.4861    4.7499    6.3863 H   0  0  0  0  0  0  0  0  0  0  0  0
   -3.6550    2.0330    7.2531 H   0  0  0  0  0  0  0  0  0  0  0  0
   -3.7168    3.3402    6.1032 H   0  0  0  0  0  0  0  0  0  0  0  0
   -2.5723    3.3830    7.4568 H   0  0  0  0  0  0  0  0  0  0  0  0
    1.9521    3.4933    1.6566 H   0  0  0  0  0  0  0  0  0  0  0  0
    3.1452    2.6346    2.3577 H   0  0  0  0  0  0  0  0  0  0  0  0
    0.5883    1.6974    1.8159 H   0  0  0  0  0  0  0  0  0  0  0  0
    1.0762   -0.0244    3.6399 H   0  0  0  0  0  0  0  0  0  0  0  0
  1  2  1  0
  1 33  1  0
  1 34  1  0
  1 35  1  0
  2  3  1  0
  2 36  1  0
  2 37  1  0
  3 32  1  0
  3  4  1  0
  3 66  1  1
  4  5  1  0
  4 38  1  0
  4 39  1  0
  5  6  1  0
  5 40  1  0
  5 41  1  0
  6 18  1  0
  6 25  1  0
  6  7  1  1
  7  8  1  0
  7 42  1  0
  7 43  1  0
  8  9  1  0
  8 10  1  0
  8 44  1  6
  9 45  1  0
 10 11  2  3
 10 46  1  0
 11 12  1  0
 11 47  1  0
 12 28  1  0
 12 32  1  0
 12 13  1  6
 13 14  1  0
 14 15  2  0
 14 16  1  0
 16 28  1  0
 16 17  2  0
 17 18  1  0
 17 48  1  0
 18 19  1  0
 18 49  1  6
 19 20  1  0
 19 21  1  0
 19 50  1  6
 20 51  1  0
 21 22  2  0
 21 31  1  0
 22 23  1  0
 22 25  1  0
 23 24  1  0
 24 52  1  0
 24 53  1  0
 24 54  1  0
 25 26  1  1
 25 27  1  0
 26 55  1  0
 26 56  1  0
 26 57  1  0
 27 28  1  0
 27 58  1  0
 27 59  1  0
 28 29  1  1
 29 30  1  0
 30 60  1  0
 30 61  1  0
 30 62  1  0
 31 32  1  0
 31 63  1  0
 31 64  1  0
 32 65  1  6
M  CHG  1   3   1
M  END
>  <i_m_ct_stereo_status>  (76) 
1

>  <s_m_source_file>  (76) 
/var/tmp/pbs.5076255.sched01/tmpmjg_sug8/0d5zvyqle.sdf

>  <i_m_source_file_index>  (76) 
36

>  <i_lp_mmshare_version>  (76) 
48012

>  <i_f3d_flags>  (76) 
1

>  <s_epik_input>  (76) 
W0NIM11PQyhbQ0BAXTEoW0NIM10pW0NIMl0yKT1DKFtDQEBIXTNbT0hdKVtDSDJdW0NAQEhdKE4oW0NIMl1bQ0gzXSlbQ0gyXVtDSDJdNClbQ0BAXShPQzU9TykoL1tDSF09W0NIXVxbQ0BASF0oW0NIMl02KVtPSF0pW0NAXTIoT1tDSDNdKUM1PVtDSF1bQ0BASF0zW0NAXTE0Ng==

>  <s_epik_cmdline>  (76) 
J2VwaWtfcHl0aG9uJywgJy1waHQnLCAnMi4wJywgJy1waCcsICc3LjAnLCAnLXRuJywgJzgnLCAnLW1hJywgJzIwMCcsICctaW1hZScsICc8aW5maWxlLm1hZT4nLCAnLW9tYWUnLCAnPG91dGZpbGUubWFlPic=

>  <r_epik_Ionization_Penalty>  (76) 
1.48987

>  <r_epik_Ionization_Penalty_Charging>  (76) 
1.48726

>  <r_epik_Ionization_Penalty_Neutral>  (76) 
0.00260424

>  <r_epik_State_Penalty>  (76) 
1.57639

>  <r_epik_Charging_Adjusted_Penalty>  (76) 
3.06365

>  <i_epik_Tot_Q>  (76) 
1

>  <i_epik_Tot_abs_Q>  (76) 
1

>  <s_epik_Chemistry_Notes>  (76) 
This compound has an ester and may undergo hydrolysis at high or low pH.

>  <s_lp_Force_Field>  (76) 
OPLS3e

>  <r_lp_Energy>  (76) 
731.33

>  <b_lp_Chiralities_Consistent>  (76) 
1

>  <s_lp_Variant>  (76) 
25:0-5

>  <s_i_glide_gridfile>  (76) 
pfpi4k_grid

>  <i_i_glide_lignum>  (76) 
36

>  <i_i_glide_rotatable_bonds>  (76) 
5

>  <r_i_docking_score>  (76) 
-3.17781

>  <r_i_glide_ligand_efficiency>  (76) 
-0.0993065

>  <r_i_glide_ligand_efficiency_sa>  (76) 
-0.315279

>  <r_i_glide_ligand_efficiency_ln>  (76) 
-0.711598

>  <r_i_glide_gscore>  (76) 
-3.17781

>  <r_i_glide_lipo>  (76) 
-0.186959

>  <r_i_glide_hbond>  (76) 
0

>  <r_i_glide_metal>  (76) 
-0

>  <r_i_glide_rewards>  (76) 
-0.378133

>  <r_i_glide_evdw>  (76) 
-25.8984

>  <r_i_glide_ecoul>  (76) 
-8.35033

>  <r_i_glide_erotb>  (76) 
0

>  <r_i_glide_esite>  (76) 
-0.0652448

>  <r_i_glide_emodel>  (76) 
-41.1108

>  <r_i_glide_energy>  (76) 
-34.2488

>  <r_i_glide_einternal>  (76) 
1.50275

>  <r_i_glide_intrahb_reward>  (76) 
-0

>  <i_i_glide_confnum>  (76) 
2

>  <i_i_glide_posenum>  (76) 
40

>  <r_i_glide_eff_state_penalty>  (76) 
0

>  <ligand_id>  (76) 
25

>  <original_smiles>  (76) 
CCN1CCC23CC(O)C=CC45OC(=O)C6=CC2C(O)C(=C(OC)C3(C)CC64OC)CC15

>  <smiles>  (76) 
[H]OC1([H])C([H])=C([H])C23OC(=O)C4=C([H])C5([H])C([H])(O[H])C6=C(OC([H])([H])[H])C(C([H])([H])[H])(C([H])([H])C42OC([H])([H])[H])C5(C1([H])[H])C([H])([H])C([H])([H])[N+]([H])(C([H])([H])C([H])([H])[H])C3([H])C6([H])[H]

$$$$
25:4:1
     RDKit          3D

 66 71  0  0  1  0  0  0  0  0999 V2000
    1.7122    1.3566    1.5704 C   0  0  0  0  0  0  0  0  0  0  0  0
    0.2594    1.3945    2.0812 C   0  0  0  0  0  0  0  0  0  0  0  0
    0.1070    2.1482    3.3594 N   0  0  1  0  0  0  0  0  0  0  0  0
   -1.3062    2.5047    3.6634 C   0  0  0  0  0  0  0  0  0  0  0  0
   -1.5764    2.8935    5.1584 C   0  0  0  0  0  0  0  0  0  0  0  0
   -0.3209    3.0757    6.2641 C   0  0  2  0  0  0  0  0  0  0  0  0
   -0.0519    4.6429    5.5786 C   0  0  0  0  0  0  0  0  0  0  0  0
    0.3086    5.0922    4.1230 C   0  0  1  0  0  0  0  0  0  0  0  0
    0.2132    6.5099    4.1058 O   0  0  0  0  0  0  0  0  0  0  0  0
    1.6705    4.6977    3.6109 C   0  0  0  0  0  0  0  0  0  0  0  0
    2.4082    3.6714    4.0500 C   0  0  0  0  0  0  0  0  0  0  0  0
    2.0343    2.7092    5.1661 C   0  0  1  0  0  0  0  0  0  0  0  0
    3.2302    1.9160    5.3028 O   0  0  0  0  0  0  0  0  0  0  0  0
    3.8447    1.9513    6.5004 C   0  0  0  0  0  0  0  0  0  0  0  0
    4.9396    1.4599    6.7622 O   0  0  0  0  0  0  0  0  0  0  0  0
    2.9230    2.5762    7.4445 C   0  0  0  0  0  0  0  0  0  0  0  0
    2.0999    1.6881    7.9730 C   0  0  0  0  0  0  0  0  0  0  0  0
    0.7808    1.5827    7.1715 C   0  0  1  0  0  0  0  0  0  0  0  0
    0.0749    0.2919    7.5988 C   0  0  1  0  0  0  0  0  0  0  0  0
   -0.1147    0.0530    8.9757 O   0  0  0  0  0  0  0  0  0  0  0  0
   -1.0985    0.7353    6.8737 C   0  0  0  0  0  0  0  0  0  0  0  0
   -1.5176    1.8814    7.6507 C   0  0  0  0  0  0  0  0  0  0  0  0
   -2.4112    1.7587    8.7045 O   0  0  0  0  0  0  0  0  0  0  0  0
   -1.9923    2.1494   10.0266 C   0  0  0  0  0  0  0  0  0  0  0  0
   -0.8291    3.3421    7.5692 C   0  0  2  0  0  0  0  0  0  0  0  0
   -1.9165    4.4518    7.8069 C   0  0  0  0  0  0  0  0  0  0  0  0
    0.7422    3.8740    7.8755 C   0  0  0  0  0  0  0  0  0  0  0  0
    2.0932    3.5660    6.7293 C   0  0  2  0  0  0  0  0  0  0  0  0
    2.8334    4.7914    6.5692 O   0  0  0  0  0  0  0  0  0  0  0  0
    3.4214    5.3838    7.7263 C   0  0  0  0  0  0  0  0  0  0  0  0
   -0.3787    0.5069    5.3346 C   0  0  0  0  0  0  0  0  0  0  0  0
    0.8106    1.5435    4.5299 C   0  0  1  0  0  0  0  0  0  0  0  0
    1.7540    0.7204    0.6907 H   0  0  0  0  0  0  0  0  0  0  0  0
    2.4393    0.9454    2.2706 H   0  0  0  0  0  0  0  0  0  0  0  0
    2.0426    2.3603    1.2959 H   0  0  0  0  0  0  0  0  0  0  0  0
   -0.3458    1.8810    1.3142 H   0  0  0  0  0  0  0  0  0  0  0  0
   -0.1470    0.3895    2.1874 H   0  0  0  0  0  0  0  0  0  0  0  0
   -1.6592    3.2733    2.9775 H   0  0  0  0  0  0  0  0  0  0  0  0
   -1.9604    1.6799    3.3799 H   0  0  0  0  0  0  0  0  0  0  0  0
   -2.2226    3.7622    5.1012 H   0  0  0  0  0  0  0  0  0  0  0  0
   -2.3691    2.2079    5.4414 H   0  0  0  0  0  0  0  0  0  0  0  0
   -0.9764    5.1976    5.6825 H   0  0  0  0  0  0  0  0  0  0  0  0
    0.5650    5.3481    6.1229 H   0  0  0  0  0  0  0  0  0  0  0  0
   -0.4249    4.8244    3.3757 H   0  0  0  0  0  0  0  0  0  0  0  0
    0.3388    6.8564    3.2266 H   0  0  0  0  0  0  0  0  0  0  0  0
    2.0551    5.2860    2.7906 H   0  0  0  0  0  0  0  0  0  0  0  0
    3.3598    3.4983    3.5674 H   0  0  0  0  0  0  0  0  0  0  0  0
    2.4917    0.7305    8.2879 H   0  0  0  0  0  0  0  0  0  0  0  0
    1.4524    0.9678    6.5674 H   0  0  0  0  0  0  0  0  0  0  0  0
    0.5332   -0.6329    7.2288 H   0  0  0  0  0  0  0  0  0  0  0  0
    0.6242    0.4194    9.4394 H   0  0  0  0  0  0  0  0  0  0  0  0
   -2.8449    1.9941   10.6955 H   0  0  0  0  0  0  0  0  0  0  0  0
   -1.6633    3.1889   10.1297 H   0  0  0  0  0  0  0  0  0  0  0  0
   -1.1757    1.5459   10.4041 H   0  0  0  0  0  0  0  0  0  0  0  0
   -1.5415    5.4606    7.6490 H   0  0  0  0  0  0  0  0  0  0  0  0
   -2.3127    4.4915    8.8165 H   0  0  0  0  0  0  0  0  0  0  0  0
   -2.7966    4.2590    7.1931 H   0  0  0  0  0  0  0  0  0  0  0  0
    0.6759    4.9424    8.0748 H   0  0  0  0  0  0  0  0  0  0  0  0
    0.9788    3.5849    8.9026 H   0  0  0  0  0  0  0  0  0  0  0  0
    3.9013    6.3106    7.4250 H   0  0  0  0  0  0  0  0  0  0  0  0
    4.2003    4.7642    8.1706 H   0  0  0  0  0  0  0  0  0  0  0  0
    2.7030    5.6429    8.5021 H   0  0  0  0  0  0  0  0  0  0  0  0
    0.0982   -0.4736    5.3165 H   0  0  0  0  0  0  0  0  0  0  0  0
   -1.1926    0.2371    4.6638 H   0  0  0  0  0  0  0  0  0  0  0  0
    1.4587    0.7649    4.1309 H   0  0  0  0  0  0  0  0  0  0  0  0
    0.5725    3.0357    3.1736 H   0  0  0  0  0  0  0  0  0  0  0  0
  1  2  1  0
  1 33  1  0
  1 34  1  0
  1 35  1  0
  2  3  1  0
  2 36  1  0
  2 37  1  0
  3 32  1  0
  3  4  1  0
  3 66  1  6
  4  5  1  0
  4 38  1  0
  4 39  1  0
  5  6  1  0
  5 40  1  0
  5 41  1  0
  6 18  1  0
  6 25  1  0
  6  7  1  6
  7  8  1  0
  7 42  1  0
  7 43  1  0
  8  9  1  0
  8 10  1  0
  8 44  1  6
  9 45  1  0
 10 11  2  3
 10 46  1  0
 11 12  1  0
 11 47  1  0
 12 28  1  0
 12 32  1  0
 12 13  1  1
 13 14  1  0
 14 15  2  0
 14 16  1  0
 16 28  1  0
 16 17  2  0
 17 18  1  0
 17 48  1  0
 18 19  1  0
 18 49  1  6
 19 20  1  0
 19 21  1  0
 19 50  1  6
 20 51  1  0
 21 22  2  0
 21 31  1  0
 22 23  1  0
 22 25  1  0
 23 24  1  0
 24 52  1  0
 24 53  1  0
 24 54  1  0
 25 26  1  6
 25 27  1  0
 26 55  1  0
 26 56  1  0
 26 57  1  0
 27 28  1  0
 27 58  1  0
 27 59  1  0
 28 29  1  6
 29 30  1  0
 30 60  1  0
 30 61  1  0
 30 62  1  0
 31 32  1  0
 31 63  1  0
 31 64  1  0
 32 65  1  6
M  CHG  1   3   1
M  END
>  <i_m_ct_stereo_status>  (77) 
1

>  <s_m_source_file>  (77) 
/var/tmp/pbs.5076255.sched01/tmpmjg_sug8/0d5zvyqle.sdf

>  <i_m_source_file_index>  (77) 
36

>  <i_lp_mmshare_version>  (77) 
48012

>  <i_f3d_flags>  (77) 
1

>  <s_epik_input>  (77) 
W0NIM11PQyhbQ0BAXTEoW0NIM10pW0NIMl0yKT1DKFtDQEBIXTNbT0hdKVtDSDJdW0NAQEhdKE4oW0NIMl1bQ0gzXSlbQ0gyXVtDSDJdNClbQ0BAXShPQzU9TykoL1tDSF09W0NIXVxbQ0BASF0oW0NIMl02KVtPSF0pW0NAXTIoT1tDSDNdKUM1PVtDSF1bQ0BASF0zW0NAXTE0Ng==

>  <s_epik_cmdline>  (77) 
J2VwaWtfcHl0aG9uJywgJy1waHQnLCAnMi4wJywgJy1waCcsICc3LjAnLCAnLXRuJywgJzgnLCAnLW1hJywgJzIwMCcsICctaW1hZScsICc8aW5maWxlLm1hZT4nLCAnLW9tYWUnLCAnPG91dGZpbGUubWFlPic=

>  <r_epik_Ionization_Penalty>  (77) 
1.48987

>  <r_epik_Ionization_Penalty_Charging>  (77) 
1.48726

>  <r_epik_Ionization_Penalty_Neutral>  (77) 
0.00260424

>  <r_epik_State_Penalty>  (77) 
1.57639

>  <r_epik_Charging_Adjusted_Penalty>  (77) 
3.06365

>  <i_epik_Tot_Q>  (77) 
1

>  <i_epik_Tot_abs_Q>  (77) 
1

>  <s_epik_Chemistry_Notes>  (77) 
This compound has an ester and may undergo hydrolysis at high or low pH.

>  <s_lp_Force_Field>  (77) 
OPLS3e

>  <r_lp_Energy>  (77) 
731.33

>  <b_lp_Chiralities_Consistent>  (77) 
1

>  <s_lp_Variant>  (77) 
25:0-5

>  <s_i_glide_gridfile>  (77) 
pfpi4k_grid

>  <i_i_glide_lignum>  (77) 
36

>  <i_i_glide_rotatable_bonds>  (77) 
5

>  <r_i_docking_score>  (77) 
-2.81963

>  <r_i_glide_ligand_efficiency>  (77) 
-0.0881134

>  <r_i_glide_ligand_efficiency_sa>  (77) 
-0.279743

>  <r_i_glide_ligand_efficiency_ln>  (77) 
-0.631392

>  <r_i_glide_gscore>  (77) 
-2.81963

>  <r_i_glide_lipo>  (77) 
0

>  <r_i_glide_hbond>  (77) 
-0.126431

>  <r_i_glide_metal>  (77) 
-0

>  <r_i_glide_rewards>  (77) 
-0.378133

>  <r_i_glide_evdw>  (77) 
-17.2701

>  <r_i_glide_ecoul>  (77) 
-9.32839

>  <r_i_glide_erotb>  (77) 
0

>  <r_i_glide_esite>  (77) 
-0.0523003

>  <r_i_glide_emodel>  (77) 
-25.4002

>  <r_i_glide_energy>  (77) 
-26.5985

>  <r_i_glide_einternal>  (77) 
14.7942

>  <r_i_glide_intrahb_reward>  (77) 
-0

>  <i_i_glide_confnum>  (77) 
2

>  <i_i_glide_posenum>  (77) 
4

>  <r_i_glide_eff_state_penalty>  (77) 
0

>  <ligand_id>  (77) 
25

>  <original_smiles>  (77) 
CCN1CCC23CC(O)C=CC45OC(=O)C6=CC2C(O)C(=C(OC)C3(C)CC64OC)CC15

>  <smiles>  (77) 
[H]OC1([H])C([H])=C([H])C23OC(=O)C4=C([H])C5([H])C([H])(O[H])C6=C(OC([H])([H])[H])C(C([H])([H])[H])(C([H])([H])C42OC([H])([H])[H])C5(C1([H])[H])C([H])([H])C([H])([H])[N+]([H])(C([H])([H])C([H])([H])[H])C3([H])C6([H])[H]

$$$$
25:4:2
     RDKit          3D

 66 71  0  0  1  0  0  0  0  0999 V2000
    4.9622    2.7289    6.1850 C   0  0  0  0  0  0  0  0  0  0  0  0
    4.4340    2.0288    4.9099 C   0  0  0  0  0  0  0  0  0  0  0  0
    3.2215    1.2016    5.1128 N   0  0  1  0  0  0  0  0  0  0  0  0
    3.4962   -0.0746    5.8078 C   0  0  0  0  0  0  0  0  0  0  0  0
    2.2388   -0.7804    6.3735 C   0  0  0  0  0  0  0  0  0  0  0  0
    0.6942   -0.2458    6.0085 C   0  0  2  0  0  0  0  0  0  0  0  0
    0.8530   -1.0687    4.4917 C   0  0  0  0  0  0  0  0  0  0  0  0
    1.8729   -0.8755    3.3199 C   0  0  1  0  0  0  0  0  0  0  0  0
    1.6362   -1.9144    2.3891 O   0  0  0  0  0  0  0  0  0  0  0  0
    1.8302    0.4278    2.5642 C   0  0  0  0  0  0  0  0  0  0  0  0
    1.3414    1.5920    3.0216 C   0  0  0  0  0  0  0  0  0  0  0  0
    0.7090    1.8337    4.3844 C   0  0  1  0  0  0  0  0  0  0  0  0
    0.2285    3.1982    4.3192 O   0  0  0  0  0  0  0  0  0  0  0  0
   -1.0964    3.3809    4.4913 C   0  0  0  0  0  0  0  0  0  0  0  0
   -1.7165    4.4278    4.2985 O   0  0  0  0  0  0  0  0  0  0  0  0
   -1.6571    2.1249    4.9835 C   0  0  0  0  0  0  0  0  0  0  0  0
   -1.5903    2.0643    6.2993 C   0  0  0  0  0  0  0  0  0  0  0  0
   -0.2807    1.3892    6.7687 C   0  0  1  0  0  0  0  0  0  0  0  0
   -0.1314    1.7299    8.2350 C   0  0  1  0  0  0  0  0  0  0  0  0
   -1.3092    1.4332    8.9652 O   0  0  0  0  0  0  0  0  0  0  0  0
    0.9895    0.8160    8.3291 C   0  0  0  0  0  0  0  0  0  0  0  0
    0.3270   -0.4427    8.1637 C   0  0  0  0  0  0  0  0  0  0  0  0
   -0.1322   -1.2118    9.2191 O   0  0  0  0  0  0  0  0  0  0  0  0
    0.1902   -0.8057   10.5492 C   0  0  0  0  0  0  0  0  0  0  0  0
   -0.2642   -0.9844    6.7382 C   0  0  2  0  0  0  0  0  0  0  0  0
   -0.2847   -2.5381    6.7791 C   0  0  0  0  0  0  0  0  0  0  0  0
   -1.3257   -0.3582    5.5607 C   0  0  0  0  0  0  0  0  0  0  0  0
   -0.8546    0.9934    4.4667 C   0  0  2  0  0  0  0  0  0  0  0  0
   -1.3764    0.5714    3.1847 O   0  0  0  0  0  0  0  0  0  0  0  0
   -1.7643    1.5316    2.1927 C   0  0  0  0  0  0  0  0  0  0  0  0
    2.0395    1.7385    7.3590 C   0  0  0  0  0  0  0  0  0  0  0  0
    2.0255    1.9307    5.5981 C   0  0  1  0  0  0  0  0  0  0  0  0
    5.8977    3.2513    5.9844 H   0  0  0  0  0  0  0  0  0  0  0  0
    5.1792    2.0289    6.9914 H   0  0  0  0  0  0  0  0  0  0  0  0
    4.2492    3.4681    6.5545 H   0  0  0  0  0  0  0  0  0  0  0  0
    4.1854    2.7743    4.1560 H   0  0  0  0  0  0  0  0  0  0  0  0
    5.2008    1.3849    4.4786 H   0  0  0  0  0  0  0  0  0  0  0  0
    4.0947   -0.7311    5.1802 H   0  0  0  0  0  0  0  0  0  0  0  0
    4.1909    0.0767    6.6315 H   0  0  0  0  0  0  0  0  0  0  0  0
    2.3946   -1.8305    6.1448 H   0  0  0  0  0  0  0  0  0  0  0  0
    2.4949   -0.8729    7.4243 H   0  0  0  0  0  0  0  0  0  0  0  0
    1.0454   -2.1143    4.7201 H   0  0  0  0  0  0  0  0  0  0  0  0
   -0.0328   -1.2513    3.8945 H   0  0  0  0  0  0  0  0  0  0  0  0
    2.9004   -1.0748    3.5878 H   0  0  0  0  0  0  0  0  0  0  0  0
    1.7851   -1.5900    1.5143 H   0  0  0  0  0  0  0  0  0  0  0  0
    2.2260    0.4006    1.5600 H   0  0  0  0  0  0  0  0  0  0  0  0
    1.3657    2.4284    2.3401 H   0  0  0  0  0  0  0  0  0  0  0  0
   -1.8607    2.9346    6.8832 H   0  0  0  0  0  0  0  0  0  0  0  0
    0.0664    2.3864    6.5321 H   0  0  0  0  0  0  0  0  0  0  0  0
    0.1333    2.7632    8.4731 H   0  0  0  0  0  0  0  0  0  0  0  0
   -1.1662    1.7062    9.8585 H   0  0  0  0  0  0  0  0  0  0  0  0
   -0.2439   -1.5311   11.2379 H   0  0  0  0  0  0  0  0  0  0  0  0
   -0.2257    0.1568   10.8412 H   0  0  0  0  0  0  0  0  0  0  0  0
    1.2667   -0.7853   10.6879 H   0  0  0  0  0  0  0  0  0  0  0  0
   -0.5318   -3.0143    5.8308 H   0  0  0  0  0  0  0  0  0  0  0  0
   -1.0260   -2.8936    7.4890 H   0  0  0  0  0  0  0  0  0  0  0  0
    0.6639   -2.9454    7.1297 H   0  0  0  0  0  0  0  0  0  0  0  0
   -1.6977   -1.1819    4.9529 H   0  0  0  0  0  0  0  0  0  0  0  0
   -2.2819   -0.1916    6.0537 H   0  0  0  0  0  0  0  0  0  0  0  0
   -2.0980    1.0400    1.2825 H   0  0  0  0  0  0  0  0  0  0  0  0
   -0.9687    2.2194    1.9150 H   0  0  0  0  0  0  0  0  0  0  0  0
   -2.6158    2.1304    2.5103 H   0  0  0  0  0  0  0  0  0  0  0  0
    2.0173    2.7682    7.7242 H   0  0  0  0  0  0  0  0  0  0  0  0
    3.0239    1.4631    7.7133 H   0  0  0  0  0  0  0  0  0  0  0  0
    2.2815    2.9836    5.4656 H   0  0  0  0  0  0  0  0  0  0  0  0
    2.9738    0.9364    4.1607 H   0  0  0  0  0  0  0  0  0  0  0  0
  1  2  1  0
  1 33  1  0
  1 34  1  0
  1 35  1  0
  2  3  1  0
  2 36  1  0
  2 37  1  0
  3 32  1  0
  3  4  1  0
  3 66  1  6
  4  5  1  0
  4 38  1  0
  4 39  1  0
  5  6  1  0
  5 40  1  0
  5 41  1  0
  6 18  1  0
  6 25  1  0
  6  7  1  6
  7  8  1  0
  7 42  1  0
  7 43  1  0
  8  9  1  0
  8 10  1  0
  8 44  1  1
  9 45  1  0
 10 11  2  3
 10 46  1  0
 11 12  1  0
 11 47  1  0
 12 28  1  0
 12 32  1  0
 12 13  1  6
 13 14  1  0
 14 15  2  0
 14 16  1  0
 16 28  1  0
 16 17  2  0
 17 18  1  0
 17 48  1  0
 18 19  1  0
 18 49  1  6
 19 20  1  0
 19 21  1  0
 19 50  1  6
 20 51  1  0
 21 22  2  0
 21 31  1  0
 22 23  1  0
 22 25  1  0
 23 24  1  0
 24 52  1  0
 24 53  1  0
 24 54  1  0
 25 26  1  1
 25 27  1  0
 26 55  1  0
 26 56  1  0
 26 57  1  0
 27 28  1  0
 27 58  1  0
 27 59  1  0
 28 29  1  6
 29 30  1  0
 30 60  1  0
 30 61  1  0
 30 62  1  0
 31 32  1  0
 31 63  1  0
 31 64  1  0
 32 65  1  1
M  CHG  1   3   1
M  END
>  <i_m_ct_stereo_status>  (78) 
1

>  <s_m_source_file>  (78) 
/var/tmp/pbs.5076255.sched01/tmpmjg_sug8/0d5zvyqle.sdf

>  <i_m_source_file_index>  (78) 
36

>  <i_lp_mmshare_version>  (78) 
48012

>  <i_f3d_flags>  (78) 
1

>  <s_epik_input>  (78) 
W0NIM11PQyhbQ0BAXTEoW0NIM10pW0NIMl0yKT1DKFtDQEBIXTNbT0hdKVtDSDJdW0NAQEhdKE4oW0NIMl1bQ0gzXSlbQ0gyXVtDSDJdNClbQ0BAXShPQzU9TykoL1tDSF09W0NIXVxbQ0BASF0oW0NIMl02KVtPSF0pW0NAXTIoT1tDSDNdKUM1PVtDSF1bQ0BASF0zW0NAXTE0Ng==

>  <s_epik_cmdline>  (78) 
J2VwaWtfcHl0aG9uJywgJy1waHQnLCAnMi4wJywgJy1waCcsICc3LjAnLCAnLXRuJywgJzgnLCAnLW1hJywgJzIwMCcsICctaW1hZScsICc8aW5maWxlLm1hZT4nLCAnLW9tYWUnLCAnPG91dGZpbGUubWFlPic=

>  <r_epik_Ionization_Penalty>  (78) 
1.48987

>  <r_epik_Ionization_Penalty_Charging>  (78) 
1.48726

>  <r_epik_Ionization_Penalty_Neutral>  (78) 
0.00260424

>  <r_epik_State_Penalty>  (78) 
1.57639

>  <r_epik_Charging_Adjusted_Penalty>  (78) 
3.06365

>  <i_epik_Tot_Q>  (78) 
1

>  <i_epik_Tot_abs_Q>  (78) 
1

>  <s_epik_Chemistry_Notes>  (78) 
This compound has an ester and may undergo hydrolysis at high or low pH.

>  <s_lp_Force_Field>  (78) 
OPLS3e

>  <r_lp_Energy>  (78) 
731.33

>  <b_lp_Chiralities_Consistent>  (78) 
1

>  <s_lp_Variant>  (78) 
25:0-5

>  <s_i_glide_gridfile>  (78) 
pfpi4k_grid

>  <i_i_glide_lignum>  (78) 
36

>  <i_i_glide_rotatable_bonds>  (78) 
5

>  <r_i_docking_score>  (78) 
-2.5333

>  <r_i_glide_ligand_efficiency>  (78) 
-0.0791655

>  <r_i_glide_ligand_efficiency_sa>  (78) 
-0.251335

>  <r_i_glide_ligand_efficiency_ln>  (78) 
-0.567274

>  <r_i_glide_gscore>  (78) 
-2.5333

>  <r_i_glide_lipo>  (78) 
-0.032124

>  <r_i_glide_hbond>  (78) 
-0.22484

>  <r_i_glide_metal>  (78) 
-0

>  <r_i_glide_rewards>  (78) 
-0.378133

>  <r_i_glide_evdw>  (78) 
-18.5203

>  <r_i_glide_ecoul>  (78) 
-6.25666

>  <r_i_glide_erotb>  (78) 
0

>  <r_i_glide_esite>  (78) 
-0.0336858

>  <r_i_glide_emodel>  (78) 
-25.7162

>  <r_i_glide_energy>  (78) 
-24.777

>  <r_i_glide_einternal>  (78) 
9.14209

>  <r_i_glide_intrahb_reward>  (78) 
-0

>  <i_i_glide_confnum>  (78) 
2

>  <i_i_glide_posenum>  (78) 
2

>  <r_i_glide_eff_state_penalty>  (78) 
0

>  <ligand_id>  (78) 
25

>  <original_smiles>  (78) 
CCN1CCC23CC(O)C=CC45OC(=O)C6=CC2C(O)C(=C(OC)C3(C)CC64OC)CC15

>  <smiles>  (78) 
[H]OC1([H])C([H])=C([H])C23OC(=O)C4=C([H])C5([H])C([H])(O[H])C6=C(OC([H])([H])[H])C(C([H])([H])[H])(C([H])([H])C42OC([H])([H])[H])C5(C1([H])[H])C([H])([H])C([H])([H])[N+]([H])(C([H])([H])C([H])([H])[H])C3([H])C6([H])[H]

$$$$
25:5:0
     RDKit          3D

 66 71  0  0  1  0  0  0  0  0999 V2000
    3.7353   -8.2168    1.4118 C   0  0  0  0  0  0  0  0  0  0  0  0
    2.8576   -6.9519    1.4736 C   0  0  0  0  0  0  0  0  0  0  0  0
    3.4719   -5.7131    0.8975 N   0  0  1  0  0  0  0  0  0  0  0  0
    2.3578   -4.7014    0.5675 C   0  0  0  0  0  0  0  0  0  0  0  0
    2.4736   -3.0821    0.2664 C   0  0  0  0  0  0  0  0  0  0  0  0
    3.5203   -1.7970    0.6989 C   0  0  1  0  0  0  0  0  0  0  0  0
    3.7844   -1.2685   -0.8216 C   0  0  0  0  0  0  0  0  0  0  0  0
    3.8912   -2.0990   -2.1708 C   0  0  1  0  0  0  0  0  0  0  0  0
    4.2609   -1.1997   -3.1962 O   0  0  0  0  0  0  0  0  0  0  0  0
    4.9352   -3.1616   -2.0337 C   0  0  0  0  0  0  0  0  0  0  0  0
    4.7955   -4.0802   -1.0494 C   0  0  0  0  0  0  0  0  0  0  0  0
    5.6949   -4.4776    0.1724 C   0  0  1  0  0  0  0  0  0  0  0  0
    7.0192   -4.2191   -0.4786 O   0  0  0  0  0  0  0  0  0  0  0  0
    7.4332   -2.7843   -0.6040 C   0  0  0  0  0  0  0  0  0  0  0  0
    8.2139   -2.2628   -1.3851 O   0  0  0  0  0  0  0  0  0  0  0  0
    6.5858   -2.1545    0.3770 C   0  0  0  0  0  0  0  0  0  0  0  0
    5.9824   -0.9569    0.8170 C   0  0  0  0  0  0  0  0  0  0  0  0
    4.6424   -1.0001    1.8270 C   0  0  2  0  0  0  0  0  0  0  0  0
    4.7080   -1.6369    3.6327 C   0  0  1  0  0  0  0  0  0  0  0  0
    4.1403   -0.7428    4.5721 O   0  0  0  0  0  0  0  0  0  0  0  0
    4.1510   -3.3267    3.8525 C   0  0  0  0  0  0  0  0  0  0  0  0
    3.1620   -3.3421    3.0600 C   0  0  0  0  0  0  0  0  0  0  0  0
    2.1618   -4.2957    3.1050 O   0  0  0  0  0  0  0  0  0  0  0  0
    1.7075   -4.7013    4.3971 C   0  0  0  0  0  0  0  0  0  0  0  0
    3.7889   -2.8078    1.7631 C   0  0  1  0  0  0  0  0  0  0  0  0
    2.4050   -1.7615    2.3757 C   0  0  0  0  0  0  0  0  0  0  0  0
    5.6640   -3.0995    1.9567 C   0  0  0  0  0  0  0  0  0  0  0  0
    6.4583   -3.4837    0.9872 C   0  0  1  0  0  0  0  0  0  0  0  0
    7.7448   -3.9345    1.6406 O   0  0  0  0  0  0  0  0  0  0  0  0
    7.9807   -5.2842    2.0474 C   0  0  0  0  0  0  0  0  0  0  0  0
    4.6264   -4.9129    3.2664 C   0  0  0  0  0  0  0  0  0  0  0  0
    4.8208   -5.3212    1.4954 C   0  0  1  0  0  0  0  0  0  0  0  0
    3.1324   -9.0990    1.6396 H   0  0  0  0  0  0  0  0  0  0  0  0
    4.5384   -8.1931    2.1527 H   0  0  0  0  0  0  0  0  0  0  0  0
    4.1709   -8.3731    0.4206 H   0  0  0  0  0  0  0  0  0  0  0  0
    1.9582   -7.1811    0.9019 H   0  0  0  0  0  0  0  0  0  0  0  0
    2.5105   -6.7917    2.4931 H   0  0  0  0  0  0  0  0  0  0  0  0
    1.9726   -5.1109   -0.3681 H   0  0  0  0  0  0  0  0  0  0  0  0
    1.4687   -4.9149    1.1546 H   0  0  0  0  0  0  0  0  0  0  0  0
    2.2838   -3.1052   -0.7853 H   0  0  0  0  0  0  0  0  0  0  0  0
    1.4754   -2.6773    0.3723 H   0  0  0  0  0  0  0  0  0  0  0  0
    2.8824   -0.6892   -0.9968 H   0  0  0  0  0  0  0  0  0  0  0  0
    4.4643   -0.4266   -0.8885 H   0  0  0  0  0  0  0  0  0  0  0  0
    2.9527   -2.5253   -2.5272 H   0  0  0  0  0  0  0  0  0  0  0  0
    3.5895   -0.5363   -3.2734 H   0  0  0  0  0  0  0  0  0  0  0  0
    5.8543   -2.7011   -2.3267 H   0  0  0  0  0  0  0  0  0  0  0  0
    3.8522   -4.5448   -1.1481 H   0  0  0  0  0  0  0  0  0  0  0  0
    6.1895   -0.0222    0.3049 H   0  0  0  0  0  0  0  0  0  0  0  0
    4.3798    0.0598    1.8808 H   0  0  0  0  0  0  0  0  0  0  0  0
    5.7124   -1.5400    4.0438 H   0  0  0  0  0  0  0  0  0  0  0  0
    3.2528   -0.5533    4.3142 H   0  0  0  0  0  0  0  0  0  0  0  0
    0.8727   -5.3880    4.2538 H   0  0  0  0  0  0  0  0  0  0  0  0
    1.3653   -3.8496    4.9838 H   0  0  0  0  0  0  0  0  0  0  0  0
    2.4570   -5.2343    4.9795 H   0  0  0  0  0  0  0  0  0  0  0  0
    2.2221   -0.7422    1.9823 H   0  0  0  0  0  0  0  0  0  0  0  0
    2.2616   -1.4406    3.4200 H   0  0  0  0  0  0  0  0  0  0  0  0
    1.3875   -2.1706    2.2626 H   0  0  0  0  0  0  0  0  0  0  0  0
    6.3770   -2.4374    2.4748 H   0  0  0  0  0  0  0  0  0  0  0  0
    6.1596   -3.5115    2.8260 H   0  0  0  0  0  0  0  0  0  0  0  0
    9.0041   -5.3544    2.4227 H   0  0  0  0  0  0  0  0  0  0  0  0
    7.8802   -6.0001    1.2264 H   0  0  0  0  0  0  0  0  0  0  0  0
    7.3393   -5.5885    2.8701 H   0  0  0  0  0  0  0  0  0  0  0  0
    5.5444   -5.1437    3.8025 H   0  0  0  0  0  0  0  0  0  0  0  0
    4.0138   -5.7016    3.6844 H   0  0  0  0  0  0  0  0  0  0  0  0
    5.3895   -6.2476    1.5384 H   0  0  0  0  0  0  0  0  0  0  0  0
    3.7461   -6.0194   -0.0277 H   0  0  0  0  0  0  0  0  0  0  0  0
  1  2  1  0
  1 33  1  0
  1 34  1  0
  1 35  1  0
  2  3  1  0
  2 36  1  0
  2 37  1  0
  3 32  1  0
  3  4  1  0
  3 66  1  6
  4  5  1  0
  4 38  1  0
  4 39  1  0
  5  6  1  0
  5 40  1  0
  5 41  1  0
  6 18  1  0
  6 25  1  0
  6  7  1  6
  7  8  1  0
  7 42  1  0
  7 43  1  0
  8  9  1  0
  8 10  1  0
  8 44  1  6
  9 45  1  0
 10 11  2  3
 10 46  1  0
 11 12  1  0
 11 47  1  0
 12 28  1  0
 12 32  1  0
 12 13  1  6
 13 14  1  0
 14 15  2  0
 14 16  1  0
 16 28  1  0
 16 17  2  0
 17 18  1  0
 17 48  1  0
 18 19  1  0
 18 49  1  1
 19 20  1  0
 19 21  1  0
 19 50  1  1
 20 51  1  0
 21 22  2  0
 21 31  1  0
 22 23  1  0
 22 25  1  0
 23 24  1  0
 24 52  1  0
 24 53  1  0
 24 54  1  0
 25 26  1  1
 25 27  1  0
 26 55  1  0
 26 56  1  0
 26 57  1  0
 27 28  1  0
 27 58  1  0
 27 59  1  0
 28 29  1  1
 29 30  1  0
 30 60  1  0
 30 61  1  0
 30 62  1  0
 31 32  1  0
 31 63  1  0
 31 64  1  0
 32 65  1  1
M  CHG  1   3   1
M  END
>  <i_m_ct_stereo_status>  (79) 
1

>  <s_m_source_file>  (79) 
/var/tmp/pbs.5076255.sched01/tmpmjg_sug8/0d5zvyqle.sdf

>  <i_m_source_file_index>  (79) 
37

>  <i_lp_mmshare_version>  (79) 
48012

>  <i_f3d_flags>  (79) 
2

>  <s_epik_input>  (79) 
W0NIM11PQyhbQ0BAXTEoW0NIM10pW0NIMl0yKT1DKFtDQEBIXTNbT0hdKVtDSDJdW0NAQEhdKE4oW0NIMl1bQ0gzXSlbQ0gyXVtDSDJdNClbQ0BAXShPQzU9TykoL1tDSF09W0NIXVxbQ0BASF0oW0NIMl02KVtPSF0pW0NAXTIoT1tDSDNdKUM1PVtDSF1bQ0BASF0zW0NAXTE0Ng==

>  <s_epik_cmdline>  (79) 
J2VwaWtfcHl0aG9uJywgJy1waHQnLCAnMi4wJywgJy1waCcsICc3LjAnLCAnLXRuJywgJzgnLCAnLW1hJywgJzIwMCcsICctaW1hZScsICc8aW5maWxlLm1hZT4nLCAnLW9tYWUnLCAnPG91dGZpbGUubWFlPic=

>  <r_epik_Ionization_Penalty>  (79) 
1.48987

>  <r_epik_Ionization_Penalty_Charging>  (79) 
1.48726

>  <r_epik_Ionization_Penalty_Neutral>  (79) 
0.00260424

>  <r_epik_State_Penalty>  (79) 
1.57639

>  <r_epik_Charging_Adjusted_Penalty>  (79) 
3.06365

>  <i_epik_Tot_Q>  (79) 
1

>  <i_epik_Tot_abs_Q>  (79) 
1

>  <s_epik_Chemistry_Notes>  (79) 
This compound has an ester and may undergo hydrolysis at high or low pH.

>  <s_lp_Force_Field>  (79) 
OPLS3e

>  <r_lp_Energy>  (79) 
1140.03

>  <b_lp_Chiralities_Consistent>  (79) 
0

>  <s_lp_Variant>  (79) 
25:0-6

>  <s_i_glide_gridfile>  (79) 
pfpi4k_grid

>  <i_i_glide_lignum>  (79) 
37

>  <i_i_glide_rotatable_bonds>  (79) 
5

>  <r_i_docking_score>  (79) 
-2.9893

>  <r_i_glide_ligand_efficiency>  (79) 
-0.0934158

>  <r_i_glide_ligand_efficiency_sa>  (79) 
-0.296577

>  <r_i_glide_ligand_efficiency_ln>  (79) 
-0.669387

>  <r_i_glide_gscore>  (79) 
-2.9893

>  <r_i_glide_lipo>  (79) 
-0.713838

>  <r_i_glide_hbond>  (79) 
-0.16

>  <r_i_glide_metal>  (79) 
-0

>  <r_i_glide_rewards>  (79) 
-0.378133

>  <r_i_glide_evdw>  (79) 
-16.5234

>  <r_i_glide_ecoul>  (79) 
-6.03949

>  <r_i_glide_erotb>  (79) 
0

>  <r_i_glide_esite>  (79) 
-0.00523864

>  <r_i_glide_emodel>  (79) 
-25.1374

>  <r_i_glide_energy>  (79) 
-22.5629

>  <r_i_glide_einternal>  (79) 
0.568903

>  <r_i_glide_intrahb_reward>  (79) 
-0

>  <i_i_glide_confnum>  (79) 
2

>  <i_i_glide_posenum>  (79) 
14

>  <r_i_glide_eff_state_penalty>  (79) 
0

>  <ligand_id>  (79) 
25

>  <original_smiles>  (79) 
CCN1CCC23CC(O)C=CC45OC(=O)C6=CC2C(O)C(=C(OC)C3(C)CC64OC)CC15

>  <smiles>  (79) 
[H]OC1([H])C([H])=C([H])C23OC(=O)C4=C([H])C5([H])C([H])(O[H])C6=C(OC([H])([H])[H])C(C([H])([H])[H])(C([H])([H])C42OC([H])([H])[H])C5(C1([H])[H])C([H])([H])C([H])([H])[N+]([H])(C([H])([H])C([H])([H])[H])C3([H])C6([H])[H]

$$$$
25:5:1
     RDKit          3D

 66 71  0  0  1  0  0  0  0  0999 V2000
    3.5845   -8.2947    1.2638 C   0  0  0  0  0  0  0  0  0  0  0  0
    2.7153   -7.0367    1.3935 C   0  0  0  0  0  0  0  0  0  0  0  0
    3.3672   -5.7546    0.9564 N   0  0  1  0  0  0  0  0  0  0  0  0
    2.2857   -4.6427    0.8839 C   0  0  0  0  0  0  0  0  0  0  0  0
    2.4797   -3.0106    0.8348 C   0  0  0  0  0  0  0  0  0  0  0  0
    3.6303   -1.8496    1.3731 C   0  0  1  0  0  0  0  0  0  0  0  0
    3.7987   -1.1111   -0.0680 C   0  0  0  0  0  0  0  0  0  0  0  0
    3.7323   -1.7034   -1.5465 C   0  0  1  0  0  0  0  0  0  0  0  0
    4.1306   -0.6677   -2.4257 O   0  0  0  0  0  0  0  0  0  0  0  0
    4.6526   -2.8635   -1.7385 C   0  0  0  0  0  0  0  0  0  0  0  0
    4.5611   -3.8746   -0.8306 C   0  0  0  0  0  0  0  0  0  0  0  0
    5.5456   -4.4721    0.2379 C   0  0  1  0  0  0  0  0  0  0  0  0
    6.7800   -4.1851   -0.5213 O   0  0  0  0  0  0  0  0  0  0  0  0
    7.2528   -2.7847   -0.4997 C   0  0  0  0  0  0  0  0  0  0  0  0
    8.0987   -2.2570   -1.2411 O   0  0  0  0  0  0  0  0  0  0  0  0
    6.6240   -2.2403    0.6814 C   0  0  0  0  0  0  0  0  0  0  0  0
    6.1304   -1.1138    1.3959 C   0  0  0  0  0  0  0  0  0  0  0  0
    4.8872   -1.2831    2.5100 C   0  0  2  0  0  0  0  0  0  0  0  0
    5.0360   -2.2572    4.1716 C   0  0  1  0  0  0  0  0  0  0  0  0
    4.6009   -1.5058    5.2867 O   0  0  0  0  0  0  0  0  0  0  0  0
    4.3979   -3.9281    4.1545 C   0  0  0  0  0  0  0  0  0  0  0  0
    3.3534   -3.7614    3.4728 C   0  0  0  0  0  0  0  0  0  0  0  0
    2.3031   -4.6605    3.4642 O   0  0  0  0  0  0  0  0  0  0  0  0
    1.9147   -5.2243    4.7180 C   0  0  0  0  0  0  0  0  0  0  0  0
    3.8905   -3.0466    2.2107 C   0  0  1  0  0  0  0  0  0  0  0  0
    2.6416   -2.0408    3.1035 C   0  0  0  0  0  0  0  0  0  0  0  0
    5.7493   -3.4288    2.1525 C   0  0  0  0  0  0  0  0  0  0  0  0
    6.4925   -3.6531    1.0781 C   0  0  1  0  0  0  0  0  0  0  0  0
    7.7678   -4.3474    1.5820 O   0  0  0  0  0  0  0  0  0  0  0  0
    9.1556   -4.0017    1.2867 C   0  0  0  0  0  0  0  0  0  0  0  0
    4.7444   -5.4115    3.2876 C   0  0  0  0  0  0  0  0  0  0  0  0
    4.7895   -5.5245    1.4764 C   0  0  1  0  0  0  0  0  0  0  0  0
    2.9519   -9.1776    1.3761 H   0  0  0  0  0  0  0  0  0  0  0  0
    4.3397   -8.3454    2.0582 H   0  0  0  0  0  0  0  0  0  0  0  0
    4.0907   -8.3787    0.2922 H   0  0  0  0  0  0  0  0  0  0  0  0
    1.8368   -7.1595    0.7740 H   0  0  0  0  0  0  0  0  0  0  0  0
    2.3428   -6.9576    2.4090 H   0  0  0  0  0  0  0  0  0  0  0  0
    1.8356   -4.8753   -0.0713 H   0  0  0  0  0  0  0  0  0  0  0  0
    1.4292   -4.9012    1.5063 H   0  0  0  0  0  0  0  0  0  0  0  0
    2.2280   -2.8487   -0.1834 H   0  0  0  0  0  0  0  0  0  0  0  0
    1.5119   -2.6052    1.0852 H   0  0  0  0  0  0  0  0  0  0  0  0
    2.9126   -0.4917   -0.0252 H   0  0  0  0  0  0  0  0  0  0  0  0
    4.5133   -0.2972   -0.0740 H   0  0  0  0  0  0  0  0  0  0  0  0
    2.7348   -2.0004   -1.8806 H   0  0  0  0  0  0  0  0  0  0  0  0
    3.3942   -0.0846   -2.5466 H   0  0  0  0  0  0  0  0  0  0  0  0
    5.5579   -2.4083   -2.0875 H   0  0  0  0  0  0  0  0  0  0  0  0
    3.6099   -4.3237   -0.9556 H   0  0  0  0  0  0  0  0  0  0  0  0
    6.2943   -0.1143    0.9976 H   0  0  0  0  0  0  0  0  0  0  0  0
    4.6927   -0.2479    2.7792 H   0  0  0  0  0  0  0  0  0  0  0  0
    6.0453   -2.3718    4.5360 H   0  0  0  0  0  0  0  0  0  0  0  0
    3.7102   -1.2178    5.1441 H   0  0  0  0  0  0  0  0  0  0  0  0
    1.0241   -5.8300    4.5319 H   0  0  0  0  0  0  0  0  0  0  0  0
    1.6634   -4.4491    5.4427 H   0  0  0  0  0  0  0  0  0  0  0  0
    2.6603   -5.8875    5.1597 H   0  0  0  0  0  0  0  0  0  0  0  0
    2.4943   -0.9609    2.8982 H   0  0  0  0  0  0  0  0  0  0  0  0
    2.6013   -1.8968    4.1947 H   0  0  0  0  0  0  0  0  0  0  0  0
    1.5903   -2.3806    3.0274 H   0  0  0  0  0  0  0  0  0  0  0  0
    6.5099   -2.9026    2.7196 H   0  0  0  0  0  0  0  0  0  0  0  0
    6.2692   -4.0516    2.8502 H   0  0  0  0  0  0  0  0  0  0  0  0
    9.8969   -4.4706    1.9311 H   0  0  0  0  0  0  0  0  0  0  0  0
    9.3634   -2.9314    1.3445 H   0  0  0  0  0  0  0  0  0  0  0  0
    9.4187   -4.3154    0.2701 H   0  0  0  0  0  0  0  0  0  0  0  0
    5.7084   -5.7603    3.6656 H   0  0  0  0  0  0  0  0  0  0  0  0
    4.1093   -6.2282    3.6385 H   0  0  0  0  0  0  0  0  0  0  0  0
    5.3480   -6.4333    1.3389 H   0  0  0  0  0  0  0  0  0  0  0  0
    3.5712   -5.9214   -0.0252 H   0  0  0  0  0  0  0  0  0  0  0  0
  1  2  1  0
  1 33  1  0
  1 34  1  0
  1 35  1  0
  2  3  1  0
  2 36  1  0
  2 37  1  0
  3 32  1  0
  3  4  1  0
  3 66  1  6
  4  5  1  0
  4 38  1  0
  4 39  1  0
  5  6  1  0
  5 40  1  0
  5 41  1  0
  6 18  1  0
  6 25  1  0
  6  7  1  6
  7  8  1  0
  7 42  1  0
  7 43  1  0
  8  9  1  0
  8 10  1  0
  8 44  1  6
  9 45  1  0
 10 11  2  3
 10 46  1  0
 11 12  1  0
 11 47  1  0
 12 28  1  0
 12 32  1  0
 12 13  1  6
 13 14  1  0
 14 15  2  0
 14 16  1  0
 16 28  1  0
 16 17  2  0
 17 18  1  0
 17 48  1  0
 18 19  1  0
 18 49  1  1
 19 20  1  0
 19 21  1  0
 19 50  1  1
 20 51  1  0
 21 22  2  0
 21 31  1  0
 22 23  1  0
 22 25  1  0
 23 24  1  0
 24 52  1  0
 24 53  1  0
 24 54  1  0
 25 26  1  1
 25 27  1  0
 26 55  1  0
 26 56  1  0
 26 57  1  0
 27 28  1  0
 27 58  1  0
 27 59  1  0
 28 29  1  1
 29 30  1  0
 30 60  1  0
 30 61  1  0
 30 62  1  0
 31 32  1  0
 31 63  1  0
 31 64  1  0
 32 65  1  1
M  CHG  1   3   1
M  END
>  <i_m_ct_stereo_status>  (80) 
1

>  <s_m_source_file>  (80) 
/var/tmp/pbs.5076255.sched01/tmpmjg_sug8/0d5zvyqle.sdf

>  <i_m_source_file_index>  (80) 
37

>  <i_lp_mmshare_version>  (80) 
48012

>  <i_f3d_flags>  (80) 
2

>  <s_epik_input>  (80) 
W0NIM11PQyhbQ0BAXTEoW0NIM10pW0NIMl0yKT1DKFtDQEBIXTNbT0hdKVtDSDJdW0NAQEhdKE4oW0NIMl1bQ0gzXSlbQ0gyXVtDSDJdNClbQ0BAXShPQzU9TykoL1tDSF09W0NIXVxbQ0BASF0oW0NIMl02KVtPSF0pW0NAXTIoT1tDSDNdKUM1PVtDSF1bQ0BASF0zW0NAXTE0Ng==

>  <s_epik_cmdline>  (80) 
J2VwaWtfcHl0aG9uJywgJy1waHQnLCAnMi4wJywgJy1waCcsICc3LjAnLCAnLXRuJywgJzgnLCAnLW1hJywgJzIwMCcsICctaW1hZScsICc8aW5maWxlLm1hZT4nLCAnLW9tYWUnLCAnPG91dGZpbGUubWFlPic=

>  <r_epik_Ionization_Penalty>  (80) 
1.48987

>  <r_epik_Ionization_Penalty_Charging>  (80) 
1.48726

>  <r_epik_Ionization_Penalty_Neutral>  (80) 
0.00260424

>  <r_epik_State_Penalty>  (80) 
1.57639

>  <r_epik_Charging_Adjusted_Penalty>  (80) 
3.06365

>  <i_epik_Tot_Q>  (80) 
1

>  <i_epik_Tot_abs_Q>  (80) 
1

>  <s_epik_Chemistry_Notes>  (80) 
This compound has an ester and may undergo hydrolysis at high or low pH.

>  <s_lp_Force_Field>  (80) 
OPLS3e

>  <r_lp_Energy>  (80) 
1140.03

>  <b_lp_Chiralities_Consistent>  (80) 
0

>  <s_lp_Variant>  (80) 
25:0-6

>  <s_i_glide_gridfile>  (80) 
pfpi4k_grid

>  <i_i_glide_lignum>  (80) 
37

>  <i_i_glide_rotatable_bonds>  (80) 
5

>  <r_i_docking_score>  (80) 
-2.69951

>  <r_i_glide_ligand_efficiency>  (80) 
-0.0843598

>  <r_i_glide_ligand_efficiency_sa>  (80) 
-0.267826

>  <r_i_glide_ligand_efficiency_ln>  (80) 
-0.604495

>  <r_i_glide_gscore>  (80) 
-2.69951

>  <r_i_glide_lipo>  (80) 
-0.607594

>  <r_i_glide_hbond>  (80) 
-0.16

>  <r_i_glide_metal>  (80) 
-0

>  <r_i_glide_rewards>  (80) 
-0.379044

>  <r_i_glide_evdw>  (80) 
-14.868

>  <r_i_glide_ecoul>  (80) 
-5.39652

>  <r_i_glide_erotb>  (80) 
0

>  <r_i_glide_esite>  (80) 
0

>  <r_i_glide_emodel>  (80) 
-13.2518

>  <r_i_glide_energy>  (80) 
-20.2645

>  <r_i_glide_einternal>  (80) 
15.5078

>  <r_i_glide_intrahb_reward>  (80) 
-0

>  <i_i_glide_confnum>  (80) 
2

>  <i_i_glide_posenum>  (80) 
8

>  <r_i_glide_eff_state_penalty>  (80) 
0

>  <ligand_id>  (80) 
25

>  <original_smiles>  (80) 
CCN1CCC23CC(O)C=CC45OC(=O)C6=CC2C(O)C(=C(OC)C3(C)CC64OC)CC15

>  <smiles>  (80) 
[H]OC1([H])C([H])=C([H])C23OC(=O)C4=C([H])C5([H])C([H])(O[H])C6=C(OC([H])([H])[H])C(C([H])([H])[H])(C([H])([H])C42OC([H])([H])[H])C5(C1([H])[H])C([H])([H])C([H])([H])[N+]([H])(C([H])([H])C([H])([H])[H])C3([H])C6([H])[H]

$$$$
25:5:2
     RDKit          3D

 66 71  0  0  1  0  0  0  0  0999 V2000
    3.4697   -7.5587    2.7584 C   0  0  0  0  0  0  0  0  0  0  0  0
    2.7522   -6.2042    2.7731 C   0  0  0  0  0  0  0  0  0  0  0  0
    3.3163   -5.1686    1.8734 N   0  0  1  0  0  0  0  0  0  0  0  0
    2.2386   -4.1435    1.5444 C   0  0  0  0  0  0  0  0  0  0  0  0
    2.3738   -2.6438    0.9067 C   0  0  0  0  0  0  0  0  0  0  0  0
    3.5362   -1.3938    0.8720 C   0  0  1  0  0  0  0  0  0  0  0  0
    3.5611   -1.2271   -0.7422 C   0  0  0  0  0  0  0  0  0  0  0  0
    3.3387   -2.2721   -1.9137 C   0  0  1  0  0  0  0  0  0  0  0  0
    3.6047   -1.5956   -3.1213 O   0  0  0  0  0  0  0  0  0  0  0  0
    4.2546   -3.4357   -1.7872 C   0  0  0  0  0  0  0  0  0  0  0  0
    4.2790   -4.0511   -0.5858 C   0  0  0  0  0  0  0  0  0  0  0  0
    5.3700   -4.2521    0.5047 C   0  0  1  0  0  0  0  0  0  0  0  0
    6.4979   -4.2553   -0.4742 O   0  0  0  0  0  0  0  0  0  0  0  0
    6.9455   -2.8849   -0.9569 C   0  0  0  0  0  0  0  0  0  0  0  0
    7.6741   -2.6091   -1.8993 O   0  0  0  0  0  0  0  0  0  0  0  0
    6.4238   -2.0139    0.0642 C   0  0  0  0  0  0  0  0  0  0  0  0
    5.9972   -0.7087    0.3988 C   0  0  0  0  0  0  0  0  0  0  0  0
    4.8680   -0.4867    1.6151 C   0  0  2  0  0  0  0  0  0  0  0  0
    5.2324   -0.7898    3.4466 C   0  0  1  0  0  0  0  0  0  0  0  0
    4.8884    0.3173    4.2809 O   0  0  0  0  0  0  0  0  0  0  0  0
    4.6519   -2.3446    4.0948 C   0  0  0  0  0  0  0  0  0  0  0  0
    3.5201   -2.4178    3.5303 C   0  0  0  0  0  0  0  0  0  0  0  0
    2.4989   -3.2610    3.9395 O   0  0  0  0  0  0  0  0  0  0  0  0
    2.2383   -3.3473    5.3422 C   0  0  0  0  0  0  0  0  0  0  0  0
    3.9224   -2.2058    2.0531 C   0  0  1  0  0  0  0  0  0  0  0  0
    2.7297   -0.9293    2.6596 C   0  0  0  0  0  0  0  0  0  0  0  0
    5.7735   -2.5987    1.9319 C   0  0  0  0  0  0  0  0  0  0  0  0
    6.3744   -3.2003    0.9047 C   0  0  1  0  0  0  0  0  0  0  0  0
    7.7120   -3.7828    1.3924 O   0  0  0  0  0  0  0  0  0  0  0  0
    9.0363   -3.2919    1.0093 C   0  0  0  0  0  0  0  0  0  0  0  0
    4.9289   -4.0454    3.7733 C   0  0  0  0  0  0  0  0  0  0  0  0
    4.7719   -4.7868    2.1220 C   0  0  1  0  0  0  0  0  0  0  0  0
    2.8486   -8.2992    3.2659 H   0  0  0  0  0  0  0  0  0  0  0  0
    4.4172   -7.5161    3.3006 H   0  0  0  0  0  0  0  0  0  0  0  0
    3.6425   -7.9288    1.7420 H   0  0  0  0  0  0  0  0  0  0  0  0
    1.7300   -6.4203    2.4457 H   0  0  0  0  0  0  0  0  0  0  0  0
    2.6251   -5.8515    3.7965 H   0  0  0  0  0  0  0  0  0  0  0  0
    1.7173   -4.7020    0.7694 H   0  0  0  0  0  0  0  0  0  0  0  0
    1.4315   -4.1392    2.2799 H   0  0  0  0  0  0  0  0  0  0  0  0
    2.0012   -2.8371   -0.0748 H   0  0  0  0  0  0  0  0  0  0  0  0
    1.4153   -2.1877    1.1268 H   0  0  0  0  0  0  0  0  0  0  0  0
    2.6314   -0.6881   -0.8527 H   0  0  0  0  0  0  0  0  0  0  0  0
    4.2059   -0.4285   -1.0949 H   0  0  0  0  0  0  0  0  0  0  0  0
    2.3221   -2.6473   -2.0041 H   0  0  0  0  0  0  0  0  0  0  0  0
    2.8539   -1.0587   -3.3307 H   0  0  0  0  0  0  0  0  0  0  0  0
    5.1040   -3.1178   -2.3650 H   0  0  0  0  0  0  0  0  0  0  0  0
    3.3311   -4.4951   -0.4303 H   0  0  0  0  0  0  0  0  0  0  0  0
    6.1023    0.1089   -0.3009 H   0  0  0  0  0  0  0  0  0  0  0  0
    4.6525    0.5760    1.4915 H   0  0  0  0  0  0  0  0  0  0  0  0
    6.2884   -0.6764    3.6510 H   0  0  0  0  0  0  0  0  0  0  0  0
    4.0750    0.6941    3.9818 H   0  0  0  0  0  0  0  0  0  0  0  0
    1.3498   -3.9702    5.4624 H   0  0  0  0  0  0  0  0  0  0  0  0
    2.0490   -2.3646    5.7746 H   0  0  0  0  0  0  0  0  0  0  0  0
    3.0324   -3.8243    5.9122 H   0  0  0  0  0  0  0  0  0  0  0  0
    2.5389    0.0030    2.0894 H   0  0  0  0  0  0  0  0  0  0  0  0
    2.7981   -0.4126    3.6260 H   0  0  0  0  0  0  0  0  0  0  0  0
    1.6919   -1.2596    2.8121 H   0  0  0  0  0  0  0  0  0  0  0  0
    6.6033   -1.9395    2.2058 H   0  0  0  0  0  0  0  0  0  0  0  0
    6.3984   -2.9547    2.7209 H   0  0  0  0  0  0  0  0  0  0  0  0
    9.8438   -3.5542    1.7213 H   0  0  0  0  0  0  0  0  0  0  0  0
    9.0653   -2.2101    0.8801 H   0  0  0  0  0  0  0  0  0  0  0  0
    9.3982   -3.7008    0.0723 H   0  0  0  0  0  0  0  0  0  0  0  0
    5.9325   -4.2581    4.1482 H   0  0  0  0  0  0  0  0  0  0  0  0
    4.3668   -4.6828    4.4436 H   0  0  0  0  0  0  0  0  0  0  0  0
    5.3048   -5.7169    2.2743 H   0  0  0  0  0  0  0  0  0  0  0  0
    3.4120   -5.6652    1.0053 H   0  0  0  0  0  0  0  0  0  0  0  0
  1  2  1  0
  1 33  1  0
  1 34  1  0
  1 35  1  0
  2  3  1  0
  2 36  1  0
  2 37  1  0
  3 32  1  0
  3  4  1  0
  3 66  1  6
  4  5  1  0
  4 38  1  0
  4 39  1  0
  5  6  1  0
  5 40  1  0
  5 41  1  0
  6 18  1  0
  6 25  1  0
  6  7  1  6
  7  8  1  0
  7 42  1  0
  7 43  1  0
  8  9  1  0
  8 10  1  0
  8 44  1  6
  9 45  1  0
 10 11  2  3
 10 46  1  0
 11 12  1  0
 11 47  1  0
 12 28  1  0
 12 32  1  0
 12 13  1  6
 13 14  1  0
 14 15  2  0
 14 16  1  0
 16 28  1  0
 16 17  2  0
 17 18  1  0
 17 48  1  0
 18 19  1  0
 18 49  1  1
 19 20  1  0
 19 21  1  0
 19 50  1  6
 20 51  1  0
 21 22  2  0
 21 31  1  0
 22 23  1  0
 22 25  1  0
 23 24  1  0
 24 52  1  0
 24 53  1  0
 24 54  1  0
 25 26  1  1
 25 27  1  0
 26 55  1  0
 26 56  1  0
 26 57  1  0
 27 28  1  0
 27 58  1  0
 27 59  1  0
 28 29  1  1
 29 30  1  0
 30 60  1  0
 30 61  1  0
 30 62  1  0
 31 32  1  0
 31 63  1  0
 31 64  1  0
 32 65  1  1
M  CHG  1   3   1
M  END
>  <i_m_ct_stereo_status>  (81) 
1

>  <s_m_source_file>  (81) 
/var/tmp/pbs.5076255.sched01/tmpmjg_sug8/0d5zvyqle.sdf

>  <i_m_source_file_index>  (81) 
37

>  <i_lp_mmshare_version>  (81) 
48012

>  <i_f3d_flags>  (81) 
2

>  <s_epik_input>  (81) 
W0NIM11PQyhbQ0BAXTEoW0NIM10pW0NIMl0yKT1DKFtDQEBIXTNbT0hdKVtDSDJdW0NAQEhdKE4oW0NIMl1bQ0gzXSlbQ0gyXVtDSDJdNClbQ0BAXShPQzU9TykoL1tDSF09W0NIXVxbQ0BASF0oW0NIMl02KVtPSF0pW0NAXTIoT1tDSDNdKUM1PVtDSF1bQ0BASF0zW0NAXTE0Ng==

>  <s_epik_cmdline>  (81) 
J2VwaWtfcHl0aG9uJywgJy1waHQnLCAnMi4wJywgJy1waCcsICc3LjAnLCAnLXRuJywgJzgnLCAnLW1hJywgJzIwMCcsICctaW1hZScsICc8aW5maWxlLm1hZT4nLCAnLW9tYWUnLCAnPG91dGZpbGUubWFlPic=

>  <r_epik_Ionization_Penalty>  (81) 
1.48987

>  <r_epik_Ionization_Penalty_Charging>  (81) 
1.48726

>  <r_epik_Ionization_Penalty_Neutral>  (81) 
0.00260424

>  <r_epik_State_Penalty>  (81) 
1.57639

>  <r_epik_Charging_Adjusted_Penalty>  (81) 
3.06365

>  <i_epik_Tot_Q>  (81) 
1

>  <i_epik_Tot_abs_Q>  (81) 
1

>  <s_epik_Chemistry_Notes>  (81) 
This compound has an ester and may undergo hydrolysis at high or low pH.

>  <s_lp_Force_Field>  (81) 
OPLS3e

>  <r_lp_Energy>  (81) 
1140.03

>  <b_lp_Chiralities_Consistent>  (81) 
0

>  <s_lp_Variant>  (81) 
25:0-6

>  <s_i_glide_gridfile>  (81) 
pfpi4k_grid

>  <i_i_glide_lignum>  (81) 
37

>  <i_i_glide_rotatable_bonds>  (81) 
5

>  <r_i_docking_score>  (81) 
-2.69761

>  <r_i_glide_ligand_efficiency>  (81) 
-0.0843004

>  <r_i_glide_ligand_efficiency_sa>  (81) 
-0.267637

>  <r_i_glide_ligand_efficiency_ln>  (81) 
-0.604069

>  <r_i_glide_gscore>  (81) 
-2.69761

>  <r_i_glide_lipo>  (81) 
-0.71454

>  <r_i_glide_hbond>  (81) 
-0.16

>  <r_i_glide_metal>  (81) 
-0

>  <r_i_glide_rewards>  (81) 
-0.378133

>  <r_i_glide_evdw>  (81) 
-16.0801

>  <r_i_glide_ecoul>  (81) 
-4.25274

>  <r_i_glide_erotb>  (81) 
0

>  <r_i_glide_esite>  (81) 
-0.00302234

>  <r_i_glide_emodel>  (81) 
-13.9187

>  <r_i_glide_energy>  (81) 
-20.3329

>  <r_i_glide_einternal>  (81) 
12.4186

>  <r_i_glide_intrahb_reward>  (81) 
-0

>  <i_i_glide_confnum>  (81) 
2

>  <i_i_glide_posenum>  (81) 
10

>  <r_i_glide_eff_state_penalty>  (81) 
0

>  <ligand_id>  (81) 
25

>  <original_smiles>  (81) 
CCN1CCC23CC(O)C=CC45OC(=O)C6=CC2C(O)C(=C(OC)C3(C)CC64OC)CC15

>  <smiles>  (81) 
[H]OC1([H])C([H])=C([H])C23OC(=O)C4=C([H])C5([H])C([H])(O[H])C6=C(OC([H])([H])[H])C(C([H])([H])[H])(C([H])([H])C42OC([H])([H])[H])C5(C1([H])[H])C([H])([H])C([H])([H])[N+]([H])(C([H])([H])C([H])([H])[H])C3([H])C6([H])[H]

$$$$
26:0:0
     RDKit          3D

 52 57  0  0  1  0  0  0  0  0999 V2000
    6.5654   -4.4942    1.8156 C   0  0  0  0  0  0  0  0  0  0  0  0
    5.4685   -4.1030    2.6422 O   0  0  0  0  0  0  0  0  0  0  0  0
    4.6955   -3.0503    2.0942 C   0  0  1  0  0  0  0  0  0  0  0  0
    5.2019   -1.7974    2.6464 C   0  0  1  0  0  0  0  0  0  0  0  0
    5.6610   -0.8747    1.5331 C   0  0  0  0  0  0  0  0  0  0  0  0
    4.7639   -0.7100    0.2752 C   0  0  0  0  0  0  0  0  0  0  0  0
    4.0188   -1.9118   -0.2746 N   0  0  2  0  0  0  0  0  0  0  0  0
    3.5753   -1.6312   -1.6751 C   0  0  0  0  0  0  0  0  0  0  0  0
    3.2272   -2.8681   -2.4889 C   0  0  0  0  0  0  0  0  0  0  0  0
    4.0725   -3.2727   -3.6784 C   0  0  0  0  0  0  0  0  0  0  0  0
    2.6977   -2.7068   -3.9001 C   0  0  0  0  0  0  0  0  0  0  0  0
    2.9095   -2.4464    0.5950 C   0  0  2  0  0  0  0  0  0  0  0  0
    2.2735   -1.3146    1.4405 C   0  0  0  0  0  0  0  0  0  0  0  0
    3.0681   -1.0313    2.6080 O   0  0  0  0  0  0  0  0  0  0  0  0
    3.8202   -2.1488    3.0999 C   0  0  1  0  0  0  0  0  0  0  0  0
    2.8835   -3.3267    3.0197 C   0  0  0  0  0  0  0  0  0  0  0  0
    3.3744   -3.5522    1.5827 C   0  0  2  0  0  0  0  0  0  0  0  0
    3.3369   -4.9688    0.9342 C   0  0  0  0  0  0  0  0  0  0  0  0
    2.2733   -5.8853    1.4952 C   0  0  0  0  0  0  0  0  0  0  0  0
    1.1801   -6.2537    0.6980 C   0  0  0  0  0  0  0  0  0  0  0  0
    0.1820   -7.0892    1.2153 C   0  0  0  0  0  0  0  0  0  0  0  0
    0.2507   -7.5390    2.5595 C   0  0  0  0  0  0  0  0  0  0  0  0
    1.3538   -7.1871    3.3511 C   0  0  0  0  0  0  0  0  0  0  0  0
    2.3922   -6.4061    2.8059 C   0  0  0  0  0  0  0  0  0  0  0  0
    7.1308   -5.2762    2.3315 H   0  0  0  0  0  0  0  0  0  0  0  0
    7.2507   -3.6707    1.5914 H   0  0  0  0  0  0  0  0  0  0  0  0
    6.2485   -4.9113    0.8552 H   0  0  0  0  0  0  0  0  0  0  0  0
    5.8970   -1.8150    3.4801 H   0  0  0  0  0  0  0  0  0  0  0  0
    5.8671    0.1167    1.9507 H   0  0  0  0  0  0  0  0  0  0  0  0
    6.6259   -1.2912    1.2240 H   0  0  0  0  0  0  0  0  0  0  0  0
    4.1114    0.1543    0.4041 H   0  0  0  0  0  0  0  0  0  0  0  0
    5.4583   -0.3979   -0.4953 H   0  0  0  0  0  0  0  0  0  0  0  0
    2.7316   -0.9426   -1.6957 H   0  0  0  0  0  0  0  0  0  0  0  0
    4.3739   -1.1109   -2.2001 H   0  0  0  0  0  0  0  0  0  0  0  0
    2.7225   -3.6686   -1.9491 H   0  0  0  0  0  0  0  0  0  0  0  0
    4.9275   -2.6471   -3.9255 H   0  0  0  0  0  0  0  0  0  0  0  0
    4.2085   -4.3405   -3.8391 H   0  0  0  0  0  0  0  0  0  0  0  0
    1.9277   -3.4050   -4.2232 H   0  0  0  0  0  0  0  0  0  0  0  0
    2.6147   -1.7015   -4.3120 H   0  0  0  0  0  0  0  0  0  0  0  0
    2.1120   -2.8542   -0.0174 H   0  0  0  0  0  0  0  0  0  0  0  0
    2.0998   -0.3928    0.8830 H   0  0  0  0  0  0  0  0  0  0  0  0
    1.2887   -1.6558    1.7594 H   0  0  0  0  0  0  0  0  0  0  0  0
    3.1987   -4.0743    3.7536 H   0  0  0  0  0  0  0  0  0  0  0  0
    1.8123   -3.1448    3.1542 H   0  0  0  0  0  0  0  0  0  0  0  0
    3.2411   -4.8858   -0.1467 H   0  0  0  0  0  0  0  0  0  0  0  0
    4.2401   -5.5568    1.0911 H   0  0  0  0  0  0  0  0  0  0  0  0
    1.1415   -5.9238   -0.3351 H   0  0  0  0  0  0  0  0  0  0  0  0
   -0.6251   -7.4297    0.5786 H   0  0  0  0  0  0  0  0  0  0  0  0
   -0.5110   -8.2001    2.9586 H   0  0  0  0  0  0  0  0  0  0  0  0
    1.4318   -7.5226    4.3800 H   0  0  0  0  0  0  0  0  0  0  0  0
    3.2666   -6.2124    3.4076 H   0  0  0  0  0  0  0  0  0  0  0  0
    4.6972   -2.6654   -0.3643 H   0  0  0  0  0  0  0  0  0  0  0  0
  1  2  1  0
  1 25  1  0
  1 26  1  0
  1 27  1  0
  3  2  1  1
  3 15  1  0
  3 17  1  0
  3  4  1  0
  4 15  1  0
  4  5  1  0
  4 28  1  1
  5  6  1  0
  5 29  1  0
  5 30  1  0
  6  7  1  0
  6 31  1  0
  6 32  1  0
  7  8  1  0
  7 12  1  0
  7 52  1  6
  8  9  1  0
  8 33  1  0
  8 34  1  0
  9 11  1  0
  9 10  1  0
  9 35  1  0
 10 11  1  0
 10 36  1  0
 10 37  1  0
 11 38  1  0
 11 39  1  0
 12 17  1  0
 12 13  1  0
 12 40  1  6
 13 14  1  0
 13 41  1  0
 13 42  1  0
 15 14  1  6
 15 16  1  0
 16 17  1  0
 16 43  1  0
 16 44  1  0
 17 18  1  6
 18 19  1  0
 18 45  1  0
 18 46  1  0
 19 24  1  0
 19 20  2  0
 20 21  1  0
 20 47  1  0
 21 22  2  0
 21 48  1  0
 22 23  1  0
 22 49  1  0
 23 24  2  0
 23 50  1  0
 24 51  1  0
M  CHG  1   7   1
M  END
>  <i_m_ct_stereo_status>  (82) 
1

>  <s_m_source_file>  (82) 
/var/tmp/pbs.5076255.sched01/tmpmjg_sug8/0d5zvyqle.sdf

>  <i_m_source_file_index>  (82) 
38

>  <i_lp_mmshare_version>  (82) 
48012

>  <i_f3d_flags>  (82) 
0

>  <s_epik_input>  (82) 
W0NIM11PW0NAQF0xKFtDQEBdMjM0KVtDQEhdMltDSDJdW0NIMl1OKFtDSDJdW0NIXTVbQ0gyXVtDSDJdNSlbQ0BIXShbQ0gyXU8zKVtDQEBdMShbQ0gyXTQpW0NIMl1jNltjSF1bY0hdW2NIXVtjSF1bY0hdNg==

>  <s_epik_cmdline>  (82) 
J2VwaWtfcHl0aG9uJywgJy1waHQnLCAnMi4wJywgJy1waCcsICc3LjAnLCAnLXRuJywgJzgnLCAnLW1hJywgJzIwMCcsICctaW1hZScsICc8aW5maWxlLm1hZT4nLCAnLW9tYWUnLCAnPG91dGZpbGUubWFlPic=

>  <r_epik_Ionization_Penalty>  (82) 
0.0137293

>  <r_epik_Ionization_Penalty_Charging>  (82) 
0.0137293

>  <r_epik_Ionization_Penalty_Neutral>  (82) 
2.68905e-13

>  <r_epik_State_Penalty>  (82) 
0.0107009

>  <r_epik_Charging_Adjusted_Penalty>  (82) 
0.0244302

>  <i_epik_Tot_Q>  (82) 
1

>  <i_epik_Tot_abs_Q>  (82) 
1

>  <s_lp_Force_Field>  (82) 
OPLS3e

>  <r_lp_Energy>  (82) 
95.4027

>  <b_lp_Chiralities_Consistent>  (82) 
1

>  <s_lp_Variant>  (82) 
26:0-1

>  <s_i_glide_gridfile>  (82) 
pfpi4k_grid

>  <i_i_glide_lignum>  (82) 
38

>  <i_i_glide_rotatable_bonds>  (82) 
5

>  <r_i_docking_score>  (82) 
-3.12035

>  <r_i_glide_ligand_efficiency>  (82) 
-0.130015

>  <r_i_glide_ligand_efficiency_sa>  (82) 
-0.375027

>  <r_i_glide_ligand_efficiency_ln>  (82) 
-0.746844

>  <r_i_glide_gscore>  (82) 
-3.12035

>  <r_i_glide_lipo>  (82) 
-0.713718

>  <r_i_glide_hbond>  (82) 
0

>  <r_i_glide_metal>  (82) 
-0

>  <r_i_glide_rewards>  (82) 
-1.18328

>  <r_i_glide_evdw>  (82) 
-23.4314

>  <r_i_glide_ecoul>  (82) 
-4.81129

>  <r_i_glide_erotb>  (82) 
0.70394

>  <r_i_glide_esite>  (82) 
-0.0340331

>  <r_i_glide_emodel>  (82) 
-32.2439

>  <r_i_glide_energy>  (82) 
-28.2427

>  <r_i_glide_einternal>  (82) 
1.60685

>  <r_i_glide_intrahb_reward>  (82) 
-0

>  <i_i_glide_confnum>  (82) 
6

>  <i_i_glide_posenum>  (82) 
10

>  <r_i_glide_eff_state_penalty>  (82) 
0

>  <ligand_id>  (82) 
26

>  <original_smiles>  (82) 
COC12C3CCN(CC4CC4)C4COC31CC42Cc1ccccc1

>  <smiles>  (82) 
[H]c1c([H])c([H])c(C([H])([H])C23C([H])([H])C45OC([H])([H])C2([H])[N+]([H])(C([H])([H])C2([H])C([H])([H])C2([H])[H])C([H])([H])C([H])([H])C4([H])C53OC([H])([H])[H])c([H])c1[H]

$$$$
26:0:1
     RDKit          3D

 52 57  0  0  1  0  0  0  0  0999 V2000
    5.4196   -4.4021    4.3252 C   0  0  0  0  0  0  0  0  0  0  0  0
    5.4136   -4.1337    2.9161 O   0  0  0  0  0  0  0  0  0  0  0  0
    4.6406   -3.0569    2.3398 C   0  0  1  0  0  0  0  0  0  0  0  0
    5.1323   -1.7803    2.8386 C   0  0  1  0  0  0  0  0  0  0  0  0
    5.6873   -0.8832    1.7485 C   0  0  0  0  0  0  0  0  0  0  0  0
    4.8867   -0.6698    0.4316 C   0  0  0  0  0  0  0  0  0  0  0  0
    4.1697   -1.8431   -0.1810 N   0  0  2  0  0  0  0  0  0  0  0  0
    3.8176   -1.5211   -1.5989 C   0  0  0  0  0  0  0  0  0  0  0  0
    3.5138   -2.7397   -2.4648 C   0  0  0  0  0  0  0  0  0  0  0  0
    4.5416   -3.2657   -3.4423 C   0  0  0  0  0  0  0  0  0  0  0  0
    3.3019   -2.5781   -3.9556 C   0  0  0  0  0  0  0  0  0  0  0  0
    3.0092   -2.3636    0.6177 C   0  0  2  0  0  0  0  0  0  0  0  0
    2.3025   -1.2299    1.4248 C   0  0  0  0  0  0  0  0  0  0  0  0
    3.0272   -1.0069    2.6435 O   0  0  0  0  0  0  0  0  0  0  0  0
    3.6904   -2.1377    3.2383 C   0  0  2  0  0  0  0  0  0  0  0  0
    2.7175   -3.2918    2.9771 C   0  0  0  0  0  0  0  0  0  0  0  0
    3.3829   -3.5075    1.6195 C   0  0  2  0  0  0  0  0  0  0  0  0
    3.4305   -4.8997    0.9318 C   0  0  0  0  0  0  0  0  0  0  0  0
    2.3536   -5.8668    1.4340 C   0  0  0  0  0  0  0  0  0  0  0  0
    1.2644   -6.2238    0.6071 C   0  0  0  0  0  0  0  0  0  0  0  0
    0.2416   -7.0622    1.1075 C   0  0  0  0  0  0  0  0  0  0  0  0
    0.3105   -7.5490    2.4267 C   0  0  0  0  0  0  0  0  0  0  0  0
    1.3966   -7.2114    3.2449 C   0  0  0  0  0  0  0  0  0  0  0  0
    2.4362   -6.4069    2.7281 C   0  0  0  0  0  0  0  0  0  0  0  0
    6.2714   -5.0349    4.5636 H   0  0  0  0  0  0  0  0  0  0  0  0
    4.5453   -4.9697    4.6521 H   0  0  0  0  0  0  0  0  0  0  0  0
    5.5010   -3.5187    4.9623 H   0  0  0  0  0  0  0  0  0  0  0  0
    5.8097   -1.7685    3.6862 H   0  0  0  0  0  0  0  0  0  0  0  0
    5.8897    0.0907    2.1893 H   0  0  0  0  0  0  0  0  0  0  0  0
    6.6616   -1.2975    1.4957 H   0  0  0  0  0  0  0  0  0  0  0  0
    4.2389    0.2047    0.5303 H   0  0  0  0  0  0  0  0  0  0  0  0
    5.6478   -0.3364   -0.2849 H   0  0  0  0  0  0  0  0  0  0  0  0
    2.9784   -0.8248   -1.6514 H   0  0  0  0  0  0  0  0  0  0  0  0
    4.6524   -0.9985   -2.0763 H   0  0  0  0  0  0  0  0  0  0  0  0
    2.8426   -3.4673   -2.0185 H   0  0  0  0  0  0  0  0  0  0  0  0
    5.4864   -2.7322   -3.5231 H   0  0  0  0  0  0  0  0  0  0  0  0
    4.6019   -4.3445   -3.5547 H   0  0  0  0  0  0  0  0  0  0  0  0
    2.5491   -3.2090   -4.4212 H   0  0  0  0  0  0  0  0  0  0  0  0
    3.4110   -1.5866   -4.3928 H   0  0  0  0  0  0  0  0  0  0  0  0
    2.2374   -2.7437   -0.0657 H   0  0  0  0  0  0  0  0  0  0  0  0
    2.1604   -0.3103    0.8658 H   0  0  0  0  0  0  0  0  0  0  0  0
    1.2943   -1.5622    1.6700 H   0  0  0  0  0  0  0  0  0  0  0  0
    2.8856   -4.0955    3.6910 H   0  0  0  0  0  0  0  0  0  0  0  0
    1.6466   -3.0991    2.9972 H   0  0  0  0  0  0  0  0  0  0  0  0
    3.3145   -4.7983   -0.1505 H   0  0  0  0  0  0  0  0  0  0  0  0
    4.3986   -5.3789    1.0476 H   0  0  0  0  0  0  0  0  0  0  0  0
    1.2083   -5.8479   -0.3997 H   0  0  0  0  0  0  0  0  0  0  0  0
   -0.5744   -7.3634    0.4756 H   0  0  0  0  0  0  0  0  0  0  0  0
   -0.4596   -8.2177    2.8068 H   0  0  0  0  0  0  0  0  0  0  0  0
    1.4615   -7.5696    4.2610 H   0  0  0  0  0  0  0  0  0  0  0  0
    3.2789   -6.1914    3.3611 H   0  0  0  0  0  0  0  0  0  0  0  0
    4.8348   -2.5953   -0.2487 H   0  0  0  0  0  0  0  0  0  0  0  0
  1  2  1  0
  1 25  1  0
  1 26  1  0
  1 27  1  0
  3  2  1  1
  3 15  1  0
  3 17  1  0
  3  4  1  0
  4 15  1  0
  4  5  1  0
  4 28  1  1
  5  6  1  0
  5 29  1  0
  5 30  1  0
  6  7  1  0
  6 31  1  0
  6 32  1  0
  7  8  1  0
  7 12  1  0
  7 52  1  6
  8  9  1  0
  8 33  1  0
  8 34  1  0
  9 11  1  0
  9 10  1  0
  9 35  1  0
 10 11  1  0
 10 36  1  0
 10 37  1  0
 11 38  1  0
 11 39  1  0
 12 17  1  0
 12 13  1  0
 12 40  1  6
 13 14  1  0
 13 41  1  0
 13 42  1  0
 15 14  1  6
 15 16  1  0
 16 17  1  0
 16 43  1  0
 16 44  1  0
 17 18  1  6
 18 19  1  0
 18 45  1  0
 18 46  1  0
 19 24  1  0
 19 20  2  0
 20 21  1  0
 20 47  1  0
 21 22  2  0
 21 48  1  0
 22 23  1  0
 22 49  1  0
 23 24  2  0
 23 50  1  0
 24 51  1  0
M  CHG  1   7   1
M  END
>  <i_m_ct_stereo_status>  (83) 
1

>  <s_m_source_file>  (83) 
/var/tmp/pbs.5076255.sched01/tmpmjg_sug8/0d5zvyqle.sdf

>  <i_m_source_file_index>  (83) 
38

>  <i_lp_mmshare_version>  (83) 
48012

>  <i_f3d_flags>  (83) 
0

>  <s_epik_input>  (83) 
W0NIM11PW0NAQF0xKFtDQEBdMjM0KVtDQEhdMltDSDJdW0NIMl1OKFtDSDJdW0NIXTVbQ0gyXVtDSDJdNSlbQ0BIXShbQ0gyXU8zKVtDQEBdMShbQ0gyXTQpW0NIMl1jNltjSF1bY0hdW2NIXVtjSF1bY0hdNg==

>  <s_epik_cmdline>  (83) 
J2VwaWtfcHl0aG9uJywgJy1waHQnLCAnMi4wJywgJy1waCcsICc3LjAnLCAnLXRuJywgJzgnLCAnLW1hJywgJzIwMCcsICctaW1hZScsICc8aW5maWxlLm1hZT4nLCAnLW9tYWUnLCAnPG91dGZpbGUubWFlPic=

>  <r_epik_Ionization_Penalty>  (83) 
0.0137293

>  <r_epik_Ionization_Penalty_Charging>  (83) 
0.0137293

>  <r_epik_Ionization_Penalty_Neutral>  (83) 
2.68905e-13

>  <r_epik_State_Penalty>  (83) 
0.0107009

>  <r_epik_Charging_Adjusted_Penalty>  (83) 
0.0244302

>  <i_epik_Tot_Q>  (83) 
1

>  <i_epik_Tot_abs_Q>  (83) 
1

>  <s_lp_Force_Field>  (83) 
OPLS3e

>  <r_lp_Energy>  (83) 
95.4027

>  <b_lp_Chiralities_Consistent>  (83) 
1

>  <s_lp_Variant>  (83) 
26:0-1

>  <s_i_glide_gridfile>  (83) 
pfpi4k_grid

>  <i_i_glide_lignum>  (83) 
38

>  <i_i_glide_rotatable_bonds>  (83) 
5

>  <r_i_docking_score>  (83) 
-3.02225

>  <r_i_glide_ligand_efficiency>  (83) 
-0.125927

>  <r_i_glide_ligand_efficiency_sa>  (83) 
-0.363236

>  <r_i_glide_ligand_efficiency_ln>  (83) 
-0.723362

>  <r_i_glide_gscore>  (83) 
-3.02225

>  <r_i_glide_lipo>  (83) 
-0.626108

>  <r_i_glide_hbond>  (83) 
0

>  <r_i_glide_metal>  (83) 
-0

>  <r_i_glide_rewards>  (83) 
-1.18328

>  <r_i_glide_evdw>  (83) 
-23.6762

>  <r_i_glide_ecoul>  (83) 
-4.71515

>  <r_i_glide_erotb>  (83) 
0.70394

>  <r_i_glide_esite>  (83) 
-0.0257186

>  <r_i_glide_emodel>  (83) 
-31.2966

>  <r_i_glide_energy>  (83) 
-28.3913

>  <r_i_glide_einternal>  (83) 
4.35304

>  <r_i_glide_intrahb_reward>  (83) 
-0

>  <i_i_glide_confnum>  (83) 
6

>  <i_i_glide_posenum>  (83) 
1

>  <r_i_glide_eff_state_penalty>  (83) 
0

>  <ligand_id>  (83) 
26

>  <original_smiles>  (83) 
COC12C3CCN(CC4CC4)C4COC31CC42Cc1ccccc1

>  <smiles>  (83) 
[H]c1c([H])c([H])c(C([H])([H])C23C([H])([H])C45OC([H])([H])C2([H])[N+]([H])(C([H])([H])C2([H])C([H])([H])C2([H])[H])C([H])([H])C([H])([H])C4([H])C53OC([H])([H])[H])c([H])c1[H]

$$$$
26:0:2
     RDKit          3D

 52 57  0  0  1  0  0  0  0  0999 V2000
    6.4960   -4.5678    1.8693 C   0  0  0  0  0  0  0  0  0  0  0  0
    5.4372   -4.1674    2.7361 O   0  0  0  0  0  0  0  0  0  0  0  0
    4.6462   -3.1193    2.2018 C   0  0  1  0  0  0  0  0  0  0  0  0
    5.1729   -1.8673    2.7358 C   0  0  1  0  0  0  0  0  0  0  0  0
    5.5997   -0.9468    1.6083 C   0  0  0  0  0  0  0  0  0  0  0  0
    4.6558   -0.7795    0.3872 C   0  0  0  0  0  0  0  0  0  0  0  0
    3.8970   -1.9750   -0.1504 N   0  0  2  0  0  0  0  0  0  0  0  0
    3.4040   -1.6942   -1.5334 C   0  0  0  0  0  0  0  0  0  0  0  0
    4.4743   -1.8339   -2.6047 C   0  0  0  0  0  0  0  0  0  0  0  0
    4.1231   -1.5654   -4.0515 C   0  0  0  0  0  0  0  0  0  0  0  0
    4.4405   -2.9695   -3.6075 C   0  0  0  0  0  0  0  0  0  0  0  0
    2.8138   -2.5188    0.7553 C   0  0  2  0  0  0  0  0  0  0  0  0
    2.2008   -1.3935    1.6295 C   0  0  0  0  0  0  0  0  0  0  0  0
    3.0318   -1.1048    2.7678 O   0  0  0  0  0  0  0  0  0  0  0  0
    3.8054   -2.2204    3.2367 C   0  0  1  0  0  0  0  0  0  0  0  0
    2.8705   -3.4019    3.1867 C   0  0  0  0  0  0  0  0  0  0  0  0
    3.3111   -3.6212    1.7326 C   0  0  2  0  0  0  0  0  0  0  0  0
    3.2499   -5.0361    1.0886 C   0  0  0  0  0  0  0  0  0  0  0  0
    2.1267   -5.9203    1.6212 C   0  0  0  0  0  0  0  0  0  0  0  0
    1.0669   -6.2706    0.7762 C   0  0  0  0  0  0  0  0  0  0  0  0
    0.0046   -7.0730    1.2754 C   0  0  0  0  0  0  0  0  0  0  0  0
    0.0114   -7.5044    2.6136 C   0  0  0  0  0  0  0  0  0  0  0  0
    1.0924   -7.1735    3.4514 C   0  0  0  0  0  0  0  0  0  0  0  0
    2.1753   -6.4339    2.9396 C   0  0  0  0  0  0  0  0  0  0  0  0
    7.0806   -5.3493    2.3611 H   0  0  0  0  0  0  0  0  0  0  0  0
    7.1724   -3.7475    1.6138 H   0  0  0  0  0  0  0  0  0  0  0  0
    6.1319   -4.9846    0.9279 H   0  0  0  0  0  0  0  0  0  0  0  0
    5.9008   -1.8897    3.5425 H   0  0  0  0  0  0  0  0  0  0  0  0
    5.8311    0.0433    2.0130 H   0  0  0  0  0  0  0  0  0  0  0  0
    6.5459   -1.3743    1.2628 H   0  0  0  0  0  0  0  0  0  0  0  0
    4.0012    0.0808    0.5434 H   0  0  0  0  0  0  0  0  0  0  0  0
    5.3195   -0.4445   -0.3987 H   0  0  0  0  0  0  0  0  0  0  0  0
    2.5869   -2.3526   -1.8229 H   0  0  0  0  0  0  0  0  0  0  0  0
    2.9903   -0.6833   -1.5676 H   0  0  0  0  0  0  0  0  0  0  0  0
    5.4611   -1.4652   -2.3266 H   0  0  0  0  0  0  0  0  0  0  0  0
    3.0881   -1.3399   -4.3087 H   0  0  0  0  0  0  0  0  0  0  0  0
    4.8637   -1.0550   -4.6577 H   0  0  0  0  0  0  0  0  0  0  0  0
    5.3994   -3.3888   -3.9052 H   0  0  0  0  0  0  0  0  0  0  0  0
    3.6200   -3.6868   -3.5522 H   0  0  0  0  0  0  0  0  0  0  0  0
    2.0102   -2.9530    0.1653 H   0  0  0  0  0  0  0  0  0  0  0  0
    1.9965   -0.4766    1.0854 H   0  0  0  0  0  0  0  0  0  0  0  0
    1.2302   -1.7393    1.9819 H   0  0  0  0  0  0  0  0  0  0  0  0
    3.2156   -4.1525    3.9034 H   0  0  0  0  0  0  0  0  0  0  0  0
    1.8072   -3.2206    3.3645 H   0  0  0  0  0  0  0  0  0  0  0  0
    3.1998   -4.9480    0.0042 H   0  0  0  0  0  0  0  0  0  0  0  0
    4.1254   -5.6514    1.2928 H   0  0  0  0  0  0  0  0  0  0  0  0
    1.0710   -5.9535   -0.2566 H   0  0  0  0  0  0  0  0  0  0  0  0
   -0.7734   -7.3919    0.6087 H   0  0  0  0  0  0  0  0  0  0  0  0
   -0.7873   -8.1303    2.9951 H   0  0  0  0  0  0  0  0  0  0  0  0
    1.1177   -7.4995    4.4848 H   0  0  0  0  0  0  0  0  0  0  0  0
    3.0262   -6.2585    3.5853 H   0  0  0  0  0  0  0  0  0  0  0  0
    4.5474   -2.7509   -0.2662 H   0  0  0  0  0  0  0  0  0  0  0  0
  1  2  1  0
  1 25  1  0
  1 26  1  0
  1 27  1  0
  3  2  1  1
  3 15  1  0
  3 17  1  0
  3  4  1  0
  4 15  1  0
  4  5  1  0
  4 28  1  1
  5  6  1  0
  5 29  1  0
  5 30  1  0
  6  7  1  0
  6 31  1  0
  6 32  1  0
  7  8  1  0
  7 12  1  0
  7 52  1  6
  8  9  1  0
  8 33  1  0
  8 34  1  0
  9 11  1  0
  9 10  1  0
  9 35  1  0
 10 11  1  0
 10 36  1  0
 10 37  1  0
 11 38  1  0
 11 39  1  0
 12 17  1  0
 12 13  1  0
 12 40  1  6
 13 14  1  0
 13 41  1  0
 13 42  1  0
 15 14  1  6
 15 16  1  0
 16 17  1  0
 16 43  1  0
 16 44  1  0
 17 18  1  6
 18 19  1  0
 18 45  1  0
 18 46  1  0
 19 24  1  0
 19 20  2  0
 20 21  1  0
 20 47  1  0
 21 22  2  0
 21 48  1  0
 22 23  1  0
 22 49  1  0
 23 24  2  0
 23 50  1  0
 24 51  1  0
M  CHG  1   7   1
M  END
>  <i_m_ct_stereo_status>  (84) 
1

>  <s_m_source_file>  (84) 
/var/tmp/pbs.5076255.sched01/tmpmjg_sug8/0d5zvyqle.sdf

>  <i_m_source_file_index>  (84) 
38

>  <i_lp_mmshare_version>  (84) 
48012

>  <i_f3d_flags>  (84) 
0

>  <s_epik_input>  (84) 
W0NIM11PW0NAQF0xKFtDQEBdMjM0KVtDQEhdMltDSDJdW0NIMl1OKFtDSDJdW0NIXTVbQ0gyXVtDSDJdNSlbQ0BIXShbQ0gyXU8zKVtDQEBdMShbQ0gyXTQpW0NIMl1jNltjSF1bY0hdW2NIXVtjSF1bY0hdNg==

>  <s_epik_cmdline>  (84) 
J2VwaWtfcHl0aG9uJywgJy1waHQnLCAnMi4wJywgJy1waCcsICc3LjAnLCAnLXRuJywgJzgnLCAnLW1hJywgJzIwMCcsICctaW1hZScsICc8aW5maWxlLm1hZT4nLCAnLW9tYWUnLCAnPG91dGZpbGUubWFlPic=

>  <r_epik_Ionization_Penalty>  (84) 
0.0137293

>  <r_epik_Ionization_Penalty_Charging>  (84) 
0.0137293

>  <r_epik_Ionization_Penalty_Neutral>  (84) 
2.68905e-13

>  <r_epik_State_Penalty>  (84) 
0.0107009

>  <r_epik_Charging_Adjusted_Penalty>  (84) 
0.0244302

>  <i_epik_Tot_Q>  (84) 
1

>  <i_epik_Tot_abs_Q>  (84) 
1

>  <s_lp_Force_Field>  (84) 
OPLS3e

>  <r_lp_Energy>  (84) 
95.4027

>  <b_lp_Chiralities_Consistent>  (84) 
1

>  <s_lp_Variant>  (84) 
26:0-1

>  <s_i_glide_gridfile>  (84) 
pfpi4k_grid

>  <i_i_glide_lignum>  (84) 
38

>  <i_i_glide_rotatable_bonds>  (84) 
5

>  <r_i_docking_score>  (84) 
-2.92787

>  <r_i_glide_ligand_efficiency>  (84) 
-0.121995

>  <r_i_glide_ligand_efficiency_sa>  (84) 
-0.351894

>  <r_i_glide_ligand_efficiency_ln>  (84) 
-0.700775

>  <r_i_glide_gscore>  (84) 
-2.92787

>  <r_i_glide_lipo>  (84) 
-0.570664

>  <r_i_glide_hbond>  (84) 
0

>  <r_i_glide_metal>  (84) 
-0

>  <r_i_glide_rewards>  (84) 
-1.18328

>  <r_i_glide_evdw>  (84) 
-22.9446

>  <r_i_glide_ecoul>  (84) 
-4.6147

>  <r_i_glide_erotb>  (84) 
0.70394

>  <r_i_glide_esite>  (84) 
-0.0384394

>  <r_i_glide_emodel>  (84) 
-30.9394

>  <r_i_glide_energy>  (84) 
-27.5593

>  <r_i_glide_einternal>  (84) 
2.25927

>  <r_i_glide_intrahb_reward>  (84) 
-0

>  <i_i_glide_confnum>  (84) 
5

>  <i_i_glide_posenum>  (84) 
24

>  <r_i_glide_eff_state_penalty>  (84) 
0

>  <ligand_id>  (84) 
26

>  <original_smiles>  (84) 
COC12C3CCN(CC4CC4)C4COC31CC42Cc1ccccc1

>  <smiles>  (84) 
[H]c1c([H])c([H])c(C([H])([H])C23C([H])([H])C45OC([H])([H])C2([H])[N+]([H])(C([H])([H])C2([H])C([H])([H])C2([H])[H])C([H])([H])C([H])([H])C4([H])C53OC([H])([H])[H])c([H])c1[H]

$$$$
26:1:0
     RDKit          3D

 51 56  0  0  1  0  0  0  0  0999 V2000
    6.5801   -5.4159    2.5752 C   0  0  0  0  0  0  0  0  0  0  0  0
    5.6239   -4.6315    3.2985 O   0  0  0  0  0  0  0  0  0  0  0  0
    4.8905   -3.7540    2.4258 C   0  0  1  0  0  0  0  0  0  0  0  0
    5.5222   -2.4525    2.5071 C   0  0  1  0  0  0  0  0  0  0  0  0
    6.0469   -2.0361    1.1521 C   0  0  0  0  0  0  0  0  0  0  0  0
    5.1063   -2.1525   -0.0733 C   0  0  0  0  0  0  0  0  0  0  0  0
    4.1636   -3.2837   -0.2373 N   0  0  0  0  0  0  0  0  0  0  0  0
    3.6535   -3.3292   -1.6109 C   0  0  0  0  0  0  0  0  0  0  0  0
    3.3330   -1.9916   -2.2716 C   0  0  0  0  0  0  0  0  0  0  0  0
    2.9740   -1.9260   -3.7367 C   0  0  0  0  0  0  0  0  0  0  0  0
    4.3072   -1.3992   -3.2657 C   0  0  0  0  0  0  0  0  0  0  0  0
    3.0977   -3.4100    0.7978 C   0  0  2  0  0  0  0  0  0  0  0  0
    2.5770   -2.0285    1.2937 C   0  0  0  0  0  0  0  0  0  0  0  0
    3.4520   -1.5075    2.3039 O   0  0  0  0  0  0  0  0  0  0  0  0
    4.1273   -2.5173    3.1058 C   0  0  1  0  0  0  0  0  0  0  0  0
    3.0996   -3.5898    3.3761 C   0  0  0  0  0  0  0  0  0  0  0  0
    3.5107   -4.2341    2.0615 C   0  0  2  0  0  0  0  0  0  0  0  0
    3.3310   -5.7451    1.8629 C   0  0  0  0  0  0  0  0  0  0  0  0
    1.9489   -6.2303    2.2519 C   0  0  0  0  0  0  0  0  0  0  0  0
    1.0540   -6.6738    1.2597 C   0  0  0  0  0  0  0  0  0  0  0  0
   -0.2221   -7.1392    1.6244 C   0  0  0  0  0  0  0  0  0  0  0  0
   -0.6227   -7.1415    2.9752 C   0  0  0  0  0  0  0  0  0  0  0  0
    0.2673   -6.6963    3.9697 C   0  0  0  0  0  0  0  0  0  0  0  0
    1.5545   -6.2684    3.6092 C   0  0  0  0  0  0  0  0  0  0  0  0
    7.1264   -6.0502    3.2713 H   0  0  0  0  0  0  0  0  0  0  0  0
    7.3040   -4.7972    2.0471 H   0  0  0  0  0  0  0  0  0  0  0  0
    6.0916   -6.0662    1.8495 H   0  0  0  0  0  0  0  0  0  0  0  0
    6.2151   -2.2387    3.2991 H   0  0  0  0  0  0  0  0  0  0  0  0
    6.4507   -1.0200    1.2042 H   0  0  0  0  0  0  0  0  0  0  0  0
    6.8971   -2.6920    0.9537 H   0  0  0  0  0  0  0  0  0  0  0  0
    4.5653   -1.2116   -0.1358 H   0  0  0  0  0  0  0  0  0  0  0  0
    5.7706   -2.1516   -0.9379 H   0  0  0  0  0  0  0  0  0  0  0  0
    4.4071   -3.8251   -2.2275 H   0  0  0  0  0  0  0  0  0  0  0  0
    2.7704   -3.9703   -1.6703 H   0  0  0  0  0  0  0  0  0  0  0  0
    2.8053   -1.2784   -1.6426 H   0  0  0  0  0  0  0  0  0  0  0  0
    2.9536   -2.8620   -4.2928 H   0  0  0  0  0  0  0  0  0  0  0  0
    2.2312   -1.1928   -4.0364 H   0  0  0  0  0  0  0  0  0  0  0  0
    4.4477   -0.3211   -3.2319 H   0  0  0  0  0  0  0  0  0  0  0  0
    5.1947   -1.9829   -3.5016 H   0  0  0  0  0  0  0  0  0  0  0  0
    2.2367   -3.9264    0.3583 H   0  0  0  0  0  0  0  0  0  0  0  0
    2.4845   -1.3150    0.4968 H   0  0  0  0  0  0  0  0  0  0  0  0
    1.5781   -2.1500    1.7211 H   0  0  0  0  0  0  0  0  0  0  0  0
    3.3610   -4.1955    4.2630 H   0  0  0  0  0  0  0  0  0  0  0  0
    2.0638   -3.2819    3.4802 H   0  0  0  0  0  0  0  0  0  0  0  0
    3.5764   -6.0204    0.8376 H   0  0  0  0  0  0  0  0  0  0  0  0
    4.0082   -6.3154    2.4914 H   0  0  0  0  0  0  0  0  0  0  0  0
    1.3550   -6.6743    0.2250 H   0  0  0  0  0  0  0  0  0  0  0  0
   -0.8909   -7.5137    0.8684 H   0  0  0  0  0  0  0  0  0  0  0  0
   -1.5994   -7.5019    3.2558 H   0  0  0  0  0  0  0  0  0  0  0  0
   -0.0223   -6.6985    5.0074 H   0  0  0  0  0  0  0  0  0  0  0  0
    2.2307   -5.9653    4.3885 H   0  0  0  0  0  0  0  0  0  0  0  0
  1  2  1  0
  1 25  1  0
  1 26  1  0
  1 27  1  0
  3  2  1  1
  3 15  1  0
  3 17  1  0
  3  4  1  0
  4 15  1  0
  4  5  1  0
  4 28  1  1
  5  6  1  0
  5 29  1  0
  5 30  1  0
  6  7  1  0
  6 31  1  0
  6 32  1  0
  7  8  1  0
  7 12  1  0
  8  9  1  0
  8 33  1  0
  8 34  1  0
  9 11  1  0
  9 10  1  0
  9 35  1  0
 10 11  1  0
 10 36  1  0
 10 37  1  0
 11 38  1  0
 11 39  1  0
 12 17  1  0
 12 13  1  0
 12 40  1  6
 13 14  1  0
 13 41  1  0
 13 42  1  0
 15 14  1  6
 15 16  1  0
 16 17  1  0
 16 43  1  0
 16 44  1  0
 17 18  1  6
 18 19  1  0
 18 45  1  0
 18 46  1  0
 19 24  1  0
 19 20  2  0
 20 21  1  0
 20 47  1  0
 21 22  2  0
 21 48  1  0
 22 23  1  0
 22 49  1  0
 23 24  2  0
 23 50  1  0
 24 51  1  0
M  END
>  <i_m_ct_stereo_status>  (85) 
1

>  <s_m_source_file>  (85) 
/var/tmp/pbs.5076255.sched01/tmp7c02qu8j/38qwqhi24o.sdf

>  <i_m_source_file_index>  (85) 
1

>  <i_lp_mmshare_version>  (85) 
48012

>  <i_f3d_flags>  (85) 
0

>  <s_epik_input>  (85) 
W0NIM11PW0NAQF0xKFtDQEBdMjM0KVtDQEhdMltDSDJdW0NIMl1OKFtDSDJdW0NIXTVbQ0gyXVtDSDJdNSlbQ0BIXShbQ0gyXU8zKVtDQEBdMShbQ0gyXTQpW0NIMl1jNltjSF1bY0hdW2NIXVtjSF1bY0hdNg==

>  <s_epik_cmdline>  (85) 
J2VwaWtfcHl0aG9uJywgJy1waHQnLCAnMi4wJywgJy1waCcsICc3LjAnLCAnLXRuJywgJzgnLCAnLW1hJywgJzIwMCcsICctaW1hZScsICc8aW5maWxlLm1hZT4nLCAnLW9tYWUnLCAnPG91dGZpbGUubWFlPic=

>  <r_epik_Ionization_Penalty>  (85) 
2.23744

>  <r_epik_Ionization_Penalty_Charging>  (85) 
0

>  <r_epik_Ionization_Penalty_Neutral>  (85) 
2.23744

>  <r_epik_State_Penalty>  (85) 
2.38358

>  <r_epik_Charging_Adjusted_Penalty>  (85) 
2.38358

>  <i_epik_Tot_Q>  (85) 
0

>  <i_epik_Tot_abs_Q>  (85) 
0

>  <s_lp_Force_Field>  (85) 
OPLS3e

>  <r_lp_Energy>  (85) 
95.0743

>  <b_lp_Chiralities_Consistent>  (85) 
1

>  <s_lp_Variant>  (85) 
26:0-2

>  <s_i_glide_gridfile>  (85) 
pfpi4k_grid

>  <i_i_glide_lignum>  (85) 
1

>  <i_i_glide_rotatable_bonds>  (85) 
5

>  <r_i_docking_score>  (85) 
-2.30262

>  <r_i_glide_ligand_efficiency>  (85) 
-0.0959425

>  <r_i_glide_ligand_efficiency_sa>  (85) 
-0.276746

>  <r_i_glide_ligand_efficiency_ln>  (85) 
-0.551123

>  <r_i_glide_gscore>  (85) 
-2.30262

>  <r_i_glide_lipo>  (85) 
-0.527779

>  <r_i_glide_hbond>  (85) 
0

>  <r_i_glide_metal>  (85) 
-0

>  <r_i_glide_rewards>  (85) 
-1.19015

>  <r_i_glide_evdw>  (85) 
-20.8176

>  <r_i_glide_ecoul>  (85) 
-1.67736

>  <r_i_glide_erotb>  (85) 
0.707793

>  <r_i_glide_esite>  (85) 
0

>  <r_i_glide_emodel>  (85) 
-21.1947

>  <r_i_glide_energy>  (85) 
-22.4949

>  <r_i_glide_einternal>  (85) 
7.10143

>  <r_i_glide_intrahb_reward>  (85) 
-0

>  <i_i_glide_confnum>  (85) 
2

>  <i_i_glide_posenum>  (85) 
2

>  <r_i_glide_eff_state_penalty>  (85) 
0

>  <ligand_id>  (85) 
26

>  <original_smiles>  (85) 
COC12C3CCN(CC4CC4)C4COC31CC42Cc1ccccc1

>  <smiles>  (85) 
[H]c1c([H])c([H])c(C([H])([H])C23C([H])([H])C45OC([H])([H])C2([H])N(C([H])([H])C2([H])C([H])([H])C2([H])[H])C([H])([H])C([H])([H])C4([H])C53OC([H])([H])[H])c([H])c1[H]

$$$$
26:1:1
     RDKit          3D

 51 56  0  0  1  0  0  0  0  0999 V2000
    3.7837   -3.6974    7.0972 C   0  0  0  0  0  0  0  0  0  0  0  0
    2.5399   -3.1538    6.6411 O   0  0  0  0  0  0  0  0  0  0  0  0
    2.6905   -2.5717    5.3349 C   0  0  1  0  0  0  0  0  0  0  0  0
    2.8902   -1.1421    5.5291 C   0  0  1  0  0  0  0  0  0  0  0  0
    4.2332   -0.7219    4.9539 C   0  0  0  0  0  0  0  0  0  0  0  0
    4.6340   -1.1742    3.5233 C   0  0  0  0  0  0  0  0  0  0  0  0
    4.2974   -2.5220    3.0151 N   0  0  0  0  0  0  0  0  0  0  0  0
    5.0679   -2.8307    1.8056 C   0  0  0  0  0  0  0  0  0  0  0  0
    5.0322   -1.7944    0.6892 C   0  0  0  0  0  0  0  0  0  0  0  0
    5.9175   -1.9527   -0.5251 C   0  0  0  0  0  0  0  0  0  0  0  0
    6.2231   -0.8815    0.4885 C   0  0  0  0  0  0  0  0  0  0  0  0
    2.8464   -2.8252    2.8956 C   0  0  2  0  0  0  0  0  0  0  0  0
    1.9808   -1.5960    2.4689 C   0  0  0  0  0  0  0  0  0  0  0  0
    1.6704   -0.8015    3.6209 O   0  0  0  0  0  0  0  0  0  0  0  0
    1.5531   -1.5278    4.8736 C   0  0  1  0  0  0  0  0  0  0  0  0
    0.8388   -2.8371    4.5283 C   0  0  0  0  0  0  0  0  0  0  0  0
    2.1945   -3.4246    4.1855 C   0  0  2  0  0  0  0  0  0  0  0  0
    2.3966   -4.9421    4.3211 C   0  0  0  0  0  0  0  0  0  0  0  0
    1.4934   -5.7413    3.3897 C   0  0  0  0  0  0  0  0  0  0  0  0
    0.3025   -6.3212    3.8805 C   0  0  0  0  0  0  0  0  0  0  0  0
   -0.5309   -7.0628    3.0237 C   0  0  0  0  0  0  0  0  0  0  0  0
   -0.1841   -7.2131    1.6656 C   0  0  0  0  0  0  0  0  0  0  0  0
    0.9948   -6.6330    1.1722 C   0  0  0  0  0  0  0  0  0  0  0  0
    1.8411   -5.9212    2.0351 C   0  0  0  0  0  0  0  0  0  0  0  0
    3.6310   -4.1031    8.0944 H   0  0  0  0  0  0  0  0  0  0  0  0
    4.5697   -2.9399    7.1585 H   0  0  0  0  0  0  0  0  0  0  0  0
    4.1228   -4.5081    6.4487 H   0  0  0  0  0  0  0  0  0  0  0  0
    2.7395   -0.7184    6.5216 H   0  0  0  0  0  0  0  0  0  0  0  0
    4.3433    0.3647    5.0266 H   0  0  0  0  0  0  0  0  0  0  0  0
    4.9782   -1.1407    5.6298 H   0  0  0  0  0  0  0  0  0  0  0  0
    4.2584   -0.4294    2.8236 H   0  0  0  0  0  0  0  0  0  0  0  0
    5.7218   -1.0690    3.4805 H   0  0  0  0  0  0  0  0  0  0  0  0
    6.1128   -2.9755    2.0977 H   0  0  0  0  0  0  0  0  0  0  0  0
    4.7515   -3.7952    1.4028 H   0  0  0  0  0  0  0  0  0  0  0  0
    4.0513   -1.3798    0.4627 H   0  0  0  0  0  0  0  0  0  0  0  0
    6.5730   -2.8221   -0.5736 H   0  0  0  0  0  0  0  0  0  0  0  0
    5.4942   -1.6358   -1.4759 H   0  0  0  0  0  0  0  0  0  0  0  0
    6.0007    0.1452    0.2226 H   0  0  0  0  0  0  0  0  0  0  0  0
    7.0887   -1.0160    1.1402 H   0  0  0  0  0  0  0  0  0  0  0  0
    2.7232   -3.5411    2.0777 H   0  0  0  0  0  0  0  0  0  0  0  0
    2.4386   -0.9864    1.7132 H   0  0  0  0  0  0  0  0  0  0  0  0
    1.0538   -1.9669    2.0256 H   0  0  0  0  0  0  0  0  0  0  0  0
    0.3638   -3.3269    5.3897 H   0  0  0  0  0  0  0  0  0  0  0  0
    0.1007   -2.7949    3.7347 H   0  0  0  0  0  0  0  0  0  0  0  0
    3.4370   -5.2034    4.1492 H   0  0  0  0  0  0  0  0  0  0  0  0
    2.1771   -5.2617    5.3316 H   0  0  0  0  0  0  0  0  0  0  0  0
    0.0353   -6.2098    4.9194 H   0  0  0  0  0  0  0  0  0  0  0  0
   -1.4234   -7.5288    3.4051 H   0  0  0  0  0  0  0  0  0  0  0  0
   -0.8092   -7.7979    1.0057 H   0  0  0  0  0  0  0  0  0  0  0  0
    1.2673   -6.7379    0.1351 H   0  0  0  0  0  0  0  0  0  0  0  0
    2.7585   -5.5180    1.6415 H   0  0  0  0  0  0  0  0  0  0  0  0
  1  2  1  0
  1 25  1  0
  1 26  1  0
  1 27  1  0
  3  2  1  1
  3 15  1  0
  3 17  1  0
  3  4  1  0
  4 15  1  0
  4  5  1  0
  4 28  1  1
  5  6  1  0
  5 29  1  0
  5 30  1  0
  6  7  1  0
  6 31  1  0
  6 32  1  0
  7  8  1  0
  7 12  1  0
  8  9  1  0
  8 33  1  0
  8 34  1  0
  9 11  1  0
  9 10  1  0
  9 35  1  0
 10 11  1  0
 10 36  1  0
 10 37  1  0
 11 38  1  0
 11 39  1  0
 12 17  1  0
 12 13  1  0
 12 40  1  6
 13 14  1  0
 13 41  1  0
 13 42  1  0
 15 14  1  6
 15 16  1  0
 16 17  1  0
 16 43  1  0
 16 44  1  0
 17 18  1  1
 18 19  1  0
 18 45  1  0
 18 46  1  0
 19 24  1  0
 19 20  2  0
 20 21  1  0
 20 47  1  0
 21 22  2  0
 21 48  1  0
 22 23  1  0
 22 49  1  0
 23 24  2  0
 23 50  1  0
 24 51  1  0
M  END
>  <i_m_ct_stereo_status>  (86) 
1

>  <s_m_source_file>  (86) 
/var/tmp/pbs.5076255.sched01/tmp7c02qu8j/38qwqhi24o.sdf

>  <i_m_source_file_index>  (86) 
1

>  <i_lp_mmshare_version>  (86) 
48012

>  <i_f3d_flags>  (86) 
0

>  <s_epik_input>  (86) 
W0NIM11PW0NAQF0xKFtDQEBdMjM0KVtDQEhdMltDSDJdW0NIMl1OKFtDSDJdW0NIXTVbQ0gyXVtDSDJdNSlbQ0BIXShbQ0gyXU8zKVtDQEBdMShbQ0gyXTQpW0NIMl1jNltjSF1bY0hdW2NIXVtjSF1bY0hdNg==

>  <s_epik_cmdline>  (86) 
J2VwaWtfcHl0aG9uJywgJy1waHQnLCAnMi4wJywgJy1waCcsICc3LjAnLCAnLXRuJywgJzgnLCAnLW1hJywgJzIwMCcsICctaW1hZScsICc8aW5maWxlLm1hZT4nLCAnLW9tYWUnLCAnPG91dGZpbGUubWFlPic=

>  <r_epik_Ionization_Penalty>  (86) 
2.23744

>  <r_epik_Ionization_Penalty_Charging>  (86) 
0

>  <r_epik_Ionization_Penalty_Neutral>  (86) 
2.23744

>  <r_epik_State_Penalty>  (86) 
2.38358

>  <r_epik_Charging_Adjusted_Penalty>  (86) 
2.38358

>  <i_epik_Tot_Q>  (86) 
0

>  <i_epik_Tot_abs_Q>  (86) 
0

>  <s_lp_Force_Field>  (86) 
OPLS3e

>  <r_lp_Energy>  (86) 
95.0743

>  <b_lp_Chiralities_Consistent>  (86) 
1

>  <s_lp_Variant>  (86) 
26:0-2

>  <s_i_glide_gridfile>  (86) 
pfpi4k_grid

>  <i_i_glide_lignum>  (86) 
1

>  <i_i_glide_rotatable_bonds>  (86) 
5

>  <r_i_docking_score>  (86) 
-1.87578

>  <r_i_glide_ligand_efficiency>  (86) 
-0.0781573

>  <r_i_glide_ligand_efficiency_sa>  (86) 
-0.225445

>  <r_i_glide_ligand_efficiency_ln>  (86) 
-0.448959

>  <r_i_glide_gscore>  (86) 
-1.87578

>  <r_i_glide_lipo>  (86) 
-0.25471

>  <r_i_glide_hbond>  (86) 
0

>  <r_i_glide_metal>  (86) 
-0

>  <r_i_glide_rewards>  (86) 
-1.19015

>  <r_i_glide_evdw>  (86) 
-17.4465

>  <r_i_glide_ecoul>  (86) 
-1.77591

>  <r_i_glide_erotb>  (86) 
0.707793

>  <r_i_glide_esite>  (86) 
0

>  <r_i_glide_emodel>  (86) 
-18.2148

>  <r_i_glide_energy>  (86) 
-19.2224

>  <r_i_glide_einternal>  (86) 
5.62418

>  <r_i_glide_intrahb_reward>  (86) 
-0

>  <i_i_glide_confnum>  (86) 
1

>  <i_i_glide_posenum>  (86) 
9

>  <r_i_glide_eff_state_penalty>  (86) 
0

>  <ligand_id>  (86) 
26

>  <original_smiles>  (86) 
COC12C3CCN(CC4CC4)C4COC31CC42Cc1ccccc1

>  <smiles>  (86) 
[H]c1c([H])c([H])c(C([H])([H])C23C([H])([H])C45OC([H])([H])C2([H])N(C([H])([H])C2([H])C([H])([H])C2([H])[H])C([H])([H])C([H])([H])C4([H])C53OC([H])([H])[H])c([H])c1[H]

$$$$
26:1:2
     RDKit          3D

 51 56  0  0  1  0  0  0  0  0999 V2000
    1.7100   -6.7937    9.2142 C   0  0  0  0  0  0  0  0  0  0  0  0
    0.4722   -6.1585    8.9520 O   0  0  0  0  0  0  0  0  0  0  0  0
    0.5963   -5.0183    8.0899 C   0  0  1  0  0  0  0  0  0  0  0  0
    0.6941   -3.8481    8.9468 C   0  0  1  0  0  0  0  0  0  0  0  0
    2.0036   -3.1084    8.6822 C   0  0  0  0  0  0  0  0  0  0  0  0
    2.4515   -2.8627    7.2164 C   0  0  0  0  0  0  0  0  0  0  0  0
    2.2122   -3.8502    6.1403 N   0  0  0  0  0  0  0  0  0  0  0  0
    3.0286   -3.5135    4.9623 C   0  0  0  0  0  0  0  0  0  0  0  0
    2.8914   -2.1058    4.3991 C   0  0  0  0  0  0  0  0  0  0  0  0
    3.8188   -1.6445    3.3011 C   0  0  0  0  0  0  0  0  0  0  0  0
    3.9569   -1.0737    4.6902 C   0  0  0  0  0  0  0  0  0  0  0  0
    0.7894   -4.1255    5.8202 C   0  0  2  0  0  0  0  0  0  0  0  0
   -0.1569   -2.9174    6.0125 C   0  0  0  0  0  0  0  0  0  0  0  0
   -0.5813   -2.7603    7.3750 O   0  0  0  0  0  0  0  0  0  0  0  0
   -0.5792   -3.9904    8.1386 C   0  0  1  0  0  0  0  0  0  0  0  0
   -1.2302   -4.9963    7.2159 C   0  0  0  0  0  0  0  0  0  0  0  0
    0.1694   -5.3074    6.6715 C   0  0  2  0  0  0  0  0  0  0  0  0
    0.4486   -6.7183    6.1247 C   0  0  0  0  0  0  0  0  0  0  0  0
    0.2266   -6.9018    4.6353 C   0  0  0  0  0  0  0  0  0  0  0  0
    1.2236   -6.5002    3.7233 C   0  0  0  0  0  0  0  0  0  0  0  0
    0.9929   -6.5588    2.3376 C   0  0  0  0  0  0  0  0  0  0  0  0
   -0.2012   -7.1187    1.8545 C   0  0  0  0  0  0  0  0  0  0  0  0
   -1.1760   -7.5899    2.7702 C   0  0  0  0  0  0  0  0  0  0  0  0
   -0.9729   -7.4678    4.1505 C   0  0  0  0  0  0  0  0  0  0  0  0
    1.5476   -7.5942    9.9441 H   0  0  0  0  0  0  0  0  0  0  0  0
    2.4619   -6.1153    9.6205 H   0  0  0  0  0  0  0  0  0  0  0  0
    2.1107   -7.2601    8.3199 H   0  0  0  0  0  0  0  0  0  0  0  0
    0.5195   -3.9358   10.0228 H   0  0  0  0  0  0  0  0  0  0  0  0
    2.0377   -2.1626    9.2418 H   0  0  0  0  0  0  0  0  0  0  0  0
    2.7564   -3.7583    9.1245 H   0  0  0  0  0  0  0  0  0  0  0  0
    2.0289   -1.9146    6.9063 H   0  0  0  0  0  0  0  0  0  0  0  0
    3.5310   -2.6798    7.2700 H   0  0  0  0  0  0  0  0  0  0  0  0
    4.0779   -3.6697    5.2300 H   0  0  0  0  0  0  0  0  0  0  0  0
    2.8327   -4.2036    4.1444 H   0  0  0  0  0  0  0  0  0  0  0  0
    1.8662   -1.7664    4.2390 H   0  0  0  0  0  0  0  0  0  0  0  0
    4.5794   -2.3394    2.9394 H   0  0  0  0  0  0  0  0  0  0  0  0
    3.3790   -1.0033    2.5411 H   0  0  0  0  0  0  0  0  0  0  0  0
    3.5952   -0.0662    4.8784 H   0  0  0  0  0  0  0  0  0  0  0  0
    4.8081   -1.3901    5.2975 H   0  0  0  0  0  0  0  0  0  0  0  0
    0.6990   -4.3550    4.7562 H   0  0  0  0  0  0  0  0  0  0  0  0
    0.2607   -1.9934    5.6303 H   0  0  0  0  0  0  0  0  0  0  0  0
   -1.0240   -3.0976    5.3757 H   0  0  0  0  0  0  0  0  0  0  0  0
   -1.6600   -5.8474    7.7603 H   0  0  0  0  0  0  0  0  0  0  0  0
   -1.9912   -4.6257    6.5465 H   0  0  0  0  0  0  0  0  0  0  0  0
    1.4935   -6.9859    6.2940 H   0  0  0  0  0  0  0  0  0  0  0  0
   -0.1353   -7.4707    6.6819 H   0  0  0  0  0  0  0  0  0  0  0  0
    2.1664   -6.1313    4.0976 H   0  0  0  0  0  0  0  0  0  0  0  0
    1.7410   -6.1801    1.6540 H   0  0  0  0  0  0  0  0  0  0  0  0
   -0.3725   -7.2152    0.7899 H   0  0  0  0  0  0  0  0  0  0  0  0
   -2.0794   -8.0538    2.4073 H   0  0  0  0  0  0  0  0  0  0  0  0
   -1.7149   -7.8182    4.8542 H   0  0  0  0  0  0  0  0  0  0  0  0
  1  2  1  0
  1 25  1  0
  1 26  1  0
  1 27  1  0
  3  2  1  1
  3 15  1  0
  3 17  1  0
  3  4  1  0
  4 15  1  0
  4  5  1  0
  4 28  1  1
  5  6  1  0
  5 29  1  0
  5 30  1  0
  6  7  1  0
  6 31  1  0
  6 32  1  0
  7  8  1  0
  7 12  1  0
  8  9  1  0
  8 33  1  0
  8 34  1  0
  9 11  1  0
  9 10  1  0
  9 35  1  0
 10 11  1  0
 10 36  1  0
 10 37  1  0
 11 38  1  0
 11 39  1  0
 12 17  1  0
 12 13  1  0
 12 40  1  6
 13 14  1  0
 13 41  1  0
 13 42  1  0
 15 14  1  6
 15 16  1  0
 16 17  1  0
 16 43  1  0
 16 44  1  0
 17 18  1  6
 18 19  1  0
 18 45  1  0
 18 46  1  0
 19 24  1  0
 19 20  2  0
 20 21  1  0
 20 47  1  0
 21 22  2  0
 21 48  1  0
 22 23  1  0
 22 49  1  0
 23 24  2  0
 23 50  1  0
 24 51  1  0
M  END
>  <i_m_ct_stereo_status>  (87) 
1

>  <s_m_source_file>  (87) 
/var/tmp/pbs.5076255.sched01/tmp7c02qu8j/38qwqhi24o.sdf

>  <i_m_source_file_index>  (87) 
1

>  <i_lp_mmshare_version>  (87) 
48012

>  <i_f3d_flags>  (87) 
0

>  <s_epik_input>  (87) 
W0NIM11PW0NAQF0xKFtDQEBdMjM0KVtDQEhdMltDSDJdW0NIMl1OKFtDSDJdW0NIXTVbQ0gyXVtDSDJdNSlbQ0BIXShbQ0gyXU8zKVtDQEBdMShbQ0gyXTQpW0NIMl1jNltjSF1bY0hdW2NIXVtjSF1bY0hdNg==

>  <s_epik_cmdline>  (87) 
J2VwaWtfcHl0aG9uJywgJy1waHQnLCAnMi4wJywgJy1waCcsICc3LjAnLCAnLXRuJywgJzgnLCAnLW1hJywgJzIwMCcsICctaW1hZScsICc8aW5maWxlLm1hZT4nLCAnLW9tYWUnLCAnPG91dGZpbGUubWFlPic=

>  <r_epik_Ionization_Penalty>  (87) 
2.23744

>  <r_epik_Ionization_Penalty_Charging>  (87) 
0

>  <r_epik_Ionization_Penalty_Neutral>  (87) 
2.23744

>  <r_epik_State_Penalty>  (87) 
2.38358

>  <r_epik_Charging_Adjusted_Penalty>  (87) 
2.38358

>  <i_epik_Tot_Q>  (87) 
0

>  <i_epik_Tot_abs_Q>  (87) 
0

>  <s_lp_Force_Field>  (87) 
OPLS3e

>  <r_lp_Energy>  (87) 
95.0743

>  <b_lp_Chiralities_Consistent>  (87) 
1

>  <s_lp_Variant>  (87) 
26:0-2

>  <s_i_glide_gridfile>  (87) 
pfpi4k_grid

>  <i_i_glide_lignum>  (87) 
1

>  <i_i_glide_rotatable_bonds>  (87) 
5

>  <r_i_docking_score>  (87) 
-1.81066

>  <r_i_glide_ligand_efficiency>  (87) 
-0.0754441

>  <r_i_glide_ligand_efficiency_sa>  (87) 
-0.217619

>  <r_i_glide_ligand_efficiency_ln>  (87) 
-0.433374

>  <r_i_glide_gscore>  (87) 
-1.81066

>  <r_i_glide_lipo>  (87) 
-0.0522647

>  <r_i_glide_hbond>  (87) 
-0.0416691

>  <r_i_glide_metal>  (87) 
-0

>  <r_i_glide_rewards>  (87) 
-1.19015

>  <r_i_glide_evdw>  (87) 
-15.5883

>  <r_i_glide_ecoul>  (87) 
-3.033

>  <r_i_glide_erotb>  (87) 
0.707793

>  <r_i_glide_esite>  (87) 
0

>  <r_i_glide_emodel>  (87) 
-17.0697

>  <r_i_glide_energy>  (87) 
-18.6213

>  <r_i_glide_einternal>  (87) 
5.69828

>  <r_i_glide_intrahb_reward>  (87) 
-0

>  <i_i_glide_confnum>  (87) 
2

>  <i_i_glide_posenum>  (87) 
1

>  <r_i_glide_eff_state_penalty>  (87) 
0

>  <ligand_id>  (87) 
26

>  <original_smiles>  (87) 
COC12C3CCN(CC4CC4)C4COC31CC42Cc1ccccc1

>  <smiles>  (87) 
[H]c1c([H])c([H])c(C([H])([H])C23C([H])([H])C45OC([H])([H])C2([H])N(C([H])([H])C2([H])C([H])([H])C2([H])[H])C([H])([H])C([H])([H])C4([H])C53OC([H])([H])[H])c([H])c1[H]

$$$$
27:0:0
     RDKit          3D

 75 82  0  0  1  0  0  0  0  0999 V2000
    3.6224   -1.2890    8.1431 C   0  0  0  0  0  0  0  0  0  0  0  0
    2.4311   -2.1533    7.7072 C   0  0  2  0  0  0  0  0  0  0  0  0
    2.4547   -3.5161    8.3955 C   0  0  0  0  0  0  0  0  0  0  0  0
    1.2203   -4.3243    7.9804 C   0  0  0  0  0  0  0  0  0  0  0  0
    1.1535   -4.5894    6.4457 C   0  0  2  0  0  0  0  0  0  0  0  0
    2.1265   -5.7322    5.9985 C   0  0  1  0  0  0  0  0  0  0  0  0
    2.6554   -6.6948    7.0948 C   0  0  0  0  0  0  0  0  0  0  0  0
    1.5076   -6.6053    4.8790 C   0  0  1  0  0  0  0  0  0  0  0  0
    0.4638   -7.4225    5.4418 O   0  0  0  0  0  0  0  0  0  0  0  0
   -0.0248   -8.5165    4.7021 C   0  0  2  0  0  0  0  0  0  0  0  0
    1.0455   -9.6311    4.5822 C   0  0  0  0  0  0  0  0  0  0  0  0
    0.5545  -10.7053    3.7982 O   0  0  0  0  0  0  0  0  0  0  0  0
    0.1885  -10.2585    2.5069 C   0  0  0  0  0  0  0  0  0  0  0  0
   -0.9218   -9.2060    2.6354 C   0  0  0  0  0  0  0  0  0  0  0  0
   -0.4655   -8.1283    3.4349 O   0  0  0  0  0  0  0  0  0  0  0  0
    0.9684   -5.7805    3.7015 C   0  0  0  0  0  0  0  0  0  0  0  0
    1.8408   -4.5859    3.3478 C   0  0  0  0  0  0  0  0  0  0  0  0
    1.4630   -3.2754    4.0566 C   0  0  2  0  0  0  0  0  0  0  0  0
    2.5163   -2.4050    3.6316 O   0  0  0  0  0  0  0  0  0  0  0  0
    2.5405   -1.1125    4.1528 C   0  0  2  0  0  0  0  0  0  0  0  0
    3.7970   -0.5746    3.9457 O   0  0  0  0  0  0  0  0  0  0  0  0
    4.0363    0.6890    4.5782 C   0  0  0  0  0  0  0  0  0  0  0  0
    3.1027    1.8941    4.2473 C   0  0  1  0  0  0  0  0  0  0  0  0
    2.9489    2.1121    2.8628 O   0  0  0  0  0  0  0  0  0  0  0  0
    1.8067    2.1720    5.0270 C   0  0  2  0  0  0  0  0  0  0  0  0
    1.5445    1.3666    6.1667 O   0  0  0  0  0  0  0  0  0  0  0  0
    0.4586    1.4445    5.2291 C   0  0  2  0  0  0  0  0  0  0  0  0
   -0.1636    0.0610    4.8855 C   0  0  2  0  0  0  0  0  0  0  0  0
   -1.6976    0.0436    4.8493 C   0  0  0  0  0  0  0  0  0  0  0  0
   -1.7839   -0.7169    6.0740 O   0  0  0  0  0  0  0  0  0  0  0  0
   -0.3555   -0.9729    6.0201 C   0  0  1  0  0  0  0  0  0  0  0  0
   -0.2136   -2.5137    5.8337 C   0  0  0  0  0  0  0  0  0  0  0  0
    1.2040   -3.2112    5.6288 C   0  0  1  0  0  0  0  0  0  0  0  0
    2.3924   -2.3628    6.1777 C   0  0  1  0  0  0  0  0  0  0  0  0
    2.3223   -1.1079    5.5339 O   0  0  0  0  0  0  0  0  0  0  0  0
    0.2567   -0.6290    3.7298 O   0  0  0  0  0  0  0  0  0  0  0  0
    1.6599   -0.3041    3.4435 O   0  0  0  0  0  0  0  0  0  0  0  0
    4.5711   -1.7067    7.8061 H   0  0  0  0  0  0  0  0  0  0  0  0
    3.6620   -1.1993    9.2283 H   0  0  0  0  0  0  0  0  0  0  0  0
    3.5357   -0.2800    7.7410 H   0  0  0  0  0  0  0  0  0  0  0  0
    1.5327   -1.6425    8.0428 H   0  0  0  0  0  0  0  0  0  0  0  0
    3.3784   -4.0345    8.1376 H   0  0  0  0  0  0  0  0  0  0  0  0
    2.4642   -3.3869    9.4779 H   0  0  0  0  0  0  0  0  0  0  0  0
    1.1756   -5.2496    8.5521 H   0  0  0  0  0  0  0  0  0  0  0  0
    0.3418   -3.7791    8.3196 H   0  0  0  0  0  0  0  0  0  0  0  0
    0.1573   -5.0057    6.2956 H   0  0  0  0  0  0  0  0  0  0  0  0
    3.0280   -5.2527    5.6154 H   0  0  0  0  0  0  0  0  0  0  0  0
    1.8492   -7.2207    7.6103 H   0  0  0  0  0  0  0  0  0  0  0  0
    3.2633   -6.1924    7.8461 H   0  0  0  0  0  0  0  0  0  0  0  0
    3.2998   -7.4592    6.6567 H   0  0  0  0  0  0  0  0  0  0  0  0
    2.3249   -7.2231    4.5099 H   0  0  0  0  0  0  0  0  0  0  0  0
   -0.8907   -8.9069    5.2420 H   0  0  0  0  0  0  0  0  0  0  0  0
    1.9577   -9.2628    4.1193 H   0  0  0  0  0  0  0  0  0  0  0  0
    1.2974   -9.9859    5.5800 H   0  0  0  0  0  0  0  0  0  0  0  0
    1.0591   -9.8581    1.9918 H   0  0  0  0  0  0  0  0  0  0  0  0
   -0.1656  -11.1018    1.9148 H   0  0  0  0  0  0  0  0  0  0  0  0
   -1.1719   -8.8034    1.6576 H   0  0  0  0  0  0  0  0  0  0  0  0
   -1.8356   -9.6382    3.0465 H   0  0  0  0  0  0  0  0  0  0  0  0
    0.9582   -6.4174    2.8176 H   0  0  0  0  0  0  0  0  0  0  0  0
   -0.0589   -5.4624    3.8851 H   0  0  0  0  0  0  0  0  0  0  0  0
    2.8966   -4.8325    3.4582 H   0  0  0  0  0  0  0  0  0  0  0  0
    1.7178   -4.4087    2.2793 H   0  0  0  0  0  0  0  0  0  0  0  0
    0.5688   -2.9554    3.5242 H   0  0  0  0  0  0  0  0  0  0  0  0
    4.1063    0.5569    5.6565 H   0  0  0  0  0  0  0  0  0  0  0  0
    5.0431    0.9607    4.2656 H   0  0  0  0  0  0  0  0  0  0  0  0
    3.7238    2.7378    4.5509 H   0  0  0  0  0  0  0  0  0  0  0  0
    3.7848    2.3711    2.4907 H   0  0  0  0  0  0  0  0  0  0  0  0
    1.7166    3.2400    5.2245 H   0  0  0  0  0  0  0  0  0  0  0  0
   -0.3071    2.1503    5.5351 H   0  0  0  0  0  0  0  0  0  0  0  0
   -2.1683    1.0234    4.9396 H   0  0  0  0  0  0  0  0  0  0  0  0
   -2.1081   -0.5024    3.9962 H   0  0  0  0  0  0  0  0  0  0  0  0
    0.1125   -0.6012    6.9268 H   0  0  0  0  0  0  0  0  0  0  0  0
   -0.7154   -2.9556    6.6912 H   0  0  0  0  0  0  0  0  0  0  0  0
   -0.8781   -2.8337    5.0291 H   0  0  0  0  0  0  0  0  0  0  0  0
    3.3367   -2.8361    5.8996 H   0  0  0  0  0  0  0  0  0  0  0  0
  1  2  1  0
  1 38  1  0
  1 39  1  0
  1 40  1  0
  2 34  1  0
  2  3  1  0
  2 41  1  1
  3  4  1  0
  3 42  1  0
  3 43  1  0
  4  5  1  0
  4 44  1  0
  4 45  1  0
  5 33  1  0
  5  6  1  0
  5 46  1  1
  6  7  1  0
  6  8  1  0
  6 47  1  6
  7 48  1  0
  7 49  1  0
  7 50  1  0
  8  9  1  0
  8 16  1  0
  8 51  1  6
  9 10  1  0
 10 15  1  0
 10 11  1  0
 10 52  1  1
 11 12  1  0
 11 53  1  0
 11 54  1  0
 12 13  1  0
 13 14  1  0
 13 55  1  0
 13 56  1  0
 14 15  1  0
 14 57  1  0
 14 58  1  0
 16 17  1  0
 16 59  1  0
 16 60  1  0
 17 18  1  0
 17 61  1  0
 17 62  1  0
 18 33  1  0
 18 19  1  0
 18 63  1  6
 19 20  1  0
 20 35  1  0
 20 37  1  0
 20 21  1  1
 21 22  1  0
 22 23  1  0
 22 64  1  0
 22 65  1  0
 23 24  1  0
 23 25  1  0
 23 66  1  1
 24 67  1  0
 25 27  1  0
 25 26  1  0
 25 68  1  1
 26 27  1  0
 27 28  1  0
 27 69  1  1
 28 31  1  0
 28 29  1  6
 28 36  1  0
 29 30  1  0
 29 70  1  0
 29 71  1  0
 30 31  1  0
 31 32  1  0
 31 72  1  1
 33 32  1  6
 32 73  1  0
 32 74  1  0
 33 34  1  0
 34 35  1  0
 34 75  1  6
 36 37  1  0
M  END
>  <i_m_ct_stereo_status>  (88) 
1

>  <s_m_source_file>  (88) 
/var/tmp/pbs.5076255.sched01/tmp7c02qu8j/38qwqhi24o.sdf

>  <i_m_source_file_index>  (88) 
2

>  <i_lp_mmshare_version>  (88) 
48012

>  <i_f3d_flags>  (88) 
0

>  <s_epik_input>  (88) 
TzFbQ0gyXVtDQEBIXShbT0hdKVtDQEhdKE8yKVtDQEhdMltDQEBdKFtDSDJdTzMpKE9PNClbQ0BASF0zW0NIMl1bQ0BdNShbQ0BIXTZPW0NAQF0xNDcpW0NASF0oW0NIMl1bQ0gyXVtDQEBIXShbQ0gzXSlbQ0BASF01TzcpW0NAQEhdKFtDSDNdKVtDQEhdKFtDSDJdW0NIMl02KU9bQ0BASF04W0NIMl1PW0NIMl1bQ0gyXU84

>  <s_epik_cmdline>  (88) 
J2VwaWtfcHl0aG9uJywgJy1waHQnLCAnMi4wJywgJy1waCcsICc3LjAnLCAnLXRuJywgJzgnLCAnLW1hJywgJzIwMCcsICctaW1hZScsICc8aW5maWxlLm1hZT4nLCAnLW9tYWUnLCAnPG91dGZpbGUubWFlPic=

>  <r_lp_tautomer_probability>  (88) 
1

>  <r_epik_Ionization_Penalty>  (88) 
1.5794e-06

>  <r_epik_Ionization_Penalty_Charging>  (88) 
0

>  <r_epik_Ionization_Penalty_Neutral>  (88) 
1.5794e-06

>  <r_epik_State_Penalty>  (88) 
-0

>  <r_epik_Charging_Adjusted_Penalty>  (88) 
0

>  <i_epik_Tot_Q>  (88) 
0

>  <i_epik_Tot_abs_Q>  (88) 
0

>  <s_epik_Chemistry_Notes>  (88) 
This compound contains an acetal/aminal-like group ( X-CH(R)-Y where X, Y are N, S, or O) that may be acid/base labile, releasing an aldehyde.

>  <s_lp_Force_Field>  (88) 
OPLS3e

>  <r_lp_Energy>  (88) 
93.1642

>  <b_lp_Chiralities_Consistent>  (88) 
1

>  <s_lp_Variant>  (88) 
27:0-1

>  <s_i_glide_gridfile>  (88) 
pfpi4k_grid

>  <i_i_glide_lignum>  (88) 
2

>  <i_i_glide_rotatable_bonds>  (88) 
3

>  <r_i_docking_score>  (88) 
-2.73593

>  <r_i_glide_ligand_efficiency>  (88) 
-0.073944

>  <r_i_glide_ligand_efficiency_sa>  (88) 
-0.246398

>  <r_i_glide_ligand_efficiency_ln>  (88) 
-0.593359

>  <r_i_glide_gscore>  (88) 
-2.73593

>  <r_i_glide_lipo>  (88) 
-0.304415

>  <r_i_glide_hbond>  (88) 
-0.100866

>  <r_i_glide_metal>  (88) 
-0

>  <r_i_glide_rewards>  (88) 
0

>  <r_i_glide_evdw>  (88) 
-26.4804

>  <r_i_glide_ecoul>  (88) 
-7.38108

>  <r_i_glide_erotb>  (88) 
0.148513

>  <r_i_glide_esite>  (88) 
-0.0479786

>  <r_i_glide_emodel>  (88) 
-38.0433

>  <r_i_glide_energy>  (88) 
-33.8615

>  <r_i_glide_einternal>  (88) 
3.08658

>  <r_i_glide_intrahb_reward>  (88) 
-0

>  <i_i_glide_confnum>  (88) 
5

>  <i_i_glide_posenum>  (88) 
1

>  <r_i_glide_eff_state_penalty>  (88) 
0

>  <ligand_id>  (88) 
27

>  <original_smiles>  (88) 
CC1CCC2C(C)C(OC3COCCO3)CCC3OC45OCC(O)C6OC6C6(COC6CC32C1O4)OO5

>  <smiles>  (88) 
[H]OC1([H])C([H])([H])OC23OOC4(C([H])([H])OC4([H])C([H])([H])C45C([H])(O2)C([H])([H])C([H])([H])C([H])(OC2([H])OC([H])([H])C([H])([H])OC2([H])[H])C([H])(C([H])([H])[H])C4([H])C([H])([H])C([H])([H])C([H])(C([H])([H])[H])C5([H])O3)C2([H])OC12[H]

$$$$
27:0:1
     RDKit          3D

 75 82  0  0  1  0  0  0  0  0999 V2000
    3.7874   -1.1054    7.7856 C   0  0  0  0  0  0  0  0  0  0  0  0
    2.6069   -2.0288    7.4508 C   0  0  2  0  0  0  0  0  0  0  0  0
    2.7340   -3.3698    8.1656 C   0  0  0  0  0  0  0  0  0  0  0  0
    1.5098   -4.2376    7.8533 C   0  0  0  0  0  0  0  0  0  0  0  0
    1.3517   -4.5434    6.3304 C   0  0  2  0  0  0  0  0  0  0  0  0
    2.3379   -5.6627    5.8454 C   0  0  1  0  0  0  0  0  0  0  0  0
    2.9779   -6.5718    6.9275 C   0  0  0  0  0  0  0  0  0  0  0  0
    1.6778   -6.5865    4.7922 C   0  0  1  0  0  0  0  0  0  0  0  0
    0.6951   -7.4163    5.4405 O   0  0  0  0  0  0  0  0  0  0  0  0
    0.1532   -8.5155    4.7428 C   0  0  2  0  0  0  0  0  0  0  0  0
    1.2069   -9.6343    4.5599 C   0  0  0  0  0  0  0  0  0  0  0  0
    0.6548  -10.7124    3.8232 O   0  0  0  0  0  0  0  0  0  0  0  0
    0.2189  -10.2736    2.5528 C   0  0  0  0  0  0  0  0  0  0  0  0
   -0.8747   -9.2187    2.7366 C   0  0  0  0  0  0  0  0  0  0  0  0
   -0.3758   -8.1439    3.5074 O   0  0  0  0  0  0  0  0  0  0  0  0
    1.0428   -5.8042    3.6305 C   0  0  0  0  0  0  0  0  0  0  0  0
    1.8411   -4.5846    3.2011 C   0  0  0  0  0  0  0  0  0  0  0  0
    1.4454   -3.2770    3.9017 C   0  0  2  0  0  0  0  0  0  0  0  0
    2.4261   -2.3742    3.3862 O   0  0  0  0  0  0  0  0  0  0  0  0
    2.4386   -1.0738    3.8785 C   0  0  2  0  0  0  0  0  0  0  0  0
    3.6512   -0.4945    3.5752 O   0  0  0  0  0  0  0  0  0  0  0  0
    3.8735    0.7930    4.1625 C   0  0  0  0  0  0  0  0  0  0  0  0
    2.8742    1.9522    3.8611 C   0  0  1  0  0  0  0  0  0  0  0  0
    2.6001    2.0975    2.4862 O   0  0  0  0  0  0  0  0  0  0  0  0
    1.6255    2.2064    4.7247 C   0  0  2  0  0  0  0  0  0  0  0  0
    1.4814    1.4199    5.9061 O   0  0  0  0  0  0  0  0  0  0  0  0
    0.3334    1.4299    5.0387 C   0  0  2  0  0  0  0  0  0  0  0  0
   -0.2513    0.0147    4.7778 C   0  0  2  0  0  0  0  0  0  0  0  0
   -1.7762   -0.0707    4.8374 C   0  0  0  0  0  0  0  0  0  0  0  0
   -1.7534   -0.7909    6.0675 O   0  0  0  0  0  0  0  0  0  0  0  0
   -0.3230   -1.0004    5.9388 C   0  0  1  0  0  0  0  0  0  0  0  0
   -0.1404   -2.5397    5.7728 C   0  0  0  0  0  0  0  0  0  0  0  0
    1.2924   -3.1842    5.4856 C   0  0  1  0  0  0  0  0  0  0  0  0
    2.4776   -2.2786    5.9336 C   0  0  1  0  0  0  0  0  0  0  0  0
    2.3149   -1.0456    5.2680 O   0  0  0  0  0  0  0  0  0  0  0  0
    0.1169   -0.6830    3.6051 O   0  0  0  0  0  0  0  0  0  0  0  0
    1.4873   -0.3116    3.2127 O   0  0  0  0  0  0  0  0  0  0  0  0
    4.7288   -1.4951    7.3969 H   0  0  0  0  0  0  0  0  0  0  0  0
    3.8925   -0.9859    8.8640 H   0  0  0  0  0  0  0  0  0  0  0  0
    3.6337   -0.1113    7.3658 H   0  0  0  0  0  0  0  0  0  0  0  0
    1.7143   -1.5446    7.8360 H   0  0  0  0  0  0  0  0  0  0  0  0
    3.6580   -3.8583    7.8581 H   0  0  0  0  0  0  0  0  0  0  0  0
    2.8084   -3.2143    9.2421 H   0  0  0  0  0  0  0  0  0  0  0  0
    1.5406   -5.1489    8.4482 H   0  0  0  0  0  0  0  0  0  0  0  0
    0.6333   -3.7182    8.2386 H   0  0  0  0  0  0  0  0  0  0  0  0
    0.3647   -5.0040    6.2609 H   0  0  0  0  0  0  0  0  0  0  0  0
    3.1921   -5.1567    5.3935 H   0  0  0  0  0  0  0  0  0  0  0  0
    2.2297   -7.1142    7.5083 H   0  0  0  0  0  0  0  0  0  0  0  0
    3.6120   -6.0243    7.6232 H   0  0  0  0  0  0  0  0  0  0  0  0
    3.6232   -7.3199    6.4651 H   0  0  0  0  0  0  0  0  0  0  0  0
    2.4863   -7.1942    4.3865 H   0  0  0  0  0  0  0  0  0  0  0  0
   -0.6684   -8.9051    5.3449 H   0  0  0  0  0  0  0  0  0  0  0  0
    2.0911   -9.2760    4.0425 H   0  0  0  0  0  0  0  0  0  0  0  0
    1.5241   -9.9878    5.5422 H   0  0  0  0  0  0  0  0  0  0  0  0
    1.0608   -9.8838    1.9876 H   0  0  0  0  0  0  0  0  0  0  0  0
   -0.1681  -11.1179    1.9854 H   0  0  0  0  0  0  0  0  0  0  0  0
   -1.1720   -8.8226    1.7661 H   0  0  0  0  0  0  0  0  0  0  0  0
   -1.7669   -9.6442    3.1917 H   0  0  0  0  0  0  0  0  0  0  0  0
    1.0118   -6.4562    2.7593 H   0  0  0  0  0  0  0  0  0  0  0  0
    0.0175   -5.5185    3.8686 H   0  0  0  0  0  0  0  0  0  0  0  0
    2.9113   -4.7830    3.2490 H   0  0  0  0  0  0  0  0  0  0  0  0
    1.6425   -4.4379    2.1398 H   0  0  0  0  0  0  0  0  0  0  0  0
    0.5067   -3.0061    3.4245 H   0  0  0  0  0  0  0  0  0  0  0  0
    4.0194    0.6930    5.2387 H   0  0  0  0  0  0  0  0  0  0  0  0
    4.8489    1.0917    3.7756 H   0  0  0  0  0  0  0  0  0  0  0  0
    3.4874    2.8288    4.0821 H   0  0  0  0  0  0  0  0  0  0  0  0
    1.9797    1.4299    2.2301 H   0  0  0  0  0  0  0  0  0  0  0  0
    1.5089    3.2751    4.9034 H   0  0  0  0  0  0  0  0  0  0  0  0
   -0.4418    2.1121    5.3778 H   0  0  0  0  0  0  0  0  0  0  0  0
   -2.2696    0.8949    4.9258 H   0  0  0  0  0  0  0  0  0  0  0  0
   -2.2059   -0.6644    4.0316 H   0  0  0  0  0  0  0  0  0  0  0  0
    0.1968   -0.5922    6.8045 H   0  0  0  0  0  0  0  0  0  0  0  0
   -0.5636   -2.9836    6.6695 H   0  0  0  0  0  0  0  0  0  0  0  0
   -0.8409   -2.9040    5.0211 H   0  0  0  0  0  0  0  0  0  0  0  0
    3.4187   -2.7202    5.6029 H   0  0  0  0  0  0  0  0  0  0  0  0
  1  2  1  0
  1 38  1  0
  1 39  1  0
  1 40  1  0
  2 34  1  0
  2  3  1  0
  2 41  1  1
  3  4  1  0
  3 42  1  0
  3 43  1  0
  4  5  1  0
  4 44  1  0
  4 45  1  0
  5 33  1  0
  5  6  1  0
  5 46  1  1
  6  7  1  0
  6  8  1  0
  6 47  1  6
  7 48  1  0
  7 49  1  0
  7 50  1  0
  8  9  1  0
  8 16  1  0
  8 51  1  6
  9 10  1  0
 10 15  1  0
 10 11  1  0
 10 52  1  1
 11 12  1  0
 11 53  1  0
 11 54  1  0
 12 13  1  0
 13 14  1  0
 13 55  1  0
 13 56  1  0
 14 15  1  0
 14 57  1  0
 14 58  1  0
 16 17  1  0
 16 59  1  0
 16 60  1  0
 17 18  1  0
 17 61  1  0
 17 62  1  0
 18 33  1  0
 18 19  1  0
 18 63  1  6
 19 20  1  0
 20 35  1  0
 20 37  1  0
 20 21  1  1
 21 22  1  0
 22 23  1  0
 22 64  1  0
 22 65  1  0
 23 24  1  0
 23 25  1  0
 23 66  1  1
 24 67  1  0
 25 27  1  0
 25 26  1  0
 25 68  1  1
 26 27  1  0
 27 28  1  0
 27 69  1  1
 28 31  1  0
 28 29  1  6
 28 36  1  0
 29 30  1  0
 29 70  1  0
 29 71  1  0
 30 31  1  0
 31 32  1  0
 31 72  1  1
 33 32  1  6
 32 73  1  0
 32 74  1  0
 33 34  1  0
 34 35  1  0
 34 75  1  6
 36 37  1  0
M  END
>  <i_m_ct_stereo_status>  (89) 
1

>  <s_m_source_file>  (89) 
/var/tmp/pbs.5076255.sched01/tmp7c02qu8j/38qwqhi24o.sdf

>  <i_m_source_file_index>  (89) 
2

>  <i_lp_mmshare_version>  (89) 
48012

>  <i_f3d_flags>  (89) 
0

>  <s_epik_input>  (89) 
TzFbQ0gyXVtDQEBIXShbT0hdKVtDQEhdKE8yKVtDQEhdMltDQEBdKFtDSDJdTzMpKE9PNClbQ0BASF0zW0NIMl1bQ0BdNShbQ0BIXTZPW0NAQF0xNDcpW0NASF0oW0NIMl1bQ0gyXVtDQEBIXShbQ0gzXSlbQ0BASF01TzcpW0NAQEhdKFtDSDNdKVtDQEhdKFtDSDJdW0NIMl02KU9bQ0BASF04W0NIMl1PW0NIMl1bQ0gyXU84

>  <s_epik_cmdline>  (89) 
J2VwaWtfcHl0aG9uJywgJy1waHQnLCAnMi4wJywgJy1waCcsICc3LjAnLCAnLXRuJywgJzgnLCAnLW1hJywgJzIwMCcsICctaW1hZScsICc8aW5maWxlLm1hZT4nLCAnLW9tYWUnLCAnPG91dGZpbGUubWFlPic=

>  <r_lp_tautomer_probability>  (89) 
1

>  <r_epik_Ionization_Penalty>  (89) 
1.5794e-06

>  <r_epik_Ionization_Penalty_Charging>  (89) 
0

>  <r_epik_Ionization_Penalty_Neutral>  (89) 
1.5794e-06

>  <r_epik_State_Penalty>  (89) 
-0

>  <r_epik_Charging_Adjusted_Penalty>  (89) 
0

>  <i_epik_Tot_Q>  (89) 
0

>  <i_epik_Tot_abs_Q>  (89) 
0

>  <s_epik_Chemistry_Notes>  (89) 
This compound contains an acetal/aminal-like group ( X-CH(R)-Y where X, Y are N, S, or O) that may be acid/base labile, releasing an aldehyde.

>  <s_lp_Force_Field>  (89) 
OPLS3e

>  <r_lp_Energy>  (89) 
93.1642

>  <b_lp_Chiralities_Consistent>  (89) 
1

>  <s_lp_Variant>  (89) 
27:0-1

>  <s_i_glide_gridfile>  (89) 
pfpi4k_grid

>  <i_i_glide_lignum>  (89) 
2

>  <i_i_glide_rotatable_bonds>  (89) 
3

>  <r_i_docking_score>  (89) 
-2.56069

>  <r_i_glide_ligand_efficiency>  (89) 
-0.0692078

>  <r_i_glide_ligand_efficiency_sa>  (89) 
-0.230616

>  <r_i_glide_ligand_efficiency_ln>  (89) 
-0.555353

>  <r_i_glide_gscore>  (89) 
-2.56069

>  <r_i_glide_lipo>  (89) 
-0.245714

>  <r_i_glide_hbond>  (89) 
-0.0938736

>  <r_i_glide_metal>  (89) 
-0

>  <r_i_glide_rewards>  (89) 
-0.5

>  <r_i_glide_evdw>  (89) 
-27.7164

>  <r_i_glide_ecoul>  (89) 
-2.95638

>  <r_i_glide_erotb>  (89) 
0.148513

>  <r_i_glide_esite>  (89) 
-0.0403382

>  <r_i_glide_emodel>  (89) 
-39.6536

>  <r_i_glide_energy>  (89) 
-30.6727

>  <r_i_glide_einternal>  (89) 
2.53942

>  <r_i_glide_intrahb_reward>  (89) 
-0.5

>  <i_i_glide_confnum>  (89) 
3

>  <i_i_glide_posenum>  (89) 
32

>  <r_i_glide_eff_state_penalty>  (89) 
0

>  <ligand_id>  (89) 
27

>  <original_smiles>  (89) 
CC1CCC2C(C)C(OC3COCCO3)CCC3OC45OCC(O)C6OC6C6(COC6CC32C1O4)OO5

>  <smiles>  (89) 
[H]OC1([H])C([H])([H])OC23OOC4(C([H])([H])OC4([H])C([H])([H])C45C([H])(O2)C([H])([H])C([H])([H])C([H])(OC2([H])OC([H])([H])C([H])([H])OC2([H])[H])C([H])(C([H])([H])[H])C4([H])C([H])([H])C([H])([H])C([H])(C([H])([H])[H])C5([H])O3)C2([H])OC12[H]

$$$$
27:0:2
     RDKit          3D

 75 82  0  0  1  0  0  0  0  0999 V2000
    7.8736   -4.6692    0.4833 C   0  0  0  0  0  0  0  0  0  0  0  0
    6.8821   -4.6863    1.6469 C   0  0  2  0  0  0  0  0  0  0  0  0
    7.2489   -5.7845    2.6494 C   0  0  0  0  0  0  0  0  0  0  0  0
    6.2931   -5.7408    3.8501 C   0  0  0  0  0  0  0  0  0  0  0  0
    4.8029   -5.9453    3.4561 C   0  0  2  0  0  0  0  0  0  0  0  0
    4.4555   -7.4514    3.1992 C   0  0  1  0  0  0  0  0  0  0  0  0
    5.4540   -8.5083    3.7462 C   0  0  0  0  0  0  0  0  0  0  0  0
    3.0383   -7.7977    3.7351 C   0  0  1  0  0  0  0  0  0  0  0  0
    3.0381   -7.7404    5.1713 O   0  0  0  0  0  0  0  0  0  0  0  0
    1.8498   -8.0799    5.8271 C   0  0  2  0  0  0  0  0  0  0  0  0
    2.0097   -7.7185    7.3110 C   0  0  0  0  0  0  0  0  0  0  0  0
    0.7653   -7.9188    7.9632 O   0  0  0  0  0  0  0  0  0  0  0  0
    0.3730   -9.2750    7.8470 C   0  0  0  0  0  0  0  0  0  0  0  0
    0.2684   -9.6728    6.3636 C   0  0  0  0  0  0  0  0  0  0  0  0
    1.5225   -9.4126    5.7379 O   0  0  0  0  0  0  0  0  0  0  0  0
    1.9639   -6.8519    3.1707 C   0  0  0  0  0  0  0  0  0  0  0  0
    2.1853   -6.4140    1.7368 C   0  0  0  0  0  0  0  0  0  0  0  0
    2.9847   -5.1043    1.6033 C   0  0  2  0  0  0  0  0  0  0  0  0
    3.1164   -4.9955    0.1882 O   0  0  0  0  0  0  0  0  0  0  0  0
    3.8851   -3.9415   -0.3085 C   0  0  2  0  0  0  0  0  0  0  0  0
    4.2486   -4.1797   -1.5941 O   0  0  0  0  0  0  0  0  0  0  0  0
    5.1471   -3.3215   -2.2534 C   0  0  0  0  0  0  0  0  0  0  0  0
    4.7178   -1.8544   -2.3443 C   0  0  1  0  0  0  0  0  0  0  0  0
    3.4391   -1.6420   -2.8877 O   0  0  0  0  0  0  0  0  0  0  0  0
    5.0479   -0.8727   -1.2545 C   0  0  2  0  0  0  0  0  0  0  0  0
    5.9156   -1.3380   -0.1961 O   0  0  0  0  0  0  0  0  0  0  0  0
    4.6977   -0.6625    0.2250 C   0  0  2  0  0  0  0  0  0  0  0  0
    3.9155   -1.3982    1.3285 C   0  0  2  0  0  0  0  0  0  0  0  0
    3.3708   -0.5527    2.4778 C   0  0  0  0  0  0  0  0  0  0  0  0
    4.2824   -1.1118    3.4133 O   0  0  0  0  0  0  0  0  0  0  0  0
    4.6589   -2.1232    2.4714 C   0  0  1  0  0  0  0  0  0  0  0  0
    4.2342   -3.4681    3.1267 C   0  0  0  0  0  0  0  0  0  0  0  0
    4.3673   -4.8676    2.3558 C   0  0  1  0  0  0  0  0  0  0  0  0
    5.4262   -4.8717    1.2092 C   0  0  1  0  0  0  0  0  0  0  0  0
    5.0702   -3.8004    0.3744 O   0  0  0  0  0  0  0  0  0  0  0  0
    2.8573   -2.2508    0.9705 O   0  0  0  0  0  0  0  0  0  0  0  0
    3.1209   -2.7988   -0.3789 O   0  0  0  0  0  0  0  0  0  0  0  0
    7.8230   -5.5934   -0.0848 H   0  0  0  0  0  0  0  0  0  0  0  0
    8.8926   -4.5559    0.8487 H   0  0  0  0  0  0  0  0  0  0  0  0
    7.6737   -3.8224   -0.1707 H   0  0  0  0  0  0  0  0  0  0  0  0
    6.9886   -3.7065    2.0879 H   0  0  0  0  0  0  0  0  0  0  0  0
    7.2146   -6.7556    2.1577 H   0  0  0  0  0  0  0  0  0  0  0  0
    8.2745   -5.6488    2.9954 H   0  0  0  0  0  0  0  0  0  0  0  0
    6.6195   -6.4485    4.6108 H   0  0  0  0  0  0  0  0  0  0  0  0
    6.4246   -4.7800    4.3454 H   0  0  0  0  0  0  0  0  0  0  0  0
    4.2614   -5.7007    4.3730 H   0  0  0  0  0  0  0  0  0  0  0  0
    4.4949   -7.6050    2.1199 H   0  0  0  0  0  0  0  0  0  0  0  0
    5.5646   -8.4499    4.8307 H   0  0  0  0  0  0  0  0  0  0  0  0
    6.4499   -8.4298    3.3046 H   0  0  0  0  0  0  0  0  0  0  0  0
    5.1090   -9.5172    3.5121 H   0  0  0  0  0  0  0  0  0  0  0  0
    2.8193   -8.8220    3.4246 H   0  0  0  0  0  0  0  0  0  0  0  0
    1.0013   -7.4908    5.4872 H   0  0  0  0  0  0  0  0  0  0  0  0
    2.8146   -8.2886    7.7736 H   0  0  0  0  0  0  0  0  0  0  0  0
    2.2574   -6.6576    7.3636 H   0  0  0  0  0  0  0  0  0  0  0  0
    1.0998   -9.9038    8.3629 H   0  0  0  0  0  0  0  0  0  0  0  0
   -0.5894   -9.4051    8.3391 H   0  0  0  0  0  0  0  0  0  0  0  0
    0.0204  -10.7329    6.2668 H   0  0  0  0  0  0  0  0  0  0  0  0
   -0.5348   -9.1211    5.8718 H   0  0  0  0  0  0  0  0  0  0  0  0
    1.0125   -7.3847    3.2257 H   0  0  0  0  0  0  0  0  0  0  0  0
    1.8788   -5.9695    3.8096 H   0  0  0  0  0  0  0  0  0  0  0  0
    2.5871   -7.2300    1.1389 H   0  0  0  0  0  0  0  0  0  0  0  0
    1.1949   -6.2349    1.3189 H   0  0  0  0  0  0  0  0  0  0  0  0
    2.2696   -4.3417    1.8959 H   0  0  0  0  0  0  0  0  0  0  0  0
    6.1457   -3.4274   -1.8389 H   0  0  0  0  0  0  0  0  0  0  0  0
    5.2194   -3.7208   -3.2707 H   0  0  0  0  0  0  0  0  0  0  0  0
    5.3757   -1.5306   -3.1417 H   0  0  0  0  0  0  0  0  0  0  0  0
    2.7979   -1.7178   -2.1971 H   0  0  0  0  0  0  0  0  0  0  0  0
    5.4375    0.0226   -1.7345 H   0  0  0  0  0  0  0  0  0  0  0  0
    4.8876    0.3604    0.5225 H   0  0  0  0  0  0  0  0  0  0  0  0
    3.5027    0.5149    2.3153 H   0  0  0  0  0  0  0  0  0  0  0  0
    2.3232   -0.7765    2.7014 H   0  0  0  0  0  0  0  0  0  0  0  0
    5.7239   -2.0638    2.2579 H   0  0  0  0  0  0  0  0  0  0  0  0
    4.7763   -3.5270    4.0682 H   0  0  0  0  0  0  0  0  0  0  0  0
    3.2135   -3.3738    3.4937 H   0  0  0  0  0  0  0  0  0  0  0  0
    5.3641   -5.8025    0.6448 H   0  0  0  0  0  0  0  0  0  0  0  0
  1  2  1  0
  1 38  1  0
  1 39  1  0
  1 40  1  0
  2 34  1  0
  2  3  1  0
  2 41  1  1
  3  4  1  0
  3 42  1  0
  3 43  1  0
  4  5  1  0
  4 44  1  0
  4 45  1  0
  5 33  1  0
  5  6  1  0
  5 46  1  1
  6  7  1  0
  6  8  1  0
  6 47  1  6
  7 48  1  0
  7 49  1  0
  7 50  1  0
  8  9  1  0
  8 16  1  0
  8 51  1  1
  9 10  1  0
 10 15  1  0
 10 11  1  0
 10 52  1  6
 11 12  1  0
 11 53  1  0
 11 54  1  0
 12 13  1  0
 13 14  1  0
 13 55  1  0
 13 56  1  0
 14 15  1  0
 14 57  1  0
 14 58  1  0
 16 17  1  0
 16 59  1  0
 16 60  1  0
 17 18  1  0
 17 61  1  0
 17 62  1  0
 18 33  1  0
 18 19  1  0
 18 63  1  1
 19 20  1  0
 20 35  1  0
 20 37  1  0
 20 21  1  6
 21 22  1  0
 22 23  1  0
 22 64  1  0
 22 65  1  0
 23 24  1  0
 23 25  1  0
 23 66  1  6
 24 67  1  0
 25 27  1  0
 25 26  1  0
 25 68  1  6
 26 27  1  0
 27 28  1  0
 27 69  1  6
 28 31  1  0
 28 29  1  1
 28 36  1  0
 29 30  1  0
 29 70  1  0
 29 71  1  0
 30 31  1  0
 31 32  1  0
 31 72  1  6
 33 32  1  1
 32 73  1  0
 32 74  1  0
 33 34  1  0
 34 35  1  0
 34 75  1  6
 36 37  1  0
M  END
>  <i_m_ct_stereo_status>  (90) 
1

>  <s_m_source_file>  (90) 
/var/tmp/pbs.5076255.sched01/tmp7c02qu8j/38qwqhi24o.sdf

>  <i_m_source_file_index>  (90) 
2

>  <i_lp_mmshare_version>  (90) 
48012

>  <i_f3d_flags>  (90) 
0

>  <s_epik_input>  (90) 
TzFbQ0gyXVtDQEBIXShbT0hdKVtDQEhdKE8yKVtDQEhdMltDQEBdKFtDSDJdTzMpKE9PNClbQ0BASF0zW0NIMl1bQ0BdNShbQ0BIXTZPW0NAQF0xNDcpW0NASF0oW0NIMl1bQ0gyXVtDQEBIXShbQ0gzXSlbQ0BASF01TzcpW0NAQEhdKFtDSDNdKVtDQEhdKFtDSDJdW0NIMl02KU9bQ0BASF04W0NIMl1PW0NIMl1bQ0gyXU84

>  <s_epik_cmdline>  (90) 
J2VwaWtfcHl0aG9uJywgJy1waHQnLCAnMi4wJywgJy1waCcsICc3LjAnLCAnLXRuJywgJzgnLCAnLW1hJywgJzIwMCcsICctaW1hZScsICc8aW5maWxlLm1hZT4nLCAnLW9tYWUnLCAnPG91dGZpbGUubWFlPic=

>  <r_lp_tautomer_probability>  (90) 
1

>  <r_epik_Ionization_Penalty>  (90) 
1.5794e-06

>  <r_epik_Ionization_Penalty_Charging>  (90) 
0

>  <r_epik_Ionization_Penalty_Neutral>  (90) 
1.5794e-06

>  <r_epik_State_Penalty>  (90) 
-0

>  <r_epik_Charging_Adjusted_Penalty>  (90) 
0

>  <i_epik_Tot_Q>  (90) 
0

>  <i_epik_Tot_abs_Q>  (90) 
0

>  <s_epik_Chemistry_Notes>  (90) 
This compound contains an acetal/aminal-like group ( X-CH(R)-Y where X, Y are N, S, or O) that may be acid/base labile, releasing an aldehyde.

>  <s_lp_Force_Field>  (90) 
OPLS3e

>  <r_lp_Energy>  (90) 
93.1642

>  <b_lp_Chiralities_Consistent>  (90) 
1

>  <s_lp_Variant>  (90) 
27:0-1

>  <s_i_glide_gridfile>  (90) 
pfpi4k_grid

>  <i_i_glide_lignum>  (90) 
2

>  <i_i_glide_rotatable_bonds>  (90) 
3

>  <r_i_docking_score>  (90) 
-2.52053

>  <r_i_glide_ligand_efficiency>  (90) 
-0.0681225

>  <r_i_glide_ligand_efficiency_sa>  (90) 
-0.226999

>  <r_i_glide_ligand_efficiency_ln>  (90) 
-0.546645

>  <r_i_glide_gscore>  (90) 
-2.52053

>  <r_i_glide_lipo>  (90) 
-0.617798

>  <r_i_glide_hbond>  (90) 
0

>  <r_i_glide_metal>  (90) 
-0

>  <r_i_glide_rewards>  (90) 
-0.5

>  <r_i_glide_evdw>  (90) 
-29.6483

>  <r_i_glide_ecoul>  (90) 
-0.329653

>  <r_i_glide_erotb>  (90) 
0.148513

>  <r_i_glide_esite>  (90) 
-0.019389

>  <r_i_glide_emodel>  (90) 
-38.5128

>  <r_i_glide_energy>  (90) 
-29.9779

>  <r_i_glide_einternal>  (90) 
2.49481

>  <r_i_glide_intrahb_reward>  (90) 
-0.5

>  <i_i_glide_confnum>  (90) 
3

>  <i_i_glide_posenum>  (90) 
5

>  <r_i_glide_eff_state_penalty>  (90) 
0

>  <ligand_id>  (90) 
27

>  <original_smiles>  (90) 
CC1CCC2C(C)C(OC3COCCO3)CCC3OC45OCC(O)C6OC6C6(COC6CC32C1O4)OO5

>  <smiles>  (90) 
[H]OC1([H])C([H])([H])OC23OOC4(C([H])([H])OC4([H])C([H])([H])C45C([H])(O2)C([H])([H])C([H])([H])C([H])(OC2([H])OC([H])([H])C([H])([H])OC2([H])[H])C([H])(C([H])([H])[H])C4([H])C([H])([H])C([H])([H])C([H])(C([H])([H])[H])C5([H])O3)C2([H])OC12[H]

$$$$
28:0:0
     RDKit          3D

 45 47  0  0  1  0  0  0  0  0999 V2000
    2.9918   -2.8402    3.9980 C   0  0  0  0  0  0  0  0  0  0  0  0
    3.8021   -2.9178    2.7129 C   0  0  0  0  0  0  0  0  0  0  0  0
    4.8996   -2.2145    2.3894 C   0  0  0  0  0  0  0  0  0  0  0  0
    5.5981   -1.1839    3.2642 C   0  0  0  0  0  0  0  0  0  0  0  0
    4.8458    0.0047    3.3573 O   0  0  0  0  0  0  0  0  0  0  0  0
    5.4023   -2.5369    0.9857 C   0  0  2  0  0  0  0  0  0  0  0  0
    6.9241   -2.8213    0.9379 C   0  0  0  0  0  0  0  0  0  0  0  0
    4.9807   -1.4014   -0.0063 C   0  0  1  0  0  0  0  0  0  0  0  0
    5.8349   -0.2873    0.1319 O   0  0  0  0  0  0  0  0  0  0  0  0
    5.0511   -1.9017   -1.4545 C   0  0  2  0  0  0  0  0  0  0  0  0
    4.6125   -1.0186   -2.4647 O   0  0  0  0  0  0  0  0  0  0  0  0
    4.0954   -1.6689   -3.5181 C   0  0  0  0  0  0  0  0  0  0  0  0
    3.8125   -1.1910   -4.6097 O   0  0  0  0  0  0  0  0  0  0  0  0
    3.9218   -3.1404   -3.1607 C   0  0  1  0  0  0  0  0  0  0  0  0
    4.9734   -4.0155   -3.8608 C   0  0  0  0  0  0  0  0  0  0  0  0
    4.0566   -3.0377   -1.6451 C   0  0  1  0  0  0  0  0  0  0  0  0
    4.4627   -4.2461   -0.7924 C   0  0  0  0  0  0  0  0  0  0  0  0
    4.6262   -3.8586    0.6978 C   0  0  2  0  0  0  0  0  0  0  0  0
    3.3696   -3.8505    1.6060 C   0  0  1  0  0  0  0  0  0  0  0  0
    2.9655   -5.2542    2.0836 C   0  0  0  0  0  0  0  0  0  0  0  0
    2.2460   -3.2888    0.9677 O   0  0  0  0  0  0  0  0  0  0  0  0
    1.9530   -2.6070    3.7588 H   0  0  0  0  0  0  0  0  0  0  0  0
    3.3637   -2.0768    4.6793 H   0  0  0  0  0  0  0  0  0  0  0  0
    3.0087   -3.7978    4.5214 H   0  0  0  0  0  0  0  0  0  0  0  0
    5.7455   -1.6028    4.2626 H   0  0  0  0  0  0  0  0  0  0  0  0
    6.5820   -0.9370    2.8677 H   0  0  0  0  0  0  0  0  0  0  0  0
    3.9967   -0.2019    3.7145 H   0  0  0  0  0  0  0  0  0  0  0  0
    7.2312   -3.2029   -0.0345 H   0  0  0  0  0  0  0  0  0  0  0  0
    7.2179   -3.5619    1.6805 H   0  0  0  0  0  0  0  0  0  0  0  0
    7.5188   -1.9288    1.1178 H   0  0  0  0  0  0  0  0  0  0  0  0
    3.9628   -1.0749    0.2093 H   0  0  0  0  0  0  0  0  0  0  0  0
    5.4476    0.4428   -0.3378 H   0  0  0  0  0  0  0  0  0  0  0  0
    6.0601   -2.2442   -1.6906 H   0  0  0  0  0  0  0  0  0  0  0  0
    2.9205   -3.4683   -3.4382 H   0  0  0  0  0  0  0  0  0  0  0  0
    4.8814   -3.9606   -4.9452 H   0  0  0  0  0  0  0  0  0  0  0  0
    4.8252   -5.0562   -3.5897 H   0  0  0  0  0  0  0  0  0  0  0  0
    5.9939   -3.7350   -3.5860 H   0  0  0  0  0  0  0  0  0  0  0  0
    3.0804   -2.7034   -1.3010 H   0  0  0  0  0  0  0  0  0  0  0  0
    3.7375   -5.0530   -0.8630 H   0  0  0  0  0  0  0  0  0  0  0  0
    5.4092   -4.6441   -1.1661 H   0  0  0  0  0  0  0  0  0  0  0  0
    5.2399   -4.6605    1.1095 H   0  0  0  0  0  0  0  0  0  0  0  0
    3.7613   -5.7498    2.6369 H   0  0  0  0  0  0  0  0  0  0  0  0
    2.7072   -5.8894    1.2375 H   0  0  0  0  0  0  0  0  0  0  0  0
    2.0916   -5.2169    2.7301 H   0  0  0  0  0  0  0  0  0  0  0  0
    2.4711   -2.4389    0.6233 H   0  0  0  0  0  0  0  0  0  0  0  0
  1  2  1  0
  1 22  1  0
  1 23  1  0
  1 24  1  0
  2 19  1  0
  2  3  2  0
  3  4  1  0
  3  6  1  0
  4  5  1  0
  4 25  1  0
  4 26  1  0
  5 27  1  0
  6 18  1  0
  6  7  1  1
  6  8  1  0
  7 28  1  0
  7 29  1  0
  7 30  1  0
  8  9  1  0
  8 10  1  0
  8 31  1  1
  9 32  1  0
 10 16  1  0
 10 11  1  0
 10 33  1  6
 11 12  1  0
 12 13  2  0
 12 14  1  0
 14 15  1  0
 14 16  1  0
 14 34  1  1
 15 35  1  0
 15 36  1  0
 15 37  1  0
 16 17  1  0
 16 38  1  1
 17 18  1  0
 17 39  1  0
 17 40  1  0
 18 19  1  0
 18 41  1  1
 19 20  1  0
 19 21  1  6
 20 42  1  0
 20 43  1  0
 20 44  1  0
 21 45  1  0
M  END
>  <i_m_ct_stereo_status>  (91) 
1

>  <s_m_source_file>  (91) 
/var/tmp/pbs.5076255.sched01/tmp7c02qu8j/38qwqhi24o.sdf

>  <i_m_source_file_index>  (91) 
3

>  <i_lp_mmshare_version>  (91) 
48012

>  <i_f3d_flags>  (91) 
0

>  <s_epik_input>  (91) 
W09IXVtDSDJdQzE9QyhbQ0gzXSlbQ0BAXShbQ0gzXSkoW09IXSlbQ0BIXShbQ0BdMTJbQ0gzXSlbQ0gyXVtDQEhdM1tDQEhdKFtDQEBIXTJbT0hdKU9DKD1PKVtDQEhdM1tDSDNd

>  <s_epik_cmdline>  (91) 
J2VwaWtfcHl0aG9uJywgJy1waHQnLCAnMi4wJywgJy1waCcsICc3LjAnLCAnLXRuJywgJzgnLCAnLW1hJywgJzIwMCcsICctaW1hZScsICc8aW5maWxlLm1hZT4nLCAnLW9tYWUnLCAnPG91dGZpbGUubWFlPic=

>  <r_lp_tautomer_probability>  (91) 
1

>  <r_epik_Ionization_Penalty>  (91) 
7.54523e-07

>  <r_epik_Ionization_Penalty_Charging>  (91) 
0

>  <r_epik_Ionization_Penalty_Neutral>  (91) 
7.54523e-07

>  <r_epik_State_Penalty>  (91) 
-0

>  <r_epik_Charging_Adjusted_Penalty>  (91) 
0

>  <i_epik_Tot_Q>  (91) 
0

>  <i_epik_Tot_abs_Q>  (91) 
0

>  <s_epik_Chemistry_Notes>  (91) 
This compound has an ester and may undergo hydrolysis at high or low pH.

>  <s_lp_Force_Field>  (91) 
OPLS3e

>  <r_lp_Energy>  (91) 
19.0132

>  <b_lp_Chiralities_Consistent>  (91) 
1

>  <s_lp_Variant>  (91) 
28:0-1

>  <s_i_glide_gridfile>  (91) 
pfpi4k_grid

>  <i_i_glide_lignum>  (91) 
3

>  <i_i_glide_rotatable_bonds>  (91) 
4

>  <r_i_docking_score>  (91) 
-3.88632

>  <r_i_glide_ligand_efficiency>  (91) 
-0.185063

>  <r_i_glide_ligand_efficiency_sa>  (91) 
-0.510574

>  <r_i_glide_ligand_efficiency_ln>  (91) 
-0.960885

>  <r_i_glide_gscore>  (91) 
-3.88632

>  <r_i_glide_lipo>  (91) 
-0.362317

>  <r_i_glide_hbond>  (91) 
-0.304

>  <r_i_glide_metal>  (91) 
-0

>  <r_i_glide_rewards>  (91) 
-1.65996

>  <r_i_glide_evdw>  (91) 
-18.5309

>  <r_i_glide_ecoul>  (91) 
-5.61382

>  <r_i_glide_erotb>  (91) 
0.208574

>  <r_i_glide_esite>  (91) 
0

>  <r_i_glide_emodel>  (91) 
-28.858

>  <r_i_glide_energy>  (91) 
-24.1448

>  <r_i_glide_einternal>  (91) 
2.75662

>  <r_i_glide_intrahb_reward>  (91) 
-0

>  <i_i_glide_confnum>  (91) 
2

>  <i_i_glide_posenum>  (91) 
33

>  <r_i_glide_eff_state_penalty>  (91) 
0

>  <ligand_id>  (91) 
28

>  <original_smiles>  (91) 
CC1=C(CO)C2(C)C(O)C3OC(=O)C(C)C3CC2C1(C)O

>  <smiles>  (91) 
[H]OC([H])([H])C1=C(C([H])([H])[H])C(O[H])(C([H])([H])[H])C2([H])C([H])([H])C3([H])C([H])(OC(=O)C3([H])C([H])([H])[H])C([H])(O[H])C12C([H])([H])[H]

$$$$
28:0:1
     RDKit          3D

 45 47  0  0  1  0  0  0  0  0999 V2000
    2.9354   -3.2983    4.2302 C   0  0  0  0  0  0  0  0  0  0  0  0
    3.7645   -3.2240    2.9511 C   0  0  0  0  0  0  0  0  0  0  0  0
    4.7625   -2.3781    2.6433 C   0  0  0  0  0  0  0  0  0  0  0  0
    5.3369   -1.2607    3.5216 C   0  0  0  0  0  0  0  0  0  0  0  0
    5.4102   -1.6271    4.8893 O   0  0  0  0  0  0  0  0  0  0  0  0
    5.2683   -2.5826    1.2087 C   0  0  2  0  0  0  0  0  0  0  0  0
    6.8118   -2.6626    1.1033 C   0  0  0  0  0  0  0  0  0  0  0  0
    4.6851   -1.4938    0.2503 C   0  0  1  0  0  0  0  0  0  0  0  0
    5.3843   -0.2790    0.4444 O   0  0  0  0  0  0  0  0  0  0  0  0
    4.8236   -1.9574   -1.2090 C   0  0  2  0  0  0  0  0  0  0  0  0
    4.2666   -1.1225   -2.2041 O   0  0  0  0  0  0  0  0  0  0  0  0
    3.8158   -1.8228   -3.2487 C   0  0  0  0  0  0  0  0  0  0  0  0
    3.4479   -1.3696   -4.3234 O   0  0  0  0  0  0  0  0  0  0  0  0
    3.8405   -3.3056   -2.9281 C   0  0  1  0  0  0  0  0  0  0  0  0
    4.9882   -4.0116   -3.6622 C   0  0  0  0  0  0  0  0  0  0  0  0
    3.9830   -3.2091   -1.4152 C   0  0  1  0  0  0  0  0  0  0  0  0
    4.5490   -4.3763   -0.6034 C   0  0  0  0  0  0  0  0  0  0  0  0
    4.6752   -3.9934    0.8948 C   0  0  2  0  0  0  0  0  0  0  0  0
    3.4533   -4.1888    1.8256 C   0  0  1  0  0  0  0  0  0  0  0  0
    3.2630   -5.6436    2.2798 C   0  0  0  0  0  0  0  0  0  0  0  0
    2.2579   -3.7869    1.2038 O   0  0  0  0  0  0  0  0  0  0  0  0
    1.8765   -3.2311    3.9906 H   0  0  0  0  0  0  0  0  0  0  0  0
    3.1457   -2.4977    4.9325 H   0  0  0  0  0  0  0  0  0  0  0  0
    3.1234   -4.2476    4.7319 H   0  0  0  0  0  0  0  0  0  0  0  0
    6.3402   -1.0052    3.1943 H   0  0  0  0  0  0  0  0  0  0  0  0
    4.7317   -0.3621    3.3966 H   0  0  0  0  0  0  0  0  0  0  0  0
    5.6707   -0.8698    5.4030 H   0  0  0  0  0  0  0  0  0  0  0  0
    7.1437   -2.9893    0.1230 H   0  0  0  0  0  0  0  0  0  0  0  0
    7.1997   -3.3956    1.8026 H   0  0  0  0  0  0  0  0  0  0  0  0
    7.3027   -1.7069    1.2791 H   0  0  0  0  0  0  0  0  0  0  0  0
    3.6300   -1.3239    0.4660 H   0  0  0  0  0  0  0  0  0  0  0  0
    5.0756    0.3532   -0.1937 H   0  0  0  0  0  0  0  0  0  0  0  0
    5.8661   -2.1634   -1.4607 H   0  0  0  0  0  0  0  0  0  0  0  0
    2.8853   -3.7507   -3.2038 H   0  0  0  0  0  0  0  0  0  0  0  0
    4.8538   -3.9516   -4.7426 H   0  0  0  0  0  0  0  0  0  0  0  0
    4.9997   -5.0709   -3.4077 H   0  0  0  0  0  0  0  0  0  0  0  0
    5.9676   -3.5945   -3.4154 H   0  0  0  0  0  0  0  0  0  0  0  0
    2.9718   -3.0223   -1.0601 H   0  0  0  0  0  0  0  0  0  0  0  0
    3.9316   -5.2685   -0.7167 H   0  0  0  0  0  0  0  0  0  0  0  0
    5.5355   -4.6388   -0.9966 H   0  0  0  0  0  0  0  0  0  0  0  0
    5.3969   -4.7093    1.2774 H   0  0  0  0  0  0  0  0  0  0  0  0
    4.1247   -6.0378    2.8144 H   0  0  0  0  0  0  0  0  0  0  0  0
    3.0752   -6.2880    1.4269 H   0  0  0  0  0  0  0  0  0  0  0  0
    2.4036   -5.7344    2.9377 H   0  0  0  0  0  0  0  0  0  0  0  0
    2.3834   -2.8983    0.9062 H   0  0  0  0  0  0  0  0  0  0  0  0
  1  2  1  0
  1 22  1  0
  1 23  1  0
  1 24  1  0
  2 19  1  0
  2  3  2  0
  3  4  1  0
  3  6  1  0
  4  5  1  0
  4 25  1  0
  4 26  1  0
  5 27  1  0
  6 18  1  0
  6  7  1  1
  6  8  1  0
  7 28  1  0
  7 29  1  0
  7 30  1  0
  8  9  1  0
  8 10  1  0
  8 31  1  1
  9 32  1  0
 10 16  1  0
 10 11  1  0
 10 33  1  6
 11 12  1  0
 12 13  2  0
 12 14  1  0
 14 15  1  0
 14 16  1  0
 14 34  1  1
 15 35  1  0
 15 36  1  0
 15 37  1  0
 16 17  1  0
 16 38  1  1
 17 18  1  0
 17 39  1  0
 17 40  1  0
 18 19  1  0
 18 41  1  1
 19 20  1  0
 19 21  1  6
 20 42  1  0
 20 43  1  0
 20 44  1  0
 21 45  1  0
M  END
>  <i_m_ct_stereo_status>  (92) 
1

>  <s_m_source_file>  (92) 
/var/tmp/pbs.5076255.sched01/tmp7c02qu8j/38qwqhi24o.sdf

>  <i_m_source_file_index>  (92) 
3

>  <i_lp_mmshare_version>  (92) 
48012

>  <i_f3d_flags>  (92) 
0

>  <s_epik_input>  (92) 
W09IXVtDSDJdQzE9QyhbQ0gzXSlbQ0BAXShbQ0gzXSkoW09IXSlbQ0BIXShbQ0BdMTJbQ0gzXSlbQ0gyXVtDQEhdM1tDQEhdKFtDQEBIXTJbT0hdKU9DKD1PKVtDQEhdM1tDSDNd

>  <s_epik_cmdline>  (92) 
J2VwaWtfcHl0aG9uJywgJy1waHQnLCAnMi4wJywgJy1waCcsICc3LjAnLCAnLXRuJywgJzgnLCAnLW1hJywgJzIwMCcsICctaW1hZScsICc8aW5maWxlLm1hZT4nLCAnLW9tYWUnLCAnPG91dGZpbGUubWFlPic=

>  <r_lp_tautomer_probability>  (92) 
1

>  <r_epik_Ionization_Penalty>  (92) 
7.54523e-07

>  <r_epik_Ionization_Penalty_Charging>  (92) 
0

>  <r_epik_Ionization_Penalty_Neutral>  (92) 
7.54523e-07

>  <r_epik_State_Penalty>  (92) 
-0

>  <r_epik_Charging_Adjusted_Penalty>  (92) 
0

>  <i_epik_Tot_Q>  (92) 
0

>  <i_epik_Tot_abs_Q>  (92) 
0

>  <s_epik_Chemistry_Notes>  (92) 
This compound has an ester and may undergo hydrolysis at high or low pH.

>  <s_lp_Force_Field>  (92) 
OPLS3e

>  <r_lp_Energy>  (92) 
19.0132

>  <b_lp_Chiralities_Consistent>  (92) 
1

>  <s_lp_Variant>  (92) 
28:0-1

>  <s_i_glide_gridfile>  (92) 
pfpi4k_grid

>  <i_i_glide_lignum>  (92) 
3

>  <i_i_glide_rotatable_bonds>  (92) 
4

>  <r_i_docking_score>  (92) 
-3.28238

>  <r_i_glide_ligand_efficiency>  (92) 
-0.156304

>  <r_i_glide_ligand_efficiency_sa>  (92) 
-0.43123

>  <r_i_glide_ligand_efficiency_ln>  (92) 
-0.811562

>  <r_i_glide_gscore>  (92) 
-3.28238

>  <r_i_glide_lipo>  (92) 
-0.261478

>  <r_i_glide_hbond>  (92) 
-0.165699

>  <r_i_glide_metal>  (92) 
-0

>  <r_i_glide_rewards>  (92) 
-1.55135

>  <r_i_glide_evdw>  (92) 
-19.0798

>  <r_i_glide_ecoul>  (92) 
-3.72288

>  <r_i_glide_erotb>  (92) 
0.208574

>  <r_i_glide_esite>  (92) 
0

>  <r_i_glide_emodel>  (92) 
-26.4841

>  <r_i_glide_energy>  (92) 
-22.8027

>  <r_i_glide_einternal>  (92) 
2.68217

>  <r_i_glide_intrahb_reward>  (92) 
-0

>  <i_i_glide_confnum>  (92) 
5

>  <i_i_glide_posenum>  (92) 
18

>  <r_i_glide_eff_state_penalty>  (92) 
0

>  <ligand_id>  (92) 
28

>  <original_smiles>  (92) 
CC1=C(CO)C2(C)C(O)C3OC(=O)C(C)C3CC2C1(C)O

>  <smiles>  (92) 
[H]OC([H])([H])C1=C(C([H])([H])[H])C(O[H])(C([H])([H])[H])C2([H])C([H])([H])C3([H])C([H])(OC(=O)C3([H])C([H])([H])[H])C([H])(O[H])C12C([H])([H])[H]

$$$$
28:0:2
     RDKit          3D

 45 47  0  0  1  0  0  0  0  0999 V2000
    3.0028   -3.7456    3.4632 C   0  0  0  0  0  0  0  0  0  0  0  0
    3.6249   -3.6681    2.0804 C   0  0  0  0  0  0  0  0  0  0  0  0
    4.8379   -3.2377    1.7281 C   0  0  0  0  0  0  0  0  0  0  0  0
    5.8806   -2.7867    2.6657 C   0  0  0  0  0  0  0  0  0  0  0  0
    5.9113   -1.3837    2.7284 O   0  0  0  0  0  0  0  0  0  0  0  0
    5.0474   -3.0936    0.2238 C   0  0  2  0  0  0  0  0  0  0  0  0
    6.3403   -3.8042   -0.2448 C   0  0  0  0  0  0  0  0  0  0  0  0
    5.0080   -1.5922   -0.2395 C   0  0  1  0  0  0  0  0  0  0  0  0
    6.2249   -0.9500    0.0435 O   0  0  0  0  0  0  0  0  0  0  0  0
    4.7522   -1.5051   -1.7466 C   0  0  2  0  0  0  0  0  0  0  0  0
    4.6128   -0.2357   -2.3433 O   0  0  0  0  0  0  0  0  0  0  0  0
    3.8018   -0.2979   -3.4102 C   0  0  0  0  0  0  0  0  0  0  0  0
    3.7147    0.5405   -4.2882 O   0  0  0  0  0  0  0  0  0  0  0  0
    3.0603   -1.6164   -3.4291 C   0  0  1  0  0  0  0  0  0  0  0  0
    3.5976   -2.4296   -4.6069 C   0  0  0  0  0  0  0  0  0  0  0  0
    3.3808   -2.1044   -2.0228 C   0  0  1  0  0  0  0  0  0  0  0  0
    3.3495   -3.5909   -1.7191 C   0  0  0  0  0  0  0  0  0  0  0  0
    3.8198   -3.8990   -0.2744 C   0  0  2  0  0  0  0  0  0  0  0  0
    2.7823   -3.8291    0.8672 C   0  0  1  0  0  0  0  0  0  0  0  0
    1.8902   -5.0776    0.9262 C   0  0  0  0  0  0  0  0  0  0  0  0
    2.0331   -2.6781    0.8270 O   0  0  0  0  0  0  0  0  0  0  0  0
    2.1182   -3.0999    3.5275 H   0  0  0  0  0  0  0  0  0  0  0  0
    3.6825   -3.4358    4.2488 H   0  0  0  0  0  0  0  0  0  0  0  0
    2.6909   -4.7724    3.6524 H   0  0  0  0  0  0  0  0  0  0  0  0
    5.7881   -3.2410    3.6482 H   0  0  0  0  0  0  0  0  0  0  0  0
    6.7731   -3.2139    2.2168 H   0  0  0  0  0  0  0  0  0  0  0  0
    5.1967   -1.0848    3.2986 H   0  0  0  0  0  0  0  0  0  0  0  0
    6.3876   -3.8569   -1.3306 H   0  0  0  0  0  0  0  0  0  0  0  0
    6.3953   -4.8187    0.1372 H   0  0  0  0  0  0  0  0  0  0  0  0
    7.2460   -3.2941    0.0759 H   0  0  0  0  0  0  0  0  0  0  0  0
    4.2191   -1.0508    0.2907 H   0  0  0  0  0  0  0  0  0  0  0  0
    6.3106   -0.9130    1.0017 H   0  0  0  0  0  0  0  0  0  0  0  0
    5.5208   -2.0804   -2.2724 H   0  0  0  0  0  0  0  0  0  0  0  0
    1.9901   -1.4622   -3.5656 H   0  0  0  0  0  0  0  0  0  0  0  0
    3.4562   -1.8192   -5.4870 H   0  0  0  0  0  0  0  0  0  0  0  0
    3.0519   -3.3682   -4.6848 H   0  0  0  0  0  0  0  0  0  0  0  0
    4.6550   -2.6295   -4.4312 H   0  0  0  0  0  0  0  0  0  0  0  0
    2.6400   -1.6160   -1.3879 H   0  0  0  0  0  0  0  0  0  0  0  0
    2.3557   -3.9946   -1.9124 H   0  0  0  0  0  0  0  0  0  0  0  0
    4.0322   -4.0875   -2.4048 H   0  0  0  0  0  0  0  0  0  0  0  0
    4.1188   -4.9509   -0.3076 H   0  0  0  0  0  0  0  0  0  0  0  0
    2.4905   -5.9668    1.0802 H   0  0  0  0  0  0  0  0  0  0  0  0
    1.3520   -5.2304   -0.0037 H   0  0  0  0  0  0  0  0  0  0  0  0
    1.1879   -5.0574    1.7492 H   0  0  0  0  0  0  0  0  0  0  0  0
    2.0085   -2.3063   -0.0468 H   0  0  0  0  0  0  0  0  0  0  0  0
  1  2  1  0
  1 22  1  0
  1 23  1  0
  1 24  1  0
  2 19  1  0
  2  3  2  0
  3  4  1  0
  3  6  1  0
  4  5  1  0
  4 25  1  0
  4 26  1  0
  5 27  1  0
  6 18  1  0
  6  7  1  6
  6  8  1  0
  7 28  1  0
  7 29  1  0
  7 30  1  0
  8  9  1  0
  8 10  1  0
  8 31  1  1
  9 32  1  0
 10 16  1  0
 10 11  1  0
 10 33  1  6
 11 12  1  0
 12 13  2  0
 12 14  1  0
 14 15  1  0
 14 16  1  0
 14 34  1  6
 15 35  1  0
 15 36  1  0
 15 37  1  0
 16 17  1  0
 16 38  1  1
 17 18  1  0
 17 39  1  0
 17 40  1  0
 18 19  1  0
 18 41  1  6
 19 20  1  0
 19 21  1  6
 20 42  1  0
 20 43  1  0
 20 44  1  0
 21 45  1  0
M  END
>  <i_m_ct_stereo_status>  (93) 
1

>  <s_m_source_file>  (93) 
/var/tmp/pbs.5076255.sched01/tmp7c02qu8j/38qwqhi24o.sdf

>  <i_m_source_file_index>  (93) 
3

>  <i_lp_mmshare_version>  (93) 
48012

>  <i_f3d_flags>  (93) 
0

>  <s_epik_input>  (93) 
W09IXVtDSDJdQzE9QyhbQ0gzXSlbQ0BAXShbQ0gzXSkoW09IXSlbQ0BIXShbQ0BdMTJbQ0gzXSlbQ0gyXVtDQEhdM1tDQEhdKFtDQEBIXTJbT0hdKU9DKD1PKVtDQEhdM1tDSDNd

>  <s_epik_cmdline>  (93) 
J2VwaWtfcHl0aG9uJywgJy1waHQnLCAnMi4wJywgJy1waCcsICc3LjAnLCAnLXRuJywgJzgnLCAnLW1hJywgJzIwMCcsICctaW1hZScsICc8aW5maWxlLm1hZT4nLCAnLW9tYWUnLCAnPG91dGZpbGUubWFlPic=

>  <r_lp_tautomer_probability>  (93) 
1

>  <r_epik_Ionization_Penalty>  (93) 
7.54523e-07

>  <r_epik_Ionization_Penalty_Charging>  (93) 
0

>  <r_epik_Ionization_Penalty_Neutral>  (93) 
7.54523e-07

>  <r_epik_State_Penalty>  (93) 
-0

>  <r_epik_Charging_Adjusted_Penalty>  (93) 
0

>  <i_epik_Tot_Q>  (93) 
0

>  <i_epik_Tot_abs_Q>  (93) 
0

>  <s_epik_Chemistry_Notes>  (93) 
This compound has an ester and may undergo hydrolysis at high or low pH.

>  <s_lp_Force_Field>  (93) 
OPLS3e

>  <r_lp_Energy>  (93) 
19.0132

>  <b_lp_Chiralities_Consistent>  (93) 
1

>  <s_lp_Variant>  (93) 
28:0-1

>  <s_i_glide_gridfile>  (93) 
pfpi4k_grid

>  <i_i_glide_lignum>  (93) 
3

>  <i_i_glide_rotatable_bonds>  (93) 
4

>  <r_i_docking_score>  (93) 
-2.82867

>  <r_i_glide_ligand_efficiency>  (93) 
-0.134699

>  <r_i_glide_ligand_efficiency_sa>  (93) 
-0.371623

>  <r_i_glide_ligand_efficiency_ln>  (93) 
-0.699383

>  <r_i_glide_gscore>  (93) 
-2.82867

>  <r_i_glide_lipo>  (93) 
-0.324188

>  <r_i_glide_hbond>  (93) 
-0.102268

>  <r_i_glide_metal>  (93) 
-0

>  <r_i_glide_rewards>  (93) 
-2.16305

>  <r_i_glide_evdw>  (93) 
-3.45505

>  <r_i_glide_ecoul>  (93) 
-1.83321

>  <r_i_glide_erotb>  (93) 
0.208574

>  <r_i_glide_esite>  (93) 
0

>  <r_i_glide_emodel>  (93) 
-11.5813

>  <r_i_glide_energy>  (93) 
-5.28825

>  <r_i_glide_einternal>  (93) 
1.9888

>  <r_i_glide_intrahb_reward>  (93) 
-0.5

>  <i_i_glide_confnum>  (93) 
2

>  <i_i_glide_posenum>  (93) 
13

>  <r_i_glide_eff_state_penalty>  (93) 
0

>  <ligand_id>  (93) 
28

>  <original_smiles>  (93) 
CC1=C(CO)C2(C)C(O)C3OC(=O)C(C)C3CC2C1(C)O

>  <smiles>  (93) 
[H]OC([H])([H])C1=C(C([H])([H])[H])C(O[H])(C([H])([H])[H])C2([H])C([H])([H])C3([H])C([H])(OC(=O)C3([H])C([H])([H])[H])C([H])(O[H])C12C([H])([H])[H]

$$$$
29:0:0
     RDKit          3D

 31 33  0  0  1  0  0  0  0  0999 V2000
   -1.8115   -1.9330    5.6775 O   0  0  0  0  0  0  0  0  0  0  0  0
   -1.7137   -0.6921    5.6181 C   0  0  0  0  0  0  0  0  0  0  0  0
   -2.2460    0.0754    6.4647 O   0  0  0  0  0  0  0  0  0  0  0  0
   -0.8877   -0.0729    4.4854 C   0  0  0  0  0  0  0  0  0  0  0  0
   -0.4833    1.4170    4.6997 C   0  0  1  0  0  0  0  0  0  0  0  0
    0.3996    1.5755    5.9835 C   0  0  0  0  0  0  0  0  0  0  0  0
    0.8143    3.0464    6.1672 C   0  0  2  0  0  0  0  0  0  0  0  0
   -0.4507    3.9163    6.2869 C   0  0  0  0  0  0  0  0  0  0  0  0
   -1.2738    3.8226    4.9810 C   0  0  1  0  0  0  0  0  0  0  0  0
   -0.4239    4.2714    3.7848 C   0  0  0  0  0  0  0  0  0  0  0  0
    0.8138    3.3612    3.6772 C   0  0  1  0  0  0  0  0  0  0  0  0
    1.6625    3.4871    4.9621 C   0  0  0  0  0  0  0  0  0  0  0  0
    0.3756    1.8850    3.4959 C   0  0  0  0  0  0  0  0  0  0  0  0
   -1.7238    2.3673    4.7708 C   0  0  0  0  0  0  0  0  0  0  0  0
   -0.0004   -0.6915    4.3521 H   0  0  0  0  0  0  0  0  0  0  0  0
   -1.4647   -0.1748    3.5658 H   0  0  0  0  0  0  0  0  0  0  0  0
   -0.1148    1.2638    6.8918 H   0  0  0  0  0  0  0  0  0  0  0  0
    1.2886    0.9470    5.9119 H   0  0  0  0  0  0  0  0  0  0  0  0
    1.4075    3.1345    7.0802 H   0  0  0  0  0  0  0  0  0  0  0  0
   -1.0531    3.5737    7.1275 H   0  0  0  0  0  0  0  0  0  0  0  0
   -0.1842    4.9482    6.4978 H   0  0  0  0  0  0  0  0  0  0  0  0
   -2.1647    4.4438    5.0563 H   0  0  0  0  0  0  0  0  0  0  0  0
   -1.0186    4.1995    2.8755 H   0  0  0  0  0  0  0  0  0  0  0  0
   -0.1346    5.3157    3.8910 H   0  0  0  0  0  0  0  0  0  0  0  0
    1.4120    3.6764    2.8219 H   0  0  0  0  0  0  0  0  0  0  0  0
    2.0042    4.5145    5.0902 H   0  0  0  0  0  0  0  0  0  0  0  0
    2.5533    2.8625    4.8812 H   0  0  0  0  0  0  0  0  0  0  0  0
    1.2570    1.2544    3.3732 H   0  0  0  0  0  0  0  0  0  0  0  0
   -0.1857    1.7914    2.5638 H   0  0  0  0  0  0  0  0  0  0  0  0
   -2.3079    2.2836    3.8476 H   0  0  0  0  0  0  0  0  0  0  0  0
   -2.4102    2.1715    5.5850 H   0  0  0  0  0  0  0  0  0  0  0  0
  1  2  2  0
  2  3  1  0
  2  4  1  0
  5  4  1  6
  4 15  1  0
  4 16  1  0
  5 13  1  0
  5 14  1  0
  5  6  1  0
  6  7  1  0
  6 17  1  0
  6 18  1  0
  7 12  1  0
  7  8  1  0
  7 19  1  1
  8  9  1  0
  8 20  1  0
  8 21  1  0
  9 10  1  0
  9 14  1  0
  9 22  1  1
 10 11  1  0
 10 23  1  0
 10 24  1  0
 11 12  1  0
 11 13  1  0
 11 25  1  6
 12 26  1  0
 12 27  1  0
 13 28  1  0
 13 29  1  0
 14 30  1  0
 14 31  1  0
M  CHG  1   3  -1
M  END
>  <i_m_ct_stereo_status>  (94) 
1

>  <s_m_source_file>  (94) 
/var/tmp/pbs.5076255.sched01/tmp7c02qu8j/38qwqhi24o.sdf

>  <i_m_source_file_index>  (94) 
4

>  <i_lp_mmshare_version>  (94) 
48012

>  <i_f3d_flags>  (94) 
0

>  <s_epik_input>  (94) 
Tz1DKFtPSF0pW0NIMl1DMTJbQ0gyXVtDQEhdM1tDSDJdW0NAQEhdKFtDSDJdMilbQ0gyXVtDQEhdKFtDSDJdMylbQ0gyXTE=

>  <s_epik_cmdline>  (94) 
J2VwaWtfcHl0aG9uJywgJy1waHQnLCAnMi4wJywgJy1waCcsICc3LjAnLCAnLXRuJywgJzgnLCAnLW1hJywgJzIwMCcsICctaW1hZScsICc8aW5maWxlLm1hZT4nLCAnLW9tYWUnLCAnPG91dGZpbGUubWFlPic=

>  <r_epik_Ionization_Penalty>  (94) 
0.0061509

>  <r_epik_Ionization_Penalty_Charging>  (94) 
0.0061509

>  <r_epik_Ionization_Penalty_Neutral>  (94) 
0

>  <r_epik_State_Penalty>  (94) 
0.00453538

>  <r_epik_Charging_Adjusted_Penalty>  (94) 
0.0106863

>  <i_epik_Tot_Q>  (94) 
-1

>  <i_epik_Tot_abs_Q>  (94) 
1

>  <s_lp_Force_Field>  (94) 
OPLS3e

>  <r_lp_Energy>  (94) 
-2.19593

>  <b_lp_Chiralities_Consistent>  (94) 
1

>  <s_lp_Variant>  (94) 
29:0-1

>  <s_i_glide_gridfile>  (94) 
pfpi4k_grid

>  <i_i_glide_lignum>  (94) 
4

>  <i_i_glide_rotatable_bonds>  (94) 
2

>  <r_i_docking_score>  (94) 
-3.77711

>  <r_i_glide_ligand_efficiency>  (94) 
-0.269794

>  <r_i_glide_ligand_efficiency_sa>  (94) 
-0.650242

>  <r_i_glide_ligand_efficiency_ln>  (94) 
-1.03794

>  <r_i_glide_gscore>  (94) 
-3.77711

>  <r_i_glide_lipo>  (94) 
0

>  <r_i_glide_hbond>  (94) 
-0.2

>  <r_i_glide_metal>  (94) 
-0

>  <r_i_glide_rewards>  (94) 
-2.09139

>  <r_i_glide_evdw>  (94) 
-11.5444

>  <r_i_glide_ecoul>  (94) 
-5.57238

>  <r_i_glide_erotb>  (94) 
0

>  <r_i_glide_esite>  (94) 
-0.072646

>  <r_i_glide_emodel>  (94) 
-25.0619

>  <r_i_glide_energy>  (94) 
-17.1167

>  <r_i_glide_einternal>  (94) 
0.0964267

>  <r_i_glide_intrahb_reward>  (94) 
-0

>  <i_i_glide_confnum>  (94) 
2

>  <i_i_glide_posenum>  (94) 
10

>  <r_i_glide_eff_state_penalty>  (94) 
0

>  <ligand_id>  (94) 
29

>  <original_smiles>  (94) 
O=C(O)CC12CC3CC(CC(C3)C1)C2

>  <smiles>  (94) 
[H]C([H])(C(=O)[O-])C12C([H])([H])C3([H])C([H])([H])C([H])(C([H])([H])C([H])(C3([H])[H])C1([H])[H])C2([H])[H]

$$$$
30:0:0
     RDKit          3D

 36 40  0  0  1  0  0  0  0  0999 V2000
    2.7674   -4.3917    0.4281 C   0  0  0  0  0  0  0  0  0  0  0  0
    3.7992   -3.2608    0.6194 C   0  0  2  0  0  0  0  0  0  0  0  0
    4.6417   -3.5404    1.9475 C   0  0  0  0  0  0  0  0  0  0  0  0
    4.8637   -2.4959    2.7678 C   0  0  0  0  0  0  0  0  0  0  0  0
    4.6366   -1.2413    2.0936 C   0  0  0  0  0  0  0  0  0  0  0  0
    4.6024   -0.1746    2.6974 O   0  0  0  0  0  0  0  0  0  0  0  0
    4.4955   -1.4423    0.5692 C   0  0  2  0  0  0  0  0  0  0  0  0
    3.2510   -1.9025    0.0660 C   0  0  1  0  0  0  0  0  0  0  0  0
    3.2310   -1.5529   -1.4811 C   0  0  0  0  0  0  0  0  0  0  0  0
    4.7062   -1.3696   -2.0840 C   0  0  0  0  0  0  0  0  0  0  0  0
    5.8021   -1.9356   -1.0745 C   0  0  2  0  0  0  0  0  0  0  0  0
    6.9282   -2.9458   -1.3601 C   0  0  1  0  0  0  0  0  0  0  0  0
    7.5510   -3.7559   -0.0816 C   0  0  0  0  0  0  0  0  0  0  0  0
    6.9991   -3.6590    1.2838 O   0  0  0  0  0  0  0  0  0  0  0  0
    5.8866   -4.3955    1.8114 C   0  0  0  0  0  0  0  0  0  0  0  0
    5.9193   -5.6049    2.0703 O   0  0  0  0  0  0  0  0  0  0  0  0
    6.1064   -3.7694   -2.1323 O   0  0  0  0  0  0  0  0  0  0  0  0
    4.9883   -3.9468   -1.3514 C   0  0  1  0  0  0  0  0  0  0  0  0
    5.0188   -5.2690   -0.8713 O   0  0  0  0  0  0  0  0  0  0  0  0
    5.0731   -2.8557   -0.1634 C   0  0  1  0  0  0  0  0  0  0  0  0
    2.4219   -4.4421   -0.6033 H   0  0  0  0  0  0  0  0  0  0  0  0
    1.8869   -4.2163    1.0437 H   0  0  0  0  0  0  0  0  0  0  0  0
    3.1460   -5.3760    0.7087 H   0  0  0  0  0  0  0  0  0  0  0  0
    5.6307   -2.4986    3.5300 H   0  0  0  0  0  0  0  0  0  0  0  0
    4.6678   -0.4600    0.1259 H   0  0  0  0  0  0  0  0  0  0  0  0
    2.4102   -1.5432    0.6403 H   0  0  0  0  0  0  0  0  0  0  0  0
    2.6665   -2.3260   -2.0121 H   0  0  0  0  0  0  0  0  0  0  0  0
    2.6558   -0.6580   -1.6853 H   0  0  0  0  0  0  0  0  0  0  0  0
    4.7585   -1.8156   -3.0722 H   0  0  0  0  0  0  0  0  0  0  0  0
    4.8854   -0.3054   -2.2133 H   0  0  0  0  0  0  0  0  0  0  0  0
    6.3545   -1.1175   -0.5881 H   0  0  0  0  0  0  0  0  0  0  0  0
    7.7323   -2.5550   -1.9861 H   0  0  0  0  0  0  0  0  0  0  0  0
    7.7292   -4.8045   -0.3203 H   0  0  0  0  0  0  0  0  0  0  0  0
    8.5497   -3.3547    0.0470 H   0  0  0  0  0  0  0  0  0  0  0  0
    4.1275   -3.8914   -2.0161 H   0  0  0  0  0  0  0  0  0  0  0  0
    4.5516   -5.8017   -1.5012 H   0  0  0  0  0  0  0  0  0  0  0  0
  2  1  1  6
  1 21  1  0
  1 22  1  0
  1 23  1  0
  2  8  1  0
 20  2  1  6
  2  3  1  0
  3 15  1  0
  3  4  2  0
  4  5  1  0
  4 24  1  0
  5  6  2  0
  5  7  1  0
  7 20  1  0
  7  8  1  0
  7 25  1  6
  8  9  1  0
  8 26  1  1
  9 10  1  0
  9 27  1  0
  9 28  1  0
 10 11  1  0
 10 29  1  0
 10 30  1  0
 11 20  1  0
 11 12  1  0
 11 31  1  1
 12 13  1  0
 12 17  1  0
 12 32  1  6
 13 14  1  0
 13 33  1  0
 13 34  1  0
 14 15  1  0
 15 16  2  0
 17 18  1  0
 18 19  1  0
 18 20  1  0
 18 35  1  6
 19 36  1  0
M  END
>  <i_m_ct_stereo_status>  (95) 
1

>  <s_m_source_file>  (95) 
/var/tmp/pbs.5076255.sched01/tmp7c02qu8j/38qwqhi24o.sdf

>  <i_m_source_file_index>  (95) 
5

>  <i_lp_mmshare_version>  (95) 
48012

>  <i_f3d_flags>  (95) 
2

>  <s_epik_input>  (95) 
W0NIM11bQ0BdMShDMjM0KUM1PVtDSF1DKD1PKVtDQEBIXTJbQ0BIXTFbQ0gyXVtDSDJdW0NAQEhdM1tDQEBIXShbQ0gyXU9DNT1PKU9bQ0BIXTRbT0hd

>  <s_epik_cmdline>  (95) 
J2VwaWtfcHl0aG9uJywgJy1waHQnLCAnMi4wJywgJy1waCcsICc3LjAnLCAnLXRuJywgJzgnLCAnLW1hJywgJzIwMCcsICctaW1hZScsICc8aW5maWxlLm1hZT4nLCAnLW9tYWUnLCAnPG91dGZpbGUubWFlPic=

>  <r_lp_tautomer_probability>  (95) 
1

>  <r_epik_Ionization_Penalty>  (95) 
2.05405e-06

>  <r_epik_Ionization_Penalty_Charging>  (95) 
0

>  <r_epik_Ionization_Penalty_Neutral>  (95) 
2.05405e-06

>  <r_epik_State_Penalty>  (95) 
-0

>  <r_epik_Charging_Adjusted_Penalty>  (95) 
0

>  <i_epik_Tot_Q>  (95) 
0

>  <i_epik_Tot_abs_Q>  (95) 
0

>  <s_epik_Chemistry_Notes>  (95) 
This compound has an ester and may undergo hydrolysis at high or low pH. This compound contains an acetal/aminal-like group ( X-CH(R)-Y where X, Y are N, S, or O) that may be acid/base labile, releasing an aldehyde.

>  <s_lp_Force_Field>  (95) 
OPLS3e

>  <r_lp_Energy>  (95) 
316.264

>  <b_lp_Chiralities_Consistent>  (95) 
0

>  <s_lp_Variant>  (95) 
30:0-1

>  <s_i_glide_gridfile>  (95) 
pfpi4k_grid

>  <i_i_glide_lignum>  (95) 
5

>  <i_i_glide_rotatable_bonds>  (95) 
1

>  <r_i_docking_score>  (95) 
-3.15651

>  <r_i_glide_ligand_efficiency>  (95) 
-0.157825

>  <r_i_glide_ligand_efficiency_sa>  (95) 
-0.428404

>  <r_i_glide_ligand_efficiency_ln>  (95) 
-0.78997

>  <r_i_glide_gscore>  (95) 
-3.15651

>  <r_i_glide_lipo>  (95) 
-0.237116

>  <r_i_glide_hbond>  (95) 
0

>  <r_i_glide_metal>  (95) 
-0

>  <r_i_glide_rewards>  (95) 
-1.67009

>  <r_i_glide_evdw>  (95) 
-14.5279

>  <r_i_glide_ecoul>  (95) 
-3.43512

>  <r_i_glide_erotb>  (95) 
0

>  <r_i_glide_esite>  (95) 
-0.00763924

>  <r_i_glide_emodel>  (95) 
-19.6094

>  <r_i_glide_energy>  (95) 
-17.963

>  <r_i_glide_einternal>  (95) 
0.924969

>  <r_i_glide_intrahb_reward>  (95) 
-0

>  <i_i_glide_confnum>  (95) 
1

>  <i_i_glide_posenum>  (95) 
22

>  <r_i_glide_eff_state_penalty>  (95) 
0

>  <ligand_id>  (95) 
30

>  <original_smiles>  (95) 
CC12C3=CC(=O)C4C1CCC1C(COC3=O)OC(O)C142

>  <smiles>  (95) 
[H]OC1([H])OC2([H])C([H])([H])OC(=O)C3=C([H])C(=O)C4([H])C5([H])C([H])([H])C([H])([H])C2([H])C14C35C([H])([H])[H]

$$$$
30:0:1
     RDKit          3D

 36 40  0  0  1  0  0  0  0  0999 V2000
    2.7156   -4.0375    0.0015 C   0  0  0  0  0  0  0  0  0  0  0  0
    3.7487   -3.0465    0.5465 C   0  0  2  0  0  0  0  0  0  0  0  0
    4.1490   -3.4488    2.0378 C   0  0  0  0  0  0  0  0  0  0  0  0
    4.2625   -2.4633    2.9389 C   0  0  0  0  0  0  0  0  0  0  0  0
    4.3683   -1.1648    2.2987 C   0  0  0  0  0  0  0  0  0  0  0  0
    4.2992   -0.1170    2.9267 O   0  0  0  0  0  0  0  0  0  0  0  0
    4.6227   -1.3194    0.7885 C   0  0  2  0  0  0  0  0  0  0  0  0
    3.5025   -1.6009   -0.0477 C   0  0  1  0  0  0  0  0  0  0  0  0
    3.9207   -1.2363   -1.5320 C   0  0  0  0  0  0  0  0  0  0  0  0
    5.5087   -1.2454   -1.7197 C   0  0  0  0  0  0  0  0  0  0  0  0
    6.2420   -1.9389   -0.4849 C   0  0  2  0  0  0  0  0  0  0  0  0
    7.2805   -3.0659   -0.5106 C   0  0  1  0  0  0  0  0  0  0  0  0
    7.4416   -3.9917    0.8295 C   0  0  0  0  0  0  0  0  0  0  0  0
    6.5546   -3.8810    2.0206 O   0  0  0  0  0  0  0  0  0  0  0  0
    5.2672   -4.4728    2.1926 C   0  0  0  0  0  0  0  0  0  0  0  0
    5.0816   -5.6833    2.3178 O   0  0  0  0  0  0  0  0  0  0  0  0
    6.6084   -3.7620   -1.5016 O   0  0  0  0  0  0  0  0  0  0  0  0
    5.3170   -3.8427   -1.0643 C   0  0  1  0  0  0  0  0  0  0  0  0
    5.0829   -5.1914   -0.6953 O   0  0  0  0  0  0  0  0  0  0  0  0
    5.2065   -2.7792    0.1533 C   0  0  1  0  0  0  0  0  0  0  0  0
    2.6245   -4.0127   -1.0878 H   0  0  0  0  0  0  0  0  0  0  0  0
    1.7725   -3.7180    0.3845 H   0  0  0  0  0  0  0  0  0  0  0  0
    2.8497   -5.0713    0.3310 H   0  0  0  0  0  0  0  0  0  0  0  0
    4.7878   -2.5819    3.8772 H   0  0  0  0  0  0  0  0  0  0  0  0
    5.0178   -0.3521    0.4565 H   0  0  0  0  0  0  0  0  0  0  0  0
    2.6142   -1.1145    0.3269 H   0  0  0  0  0  0  0  0  0  0  0  0
    3.4384   -1.9287   -2.2262 H   0  0  0  0  0  0  0  0  0  0  0  0
    3.5440   -0.2635   -1.8629 H   0  0  0  0  0  0  0  0  0  0  0  0
    5.7617   -1.6888   -2.6837 H   0  0  0  0  0  0  0  0  0  0  0  0
    5.8104   -0.2109   -1.7532 H   0  0  0  0  0  0  0  0  0  0  0  0
    6.7462   -1.1989    0.1531 H   0  0  0  0  0  0  0  0  0  0  0  0
    8.2523   -2.7643   -0.9016 H   0  0  0  0  0  0  0  0  0  0  0  0
    7.5657   -5.0418    0.5485 H   0  0  0  0  0  0  0  0  0  0  0  0
    8.4124   -3.7226    1.2399 H   0  0  0  0  0  0  0  0  0  0  0  0
    4.6779   -3.6617   -1.9239 H   0  0  0  0  0  0  0  0  0  0  0  0
    5.5380   -5.3867    0.1077 H   0  0  0  0  0  0  0  0  0  0  0  0
  2  1  1  6
  1 21  1  0
  1 22  1  0
  1 23  1  0
  2  8  1  0
 20  2  1  6
  2  3  1  0
  3 15  1  0
  3  4  2  0
  4  5  1  0
  4 24  1  0
  5  6  2  0
  5  7  1  0
  7 20  1  0
  7  8  1  0
  7 25  1  6
  8  9  1  0
  8 26  1  1
  9 10  1  0
  9 27  1  0
  9 28  1  0
 10 11  1  0
 10 29  1  0
 10 30  1  0
 11 20  1  0
 11 12  1  0
 11 31  1  1
 12 13  1  0
 12 17  1  0
 12 32  1  6
 13 14  1  0
 13 33  1  0
 13 34  1  0
 14 15  1  0
 15 16  2  0
 17 18  1  0
 18 19  1  0
 18 20  1  0
 18 35  1  6
 19 36  1  0
M  END
>  <i_m_ct_stereo_status>  (96) 
1

>  <s_m_source_file>  (96) 
/var/tmp/pbs.5076255.sched01/tmp7c02qu8j/38qwqhi24o.sdf

>  <i_m_source_file_index>  (96) 
5

>  <i_lp_mmshare_version>  (96) 
48012

>  <i_f3d_flags>  (96) 
2

>  <s_epik_input>  (96) 
W0NIM11bQ0BdMShDMjM0KUM1PVtDSF1DKD1PKVtDQEBIXTJbQ0BIXTFbQ0gyXVtDSDJdW0NAQEhdM1tDQEBIXShbQ0gyXU9DNT1PKU9bQ0BIXTRbT0hd

>  <s_epik_cmdline>  (96) 
J2VwaWtfcHl0aG9uJywgJy1waHQnLCAnMi4wJywgJy1waCcsICc3LjAnLCAnLXRuJywgJzgnLCAnLW1hJywgJzIwMCcsICctaW1hZScsICc8aW5maWxlLm1hZT4nLCAnLW9tYWUnLCAnPG91dGZpbGUubWFlPic=

>  <r_lp_tautomer_probability>  (96) 
1

>  <r_epik_Ionization_Penalty>  (96) 
2.05405e-06

>  <r_epik_Ionization_Penalty_Charging>  (96) 
0

>  <r_epik_Ionization_Penalty_Neutral>  (96) 
2.05405e-06

>  <r_epik_State_Penalty>  (96) 
-0

>  <r_epik_Charging_Adjusted_Penalty>  (96) 
0

>  <i_epik_Tot_Q>  (96) 
0

>  <i_epik_Tot_abs_Q>  (96) 
0

>  <s_epik_Chemistry_Notes>  (96) 
This compound has an ester and may undergo hydrolysis at high or low pH. This compound contains an acetal/aminal-like group ( X-CH(R)-Y where X, Y are N, S, or O) that may be acid/base labile, releasing an aldehyde.

>  <s_lp_Force_Field>  (96) 
OPLS3e

>  <r_lp_Energy>  (96) 
316.264

>  <b_lp_Chiralities_Consistent>  (96) 
0

>  <s_lp_Variant>  (96) 
30:0-1

>  <s_i_glide_gridfile>  (96) 
pfpi4k_grid

>  <i_i_glide_lignum>  (96) 
5

>  <i_i_glide_rotatable_bonds>  (96) 
1

>  <r_i_docking_score>  (96) 
-2.25763

>  <r_i_glide_ligand_efficiency>  (96) 
-0.112881

>  <r_i_glide_ligand_efficiency_sa>  (96) 
-0.306407

>  <r_i_glide_ligand_efficiency_ln>  (96) 
-0.56501

>  <r_i_glide_gscore>  (96) 
-2.25763

>  <r_i_glide_lipo>  (96) 
-0.269753

>  <r_i_glide_hbond>  (96) 
0

>  <r_i_glide_metal>  (96) 
-0

>  <r_i_glide_rewards>  (96) 
-1.66261

>  <r_i_glide_evdw>  (96) 
-8.51477

>  <r_i_glide_ecoul>  (96) 
0.669783

>  <r_i_glide_erotb>  (96) 
0

>  <r_i_glide_esite>  (96) 
0

>  <r_i_glide_emodel>  (96) 
-9.37121

>  <r_i_glide_energy>  (96) 
-7.84499

>  <r_i_glide_einternal>  (96) 
0.0358509

>  <r_i_glide_intrahb_reward>  (96) 
-0

>  <i_i_glide_confnum>  (96) 
1

>  <i_i_glide_posenum>  (96) 
2

>  <r_i_glide_eff_state_penalty>  (96) 
0

>  <ligand_id>  (96) 
30

>  <original_smiles>  (96) 
CC12C3=CC(=O)C4C1CCC1C(COC3=O)OC(O)C142

>  <smiles>  (96) 
[H]OC1([H])OC2([H])C([H])([H])OC(=O)C3=C([H])C(=O)C4([H])C5([H])C([H])([H])C([H])([H])C2([H])C14C35C([H])([H])[H]

$$$$
31:0:0
     RDKit          3D

 81 87  0  0  1  0  0  0  0  0999 V2000
    4.3928  -11.6654    3.5637 C   0  0  0  0  0  0  0  0  0  0  0  0
    3.0993  -11.1477    4.2332 C   0  0  1  0  0  0  0  0  0  0  0  0
    2.3047  -12.2850    4.4868 O   0  0  0  0  0  0  0  0  0  0  0  0
    3.4356  -10.5520    5.5995 C   0  0  0  0  0  0  0  0  0  0  0  0
    2.3506   -9.6282    6.1702 C   0  0  0  0  0  0  0  0  0  0  0  0
    1.8512   -8.5458    5.1772 C   0  0  2  0  0  0  0  0  0  0  0  0
    2.9777   -7.5818    4.7675 C   0  0  0  0  0  0  0  0  0  0  0  0
    3.0795   -6.3196    5.6804 C   0  0  2  0  0  0  0  0  0  0  0  0
    3.1263   -5.0753    4.7494 C   0  0  0  0  0  0  0  0  0  0  0  0
    4.3989   -6.3867    6.6007 C   0  0  1  0  0  0  0  0  0  0  0  0
    5.8740   -6.4569    5.9202 C   0  0  0  0  0  0  0  0  0  0  0  0
    6.5181   -7.8154    6.2770 C   0  0  0  0  0  0  0  0  0  0  0  0
    5.9856   -6.3759    4.3687 C   0  0  0  0  0  0  0  0  0  0  0  0
    6.8952   -5.3790    6.3764 C   0  0  0  0  0  0  0  0  0  0  0  0
    6.3969   -3.9460    6.3871 C   0  0  0  0  0  0  0  0  0  0  0  0
    5.9544   -3.6996    7.7000 O   0  0  0  0  0  0  0  0  0  0  0  0
    4.6198   -4.0867    7.9406 C   0  0  0  0  0  0  0  0  0  0  0  0
    4.3046   -5.6075    7.9987 C   0  0  2  0  0  0  0  0  0  0  0  0
    5.1907   -6.2861    9.0841 C   0  0  0  0  0  0  0  0  0  0  0  0
    2.8713   -5.6406    8.6035 C   0  0  0  0  0  0  0  0  0  0  0  0
    1.9334   -6.6531    7.9752 C   0  0  0  0  0  0  0  0  0  0  0  0
    1.7003   -6.3771    6.4639 C   0  0  1  0  0  0  0  0  0  0  0  0
    0.9113   -5.0307    6.4492 C   0  0  0  0  0  0  0  0  0  0  0  0
    0.8623   -7.5765    5.8531 C   0  0  1  0  0  0  0  0  0  0  0  0
   -0.4001   -7.2712    4.9769 C   0  0  0  0  0  0  0  0  0  0  0  0
   -0.2569   -7.4446    3.4738 C   0  0  1  0  0  0  0  0  0  0  0  0
   -1.1373   -6.6550    2.6242 O   0  0  0  0  0  0  0  0  0  0  0  0
    0.2935   -6.5787    2.4290 C   0  0  2  0  0  0  0  0  0  0  0  0
    1.0317   -7.7306    1.8474 C   0  0  0  0  0  0  0  0  0  0  0  0
    0.4151   -8.6558    2.9333 C   0  0  2  0  0  0  0  0  0  0  0  0
   -0.7123   -9.5635    2.4288 C   0  0  0  0  0  0  0  0  0  0  0  0
    1.2579   -9.3876    3.9824 C   0  0  1  0  0  0  0  0  0  0  0  0
    2.3475  -10.2181    3.2856 C   0  0  0  0  0  0  0  0  0  0  0  0
    5.0691  -10.8183    3.3880 H   0  0  0  0  0  0  0  0  0  0  0  0
    4.1999  -12.1399    2.5999 H   0  0  0  0  0  0  0  0  0  0  0  0
    4.9224  -12.3752    4.2072 H   0  0  0  0  0  0  0  0  0  0  0  0
    2.2223  -12.8066    3.7157 H   0  0  0  0  0  0  0  0  0  0  0  0
    3.5763  -11.3638    6.3128 H   0  0  0  0  0  0  0  0  0  0  0  0
    4.3831  -10.0298    5.5628 H   0  0  0  0  0  0  0  0  0  0  0  0
    1.5082  -10.2537    6.4747 H   0  0  0  0  0  0  0  0  0  0  0  0
    2.7496   -9.2373    7.0956 H   0  0  0  0  0  0  0  0  0  0  0  0
    3.9099   -8.1315    4.7483 H   0  0  0  0  0  0  0  0  0  0  0  0
    2.8169   -7.2508    3.7527 H   0  0  0  0  0  0  0  0  0  0  0  0
    3.3287   -4.1533    5.2926 H   0  0  0  0  0  0  0  0  0  0  0  0
    2.2006   -4.9383    4.2049 H   0  0  0  0  0  0  0  0  0  0  0  0
    3.8553   -5.1522    3.9619 H   0  0  0  0  0  0  0  0  0  0  0  0
    4.2976   -7.4146    6.9506 H   0  0  0  0  0  0  0  0  0  0  0  0
    7.5520   -7.8742    5.9381 H   0  0  0  0  0  0  0  0  0  0  0  0
    5.9905   -8.6387    5.8037 H   0  0  0  0  0  0  0  0  0  0  0  0
    6.5321   -8.0087    7.3502 H   0  0  0  0  0  0  0  0  0  0  0  0
    6.9674   -6.7220    4.0363 H   0  0  0  0  0  0  0  0  0  0  0  0
    5.9220   -5.3532    3.9979 H   0  0  0  0  0  0  0  0  0  0  0  0
    5.2855   -6.9824    3.8032 H   0  0  0  0  0  0  0  0  0  0  0  0
    7.3551   -5.5982    7.3339 H   0  0  0  0  0  0  0  0  0  0  0  0
    7.7570   -5.4108    5.7089 H   0  0  0  0  0  0  0  0  0  0  0  0
    7.2342   -3.2737    6.2009 H   0  0  0  0  0  0  0  0  0  0  0  0
    5.6545   -3.7251    5.6207 H   0  0  0  0  0  0  0  0  0  0  0  0
    4.4166   -3.6674    8.9305 H   0  0  0  0  0  0  0  0  0  0  0  0
    3.9420   -3.5537    7.2723 H   0  0  0  0  0  0  0  0  0  0  0  0
    5.1081   -5.7933   10.0521 H   0  0  0  0  0  0  0  0  0  0  0  0
    6.2506   -6.3119    8.8687 H   0  0  0  0  0  0  0  0  0  0  0  0
    4.8881   -7.3216    9.2309 H   0  0  0  0  0  0  0  0  0  0  0  0
    2.9238   -5.8960    9.6604 H   0  0  0  0  0  0  0  0  0  0  0  0
    2.4112   -4.6525    8.6369 H   0  0  0  0  0  0  0  0  0  0  0  0
    2.3460   -7.6264    8.1905 H   0  0  0  0  0  0  0  0  0  0  0  0
    0.9927   -6.6494    8.5187 H   0  0  0  0  0  0  0  0  0  0  0  0
    0.0540   -5.0562    7.1275 H   0  0  0  0  0  0  0  0  0  0  0  0
    0.5306   -4.7503    5.4676 H   0  0  0  0  0  0  0  0  0  0  0  0
    1.5260   -4.1848    6.7585 H   0  0  0  0  0  0  0  0  0  0  0  0
    0.4188   -8.0915    6.7098 H   0  0  0  0  0  0  0  0  0  0  0  0
   -1.1622   -8.0025    5.2373 H   0  0  0  0  0  0  0  0  0  0  0  0
   -0.8452   -6.3034    5.1645 H   0  0  0  0  0  0  0  0  0  0  0  0
    0.8103   -5.6426    2.6886 H   0  0  0  0  0  0  0  0  0  0  0  0
    0.6600   -7.9568    0.8470 H   0  0  0  0  0  0  0  0  0  0  0  0
    2.1007   -7.6413    1.8124 H   0  0  0  0  0  0  0  0  0  0  0  0
   -0.3250  -10.4315    1.8941 H   0  0  0  0  0  0  0  0  0  0  0  0
   -1.3619   -9.0224    1.7227 H   0  0  0  0  0  0  0  0  0  0  0  0
   -1.3644   -9.9089    3.2374 H   0  0  0  0  0  0  0  0  0  0  0  0
    0.5739  -10.1056    4.4450 H   0  0  0  0  0  0  0  0  0  0  0  0
    3.0488   -9.5622    2.7741 H   0  0  0  0  0  0  0  0  0  0  0  0
    1.8812  -10.8173    2.5041 H   0  0  0  0  0  0  0  0  0  0  0  0
  1  2  1  0
  1 34  1  0
  1 35  1  0
  1 36  1  0
  2 33  1  0
  2  3  1  1
  2  4  1  0
  3 37  1  0
  4  5  1  0
  4 38  1  0
  4 39  1  0
  6  5  1  1
  5 40  1  0
  5 41  1  0
  6 24  1  0
  6 32  1  0
  6  7  1  0
  7  8  1  0
  7 42  1  0
  7 43  1  0
  8 22  1  0
  8  9  1  6
  8 10  1  0
  9 44  1  0
  9 45  1  0
  9 46  1  0
 10 18  1  0
 10 11  1  0
 10 47  1  1
 11 12  1  0
 11 13  1  0
 11 14  1  0
 12 48  1  0
 12 49  1  0
 12 50  1  0
 13 51  1  0
 13 52  1  0
 13 53  1  0
 14 15  1  0
 14 54  1  0
 14 55  1  0
 15 16  1  0
 15 56  1  0
 15 57  1  0
 16 17  1  0
 17 18  1  0
 17 58  1  0
 17 59  1  0
 18 19  1  1
 18 20  1  0
 19 60  1  0
 19 61  1  0
 19 62  1  0
 20 21  1  0
 20 63  1  0
 20 64  1  0
 21 22  1  0
 21 65  1  0
 21 66  1  0
 22 23  1  1
 22 24  1  0
 23 67  1  0
 23 68  1  0
 23 69  1  0
 24 25  1  0
 24 70  1  1
 25 26  1  0
 25 71  1  0
 25 72  1  0
 26 28  1  0
 26 30  1  0
 26 27  1  6
 27 28  1  0
 28 29  1  0
 28 73  1  1
 29 30  1  0
 29 74  1  0
 29 75  1  0
 30 31  1  6
 30 32  1  0
 31 76  1  0
 31 77  1  0
 31 78  1  0
 32 33  1  0
 32 79  1  1
 33 80  1  0
 33 81  1  0
M  END
>  <i_m_ct_stereo_status>  (97) 
1

>  <s_m_source_file>  (97) 
/var/tmp/pbs.5076255.sched01/tmp7c02qu8j/38qwqhi24o.sdf

>  <i_m_source_file_index>  (97) 
6

>  <i_lp_mmshare_version>  (97) 
48012

>  <i_f3d_flags>  (97) 
0

>  <s_epik_input>  (97) 
W0NIMl0xW0NIMl1bQ0BAXShbQ0gzXSkoW09IXSlbQ0gyXVtDQEBIXTJbQ0BdMyhbQ0gzXSlbQ0gyXVtDQEBIXShPNClbQ0BdMzRbQ0gyXVtDQEBIXShbQ0BAXTEyNSlbQ0BdNihbQ0gzXSlbQ0BAXShbQ0gyXTUpKFtDSDNdKVtDQEBIXTdbQ0BdKFtDSDNdKShbQ0gyXVtDSDJdNilbQ0gyXU9bQ0gyXVtDSDJdQzcoW0NIM10pW0NIM10=

>  <s_epik_cmdline>  (97) 
J2VwaWtfcHl0aG9uJywgJy1waHQnLCAnMi4wJywgJy1waCcsICc3LjAnLCAnLXRuJywgJzgnLCAnLW1hJywgJzIwMCcsICctaW1hZScsICc8aW5maWxlLm1hZT4nLCAnLW9tYWUnLCAnPG91dGZpbGUubWFlPic=

>  <r_lp_tautomer_probability>  (97) 
1

>  <r_epik_Ionization_Penalty>  (97) 
2.45737e-06

>  <r_epik_Ionization_Penalty_Charging>  (97) 
0

>  <r_epik_Ionization_Penalty_Neutral>  (97) 
2.45737e-06

>  <r_epik_State_Penalty>  (97) 
-0

>  <r_epik_Charging_Adjusted_Penalty>  (97) 
0

>  <i_epik_Tot_Q>  (97) 
0

>  <i_epik_Tot_abs_Q>  (97) 
0

>  <s_lp_Force_Field>  (97) 
OPLS3e

>  <r_lp_Energy>  (97) 
125.409

>  <b_lp_Chiralities_Consistent>  (97) 
1

>  <s_lp_Variant>  (97) 
31:0-1

>  <s_i_glide_gridfile>  (97) 
pfpi4k_grid

>  <i_i_glide_lignum>  (97) 
6

>  <i_i_glide_rotatable_bonds>  (97) 
1

>  <r_i_docking_score>  (97) 
-2.41282

>  <r_i_glide_ligand_efficiency>  (97) 
-0.0731158

>  <r_i_glide_ligand_efficiency_sa>  (97) 
-0.234521

>  <r_i_glide_ligand_efficiency_ln>  (97) 
-0.536599

>  <r_i_glide_gscore>  (97) 
-2.41282

>  <r_i_glide_lipo>  (97) 
-0.17947

>  <r_i_glide_hbond>  (97) 
-0.372465

>  <r_i_glide_metal>  (97) 
-0

>  <r_i_glide_rewards>  (97) 
-0.295225

>  <r_i_glide_evdw>  (97) 
-12.2645

>  <r_i_glide_ecoul>  (97) 
-6.34956

>  <r_i_glide_erotb>  (97) 
0

>  <r_i_glide_esite>  (97) 
0

>  <r_i_glide_emodel>  (97) 
-21.3076

>  <r_i_glide_energy>  (97) 
-18.6141

>  <r_i_glide_einternal>  (97) 
0.192704

>  <r_i_glide_intrahb_reward>  (97) 
-0

>  <i_i_glide_confnum>  (97) 
2

>  <i_i_glide_posenum>  (97) 
39

>  <r_i_glide_eff_state_penalty>  (97) 
0

>  <ligand_id>  (97) 
31

>  <original_smiles>  (97) 
CC1(O)CCC23CC4(C)C5C(C)(C)CCOCC5(C)CCC4(C)C2CC24OC2CC4(C)C3C1

>  <smiles>  (97) 
[H]OC1(C([H])([H])[H])C([H])([H])C([H])([H])C23C([H])([H])C4(C([H])([H])[H])C5([H])C(C([H])([H])[H])(C([H])([H])[H])C([H])([H])C([H])([H])OC([H])([H])C5(C([H])([H])[H])C([H])([H])C([H])([H])C4(C([H])([H])[H])C2([H])C([H])([H])C24OC2([H])C([H])([H])C4(C([H])([H])[H])C3([H])C1([H])[H]

$$$$
31:0:1
     RDKit          3D

 81 87  0  0  1  0  0  0  0  0999 V2000
    5.7619  -10.4277    6.9000 C   0  0  0  0  0  0  0  0  0  0  0  0
    4.2212  -10.3668    7.0807 C   0  0  1  0  0  0  0  0  0  0  0  0
    3.8369  -11.4871    7.8551 O   0  0  0  0  0  0  0  0  0  0  0  0
    3.8847   -9.0993    7.8834 C   0  0  0  0  0  0  0  0  0  0  0  0
    2.4249   -8.6347    7.7353 C   0  0  0  0  0  0  0  0  0  0  0  0
    1.9285   -8.5179    6.2645 C   0  0  2  0  0  0  0  0  0  0  0  0
    2.7201   -7.4653    5.4669 C   0  0  0  0  0  0  0  0  0  0  0  0
    2.0740   -6.0474    5.5091 C   0  0  2  0  0  0  0  0  0  0  0  0
    1.9652   -5.5395    4.0421 C   0  0  0  0  0  0  0  0  0  0  0  0
    2.9627   -5.0400    6.3935 C   0  0  1  0  0  0  0  0  0  0  0  0
    4.5007   -4.7276    5.9728 C   0  0  0  0  0  0  0  0  0  0  0  0
    5.4357   -5.2652    7.0847 C   0  0  0  0  0  0  0  0  0  0  0  0
    5.0607   -5.3555    4.6594 C   0  0  0  0  0  0  0  0  0  0  0  0
    4.8797   -3.2282    5.8048 C   0  0  0  0  0  0  0  0  0  0  0  0
    3.9275   -2.3871    4.9671 C   0  0  0  0  0  0  0  0  0  0  0  0
    3.0260   -1.7857    5.8667 O   0  0  0  0  0  0  0  0  0  0  0  0
    1.9181   -2.5859    6.1986 C   0  0  0  0  0  0  0  0  0  0  0  0
    2.1573   -3.8377    7.0928 C   0  0  2  0  0  0  0  0  0  0  0  0
    2.8367   -3.4167    8.4272 C   0  0  0  0  0  0  0  0  0  0  0  0
    0.7210   -4.2493    7.5231 C   0  0  0  0  0  0  0  0  0  0  0  0
    0.4501   -5.7407    7.5037 C   0  0  0  0  0  0  0  0  0  0  0  0
    0.6276   -6.3611    6.0905 C   0  0  1  0  0  0  0  0  0  0  0  0
   -0.5396   -5.7493    5.2660 C   0  0  0  0  0  0  0  0  0  0  0  0
    0.4986   -7.9291    6.2150 C   0  0  1  0  0  0  0  0  0  0  0  0
   -0.4582   -8.6768    5.2338 C   0  0  0  0  0  0  0  0  0  0  0  0
    0.1800   -9.4323    4.0724 C   0  0  1  0  0  0  0  0  0  0  0  0
   -0.5734   -9.5773    2.8835 O   0  0  0  0  0  0  0  0  0  0  0  0
    0.7217   -9.0128    2.7710 C   0  0  2  0  0  0  0  0  0  0  0  0
    1.9191   -9.8856    2.9903 C   0  0  0  0  0  0  0  0  0  0  0  0
    1.3632  -10.3322    4.3604 C   0  0  2  0  0  0  0  0  0  0  0  0
    0.8899  -11.7930    4.3856 C   0  0  0  0  0  0  0  0  0  0  0  0
    2.0594   -9.9843    5.6962 C   0  0  1  0  0  0  0  0  0  0  0  0
    3.5429  -10.4438    5.7040 C   0  0  0  0  0  0  0  0  0  0  0  0
    6.1101   -9.5660    6.3241 H   0  0  0  0  0  0  0  0  0  0  0  0
    6.0695  -11.3236    6.3641 H   0  0  0  0  0  0  0  0  0  0  0  0
    6.2783  -10.4023    7.8590 H   0  0  0  0  0  0  0  0  0  0  0  0
    2.8776  -11.6826    7.7201 H   0  0  0  0  0  0  0  0  0  0  0  0
    4.0926   -9.2709    8.9324 H   0  0  0  0  0  0  0  0  0  0  0  0
    4.5448   -8.2849    7.6049 H   0  0  0  0  0  0  0  0  0  0  0  0
    1.8035   -9.3371    8.2871 H   0  0  0  0  0  0  0  0  0  0  0  0
    2.3599   -7.7088    8.2907 H   0  0  0  0  0  0  0  0  0  0  0  0
    3.7397   -7.4560    5.8289 H   0  0  0  0  0  0  0  0  0  0  0  0
    2.7761   -7.7827    4.4355 H   0  0  0  0  0  0  0  0  0  0  0  0
    1.6425   -4.5046    3.9759 H   0  0  0  0  0  0  0  0  0  0  0  0
    1.2741   -6.1339    3.4567 H   0  0  0  0  0  0  0  0  0  0  0  0
    2.8837   -5.6336    3.4836 H   0  0  0  0  0  0  0  0  0  0  0  0
    3.1140   -5.6875    7.2582 H   0  0  0  0  0  0  0  0  0  0  0  0
    6.4740   -4.9841    6.9079 H   0  0  0  0  0  0  0  0  0  0  0  0
    5.4106   -6.3514    7.1271 H   0  0  0  0  0  0  0  0  0  0  0  0
    5.1712   -4.8913    8.0729 H   0  0  0  0  0  0  0  0  0  0  0  0
    6.1501   -5.3069    4.6492 H   0  0  0  0  0  0  0  0  0  0  0  0
    4.7617   -4.7997    3.7722 H   0  0  0  0  0  0  0  0  0  0  0  0
    4.8380   -6.4007    4.4927 H   0  0  0  0  0  0  0  0  0  0  0  0
    5.0561   -2.7204    6.7470 H   0  0  0  0  0  0  0  0  0  0  0  0
    5.8595   -3.1637    5.3319 H   0  0  0  0  0  0  0  0  0  0  0  0
    4.4879   -1.5845    4.4895 H   0  0  0  0  0  0  0  0  0  0  0  0
    3.4341   -2.9378    4.1664 H   0  0  0  0  0  0  0  0  0  0  0  0
    1.2767   -1.9020    6.7577 H   0  0  0  0  0  0  0  0  0  0  0  0
    1.3486   -2.8299    5.3020 H   0  0  0  0  0  0  0  0  0  0  0  0
    2.2818   -2.6235    8.9334 H   0  0  0  0  0  0  0  0  0  0  0  0
    3.8438   -3.0351    8.3340 H   0  0  0  0  0  0  0  0  0  0  0  0
    2.8892   -4.2588    9.1182 H   0  0  0  0  0  0  0  0  0  0  0  0
    0.5095   -3.9096    8.5356 H   0  0  0  0  0  0  0  0  0  0  0  0
   -0.0464   -3.7307    6.9455 H   0  0  0  0  0  0  0  0  0  0  0  0
    1.0890   -6.1725    8.2623 H   0  0  0  0  0  0  0  0  0  0  0  0
   -0.5553   -5.9265    7.8805 H   0  0  0  0  0  0  0  0  0  0  0  0
   -1.4932   -5.8646    5.7805 H   0  0  0  0  0  0  0  0  0  0  0  0
   -0.6582   -6.1869    4.2770 H   0  0  0  0  0  0  0  0  0  0  0  0
   -0.3951   -4.6873    5.0886 H   0  0  0  0  0  0  0  0  0  0  0  0
    0.0347   -8.1284    7.1743 H   0  0  0  0  0  0  0  0  0  0  0  0
   -0.9226   -9.4443    5.8393 H   0  0  0  0  0  0  0  0  0  0  0  0
   -1.2836   -8.0977    4.8410 H   0  0  0  0  0  0  0  0  0  0  0  0
    0.8235   -7.9488    2.4816 H   0  0  0  0  0  0  0  0  0  0  0  0
    2.0435  -10.7245    2.3072 H   0  0  0  0  0  0  0  0  0  0  0  0
    2.8593   -9.3437    3.0237 H   0  0  0  0  0  0  0  0  0  0  0  0
    1.7350  -12.4762    4.4852 H   0  0  0  0  0  0  0  0  0  0  0  0
    0.3647  -12.0463    3.4693 H   0  0  0  0  0  0  0  0  0  0  0  0
    0.2121  -11.9854    5.2180 H   0  0  0  0  0  0  0  0  0  0  0  0
    1.5716  -10.6060    6.4402 H   0  0  0  0  0  0  0  0  0  0  0  0
    4.1011   -9.8599    4.9712 H   0  0  0  0  0  0  0  0  0  0  0  0
    3.5959  -11.4724    5.3597 H   0  0  0  0  0  0  0  0  0  0  0  0
  1  2  1  0
  1 34  1  0
  1 35  1  0
  1 36  1  0
  2 33  1  0
  2  3  1  1
  2  4  1  0
  3 37  1  0
  4  5  1  0
  4 38  1  0
  4 39  1  0
  6  5  1  1
  5 40  1  0
  5 41  1  0
  6 24  1  0
  6 32  1  0
  6  7  1  0
  7  8  1  0
  7 42  1  0
  7 43  1  0
  8 22  1  0
  8  9  1  6
  8 10  1  0
  9 44  1  0
  9 45  1  0
  9 46  1  0
 10 18  1  0
 10 11  1  0
 10 47  1  1
 11 12  1  0
 11 13  1  0
 11 14  1  0
 12 48  1  0
 12 49  1  0
 12 50  1  0
 13 51  1  0
 13 52  1  0
 13 53  1  0
 14 15  1  0
 14 54  1  0
 14 55  1  0
 15 16  1  0
 15 56  1  0
 15 57  1  0
 16 17  1  0
 17 18  1  0
 17 58  1  0
 17 59  1  0
 18 19  1  1
 18 20  1  0
 19 60  1  0
 19 61  1  0
 19 62  1  0
 20 21  1  0
 20 63  1  0
 20 64  1  0
 21 22  1  0
 21 65  1  0
 21 66  1  0
 22 23  1  6
 22 24  1  0
 23 67  1  0
 23 68  1  0
 23 69  1  0
 24 25  1  0
 24 70  1  1
 25 26  1  0
 25 71  1  0
 25 72  1  0
 26 28  1  0
 26 30  1  0
 26 27  1  6
 27 28  1  0
 28 29  1  0
 28 73  1  1
 29 30  1  0
 29 74  1  0
 29 75  1  0
 30 31  1  6
 30 32  1  0
 31 76  1  0
 31 77  1  0
 31 78  1  0
 32 33  1  0
 32 79  1  1
 33 80  1  0
 33 81  1  0
M  END
>  <i_m_ct_stereo_status>  (98) 
1

>  <s_m_source_file>  (98) 
/var/tmp/pbs.5076255.sched01/tmp7c02qu8j/38qwqhi24o.sdf

>  <i_m_source_file_index>  (98) 
6

>  <i_lp_mmshare_version>  (98) 
48012

>  <i_f3d_flags>  (98) 
0

>  <s_epik_input>  (98) 
W0NIMl0xW0NIMl1bQ0BAXShbQ0gzXSkoW09IXSlbQ0gyXVtDQEBIXTJbQ0BdMyhbQ0gzXSlbQ0gyXVtDQEBIXShPNClbQ0BdMzRbQ0gyXVtDQEBIXShbQ0BAXTEyNSlbQ0BdNihbQ0gzXSlbQ0BAXShbQ0gyXTUpKFtDSDNdKVtDQEBIXTdbQ0BdKFtDSDNdKShbQ0gyXVtDSDJdNilbQ0gyXU9bQ0gyXVtDSDJdQzcoW0NIM10pW0NIM10=

>  <s_epik_cmdline>  (98) 
J2VwaWtfcHl0aG9uJywgJy1waHQnLCAnMi4wJywgJy1waCcsICc3LjAnLCAnLXRuJywgJzgnLCAnLW1hJywgJzIwMCcsICctaW1hZScsICc8aW5maWxlLm1hZT4nLCAnLW9tYWUnLCAnPG91dGZpbGUubWFlPic=

>  <r_lp_tautomer_probability>  (98) 
1

>  <r_epik_Ionization_Penalty>  (98) 
2.45737e-06

>  <r_epik_Ionization_Penalty_Charging>  (98) 
0

>  <r_epik_Ionization_Penalty_Neutral>  (98) 
2.45737e-06

>  <r_epik_State_Penalty>  (98) 
-0

>  <r_epik_Charging_Adjusted_Penalty>  (98) 
0

>  <i_epik_Tot_Q>  (98) 
0

>  <i_epik_Tot_abs_Q>  (98) 
0

>  <s_lp_Force_Field>  (98) 
OPLS3e

>  <r_lp_Energy>  (98) 
125.409

>  <b_lp_Chiralities_Consistent>  (98) 
1

>  <s_lp_Variant>  (98) 
31:0-1

>  <s_i_glide_gridfile>  (98) 
pfpi4k_grid

>  <i_i_glide_lignum>  (98) 
6

>  <i_i_glide_rotatable_bonds>  (98) 
1

>  <r_i_docking_score>  (98) 
-1.89744

>  <r_i_glide_ligand_efficiency>  (98) 
-0.0574982

>  <r_i_glide_ligand_efficiency_sa>  (98) 
-0.184428

>  <r_i_glide_ligand_efficiency_ln>  (98) 
-0.421981

>  <r_i_glide_gscore>  (98) 
-1.89744

>  <r_i_glide_lipo>  (98) 
-0.0538593

>  <r_i_glide_hbond>  (98) 
-0.16

>  <r_i_glide_metal>  (98) 
-0

>  <r_i_glide_rewards>  (98) 
-0.295225

>  <r_i_glide_evdw>  (98) 
-15.5159

>  <r_i_glide_ecoul>  (98) 
-4.08374

>  <r_i_glide_erotb>  (98) 
0

>  <r_i_glide_esite>  (98) 
0

>  <r_i_glide_emodel>  (98) 
-21.49

>  <r_i_glide_energy>  (98) 
-19.5997

>  <r_i_glide_einternal>  (98) 
0.353882

>  <r_i_glide_intrahb_reward>  (98) 
-0

>  <i_i_glide_confnum>  (98) 
1

>  <i_i_glide_posenum>  (98) 
29

>  <r_i_glide_eff_state_penalty>  (98) 
0

>  <ligand_id>  (98) 
31

>  <original_smiles>  (98) 
CC1(O)CCC23CC4(C)C5C(C)(C)CCOCC5(C)CCC4(C)C2CC24OC2CC4(C)C3C1

>  <smiles>  (98) 
[H]OC1(C([H])([H])[H])C([H])([H])C([H])([H])C23C([H])([H])C4(C([H])([H])[H])C5([H])C(C([H])([H])[H])(C([H])([H])[H])C([H])([H])C([H])([H])OC([H])([H])C5(C([H])([H])[H])C([H])([H])C([H])([H])C4(C([H])([H])[H])C2([H])C([H])([H])C24OC2([H])C([H])([H])C4(C([H])([H])[H])C3([H])C1([H])[H]

$$$$
31:0:2
     RDKit          3D

 81 87  0  0  1  0  0  0  0  0999 V2000
    4.6174   -8.6341    0.5435 C   0  0  0  0  0  0  0  0  0  0  0  0
    4.0691   -8.9508    1.9502 C   0  0  1  0  0  0  0  0  0  0  0  0
    4.4946  -10.2612    2.1996 O   0  0  0  0  0  0  0  0  0  0  0  0
    4.7679   -8.0537    2.9780 C   0  0  0  0  0  0  0  0  0  0  0  0
    4.0085   -7.9049    4.3120 C   0  0  0  0  0  0  0  0  0  0  0  0
    2.5080   -7.5264    4.1619 C   0  0  2  0  0  0  0  0  0  0  0  0
    2.3220   -6.1603    3.4782 C   0  0  0  0  0  0  0  0  0  0  0  0
    2.2415   -4.9701    4.4884 C   0  0  2  0  0  0  0  0  0  0  0  0
    0.9812   -4.1320    4.1207 C   0  0  0  0  0  0  0  0  0  0  0  0
    3.5607   -4.0595    4.4079 C   0  0  1  0  0  0  0  0  0  0  0  0
    3.9678   -3.3231    3.0152 C   0  0  0  0  0  0  0  0  0  0  0  0
    5.3001   -3.9238    2.5099 C   0  0  0  0  0  0  0  0  0  0  0  0
    3.0074   -3.4527    1.7923 C   0  0  0  0  0  0  0  0  0  0  0  0
    4.2009   -1.7884    3.0883 C   0  0  0  0  0  0  0  0  0  0  0  0
    3.1292   -0.9820    3.8100 C   0  0  0  0  0  0  0  0  0  0  0  0
    3.5635   -0.8434    5.1423 O   0  0  0  0  0  0  0  0  0  0  0  0
    3.2236   -1.9220    5.9826 C   0  0  0  0  0  0  0  0  0  0  0  0
    3.9474   -3.2820    5.7642 C   0  0  2  0  0  0  0  0  0  0  0  0
    5.4838   -3.0912    5.8752 C   0  0  0  0  0  0  0  0  0  0  0  0
    3.5810   -4.0898    7.0409 C   0  0  0  0  0  0  0  0  0  0  0  0
    3.2462   -5.5473    6.7999 C   0  0  0  0  0  0  0  0  0  0  0  0
    2.0135   -5.7264    5.8673 C   0  0  1  0  0  0  0  0  0  0  0  0
    0.8226   -5.1721    6.7088 C   0  0  0  0  0  0  0  0  0  0  0  0
    1.8544   -7.2685    5.5417 C   0  0  1  0  0  0  0  0  0  0  0  0
    0.4506   -7.9293    5.7168 C   0  0  0  0  0  0  0  0  0  0  0  0
   -0.3430   -8.1933    4.4316 C   0  0  1  0  0  0  0  0  0  0  0  0
   -1.7760   -8.1780    4.5178 O   0  0  0  0  0  0  0  0  0  0  0  0
   -1.1475   -7.3452    3.5623 C   0  0  2  0  0  0  0  0  0  0  0  0
   -0.5029   -7.9438    2.3569 C   0  0  0  0  0  0  0  0  0  0  0  0
    0.3672   -8.8454    3.2710 C   0  0  2  0  0  0  0  0  0  0  0  0
   -0.0363  -10.3166    3.2349 C   0  0  0  0  0  0  0  0  0  0  0  0
    1.8994   -8.7389    3.3554 C   0  0  1  0  0  0  0  0  0  0  0  0
    2.5329   -8.8536    1.9456 C   0  0  0  0  0  0  0  0  0  0  0  0
    4.4108   -7.5963    0.2799 H   0  0  0  0  0  0  0  0  0  0  0  0
    4.1573   -9.2736   -0.2094 H   0  0  0  0  0  0  0  0  0  0  0  0
    5.7003   -8.7749    0.5353 H   0  0  0  0  0  0  0  0  0  0  0  0
    4.2177  -10.8573    1.5111 H   0  0  0  0  0  0  0  0  0  0  0  0
    5.7560   -8.4521    3.1940 H   0  0  0  0  0  0  0  0  0  0  0  0
    4.9479   -7.0757    2.5557 H   0  0  0  0  0  0  0  0  0  0  0  0
    4.1025   -8.8430    4.8565 H   0  0  0  0  0  0  0  0  0  0  0  0
    4.5818   -7.1899    4.8881 H   0  0  0  0  0  0  0  0  0  0  0  0
    3.1182   -6.0217    2.7576 H   0  0  0  0  0  0  0  0  0  0  0  0
    1.4118   -6.1771    2.9001 H   0  0  0  0  0  0  0  0  0  0  0  0
    0.9090   -3.2085    4.6879 H   0  0  0  0  0  0  0  0  0  0  0  0
    0.0678   -4.6855    4.2847 H   0  0  0  0  0  0  0  0  0  0  0  0
    0.9208   -3.8740    3.0747 H   0  0  0  0  0  0  0  0  0  0  0  0
    4.3045   -4.8572    4.4387 H   0  0  0  0  0  0  0  0  0  0  0  0
    5.6877   -3.3870    1.6426 H   0  0  0  0  0  0  0  0  0  0  0  0
    5.1822   -4.9617    2.2070 H   0  0  0  0  0  0  0  0  0  0  0  0
    6.0779   -3.9000    3.2676 H   0  0  0  0  0  0  0  0  0  0  0  0
    3.5219   -3.1714    0.8708 H   0  0  0  0  0  0  0  0  0  0  0  0
    2.1678   -2.7614    1.8473 H   0  0  0  0  0  0  0  0  0  0  0  0
    2.6194   -4.4418    1.5874 H   0  0  0  0  0  0  0  0  0  0  0  0
    5.1724   -1.5165    3.4887 H   0  0  0  0  0  0  0  0  0  0  0  0
    4.2661   -1.3929    2.0743 H   0  0  0  0  0  0  0  0  0  0  0  0
    3.0866    0.0186    3.3778 H   0  0  0  0  0  0  0  0  0  0  0  0
    2.1261   -1.3978    3.7172 H   0  0  0  0  0  0  0  0  0  0  0  0
    3.4981   -1.5585    6.9763 H   0  0  0  0  0  0  0  0  0  0  0  0
    2.1416   -2.0421    6.0228 H   0  0  0  0  0  0  0  0  0  0  0  0
    5.7735   -2.5940    6.8041 H   0  0  0  0  0  0  0  0  0  0  0  0
    5.9136   -2.4940    5.0895 H   0  0  0  0  0  0  0  0  0  0  0  0
    6.0028   -4.0500    5.8551 H   0  0  0  0  0  0  0  0  0  0  0  0
    4.4062   -4.0710    7.7529 H   0  0  0  0  0  0  0  0  0  0  0  0
    2.7852   -3.6133    7.6144 H   0  0  0  0  0  0  0  0  0  0  0  0
    4.1517   -6.0147    6.4359 H   0  0  0  0  0  0  0  0  0  0  0  0
    3.0733   -6.0341    7.7601 H   0  0  0  0  0  0  0  0  0  0  0  0
    0.8003   -5.6068    7.7093 H   0  0  0  0  0  0  0  0  0  0  0  0
   -0.1556   -5.3546    6.2652 H   0  0  0  0  0  0  0  0  0  0  0  0
    0.8695   -4.0911    6.8386 H   0  0  0  0  0  0  0  0  0  0  0  0
    2.4436   -7.7961    6.2856 H   0  0  0  0  0  0  0  0  0  0  0  0
    0.6197   -8.9164    6.1574 H   0  0  0  0  0  0  0  0  0  0  0  0
   -0.2019   -7.4348    6.4223 H   0  0  0  0  0  0  0  0  0  0  0  0
   -1.2444   -6.2392    3.7038 H   0  0  0  0  0  0  0  0  0  0  0  0
   -1.1690   -8.5471    1.7340 H   0  0  0  0  0  0  0  0  0  0  0  0
    0.0386   -7.2638    1.7168 H   0  0  0  0  0  0  0  0  0  0  0  0
    0.3046  -10.8184    2.3276 H   0  0  0  0  0  0  0  0  0  0  0  0
   -1.1200  -10.3619    3.2471 H   0  0  0  0  0  0  0  0  0  0  0  0
    0.3227  -10.8821    4.0978 H   0  0  0  0  0  0  0  0  0  0  0  0
    2.2312   -9.6261    3.8894 H   0  0  0  0  0  0  0  0  0  0  0  0
    2.2282   -8.0002    1.3451 H   0  0  0  0  0  0  0  0  0  0  0  0
    2.1302   -9.7300    1.4395 H   0  0  0  0  0  0  0  0  0  0  0  0
  1  2  1  0
  1 34  1  0
  1 35  1  0
  1 36  1  0
  2 33  1  0
  2  3  1  1
  2  4  1  0
  3 37  1  0
  4  5  1  0
  4 38  1  0
  4 39  1  0
  6  5  1  1
  5 40  1  0
  5 41  1  0
  6 24  1  0
  6 32  1  0
  6  7  1  0
  7  8  1  0
  7 42  1  0
  7 43  1  0
  8 22  1  0
  8  9  1  6
  8 10  1  0
  9 44  1  0
  9 45  1  0
  9 46  1  0
 10 18  1  0
 10 11  1  0
 10 47  1  1
 11 12  1  0
 11 13  1  0
 11 14  1  0
 12 48  1  0
 12 49  1  0
 12 50  1  0
 13 51  1  0
 13 52  1  0
 13 53  1  0
 14 15  1  0
 14 54  1  0
 14 55  1  0
 15 16  1  0
 15 56  1  0
 15 57  1  0
 16 17  1  0
 17 18  1  0
 17 58  1  0
 17 59  1  0
 18 19  1  6
 18 20  1  0
 19 60  1  0
 19 61  1  0
 19 62  1  0
 20 21  1  0
 20 63  1  0
 20 64  1  0
 21 22  1  0
 21 65  1  0
 21 66  1  0
 22 23  1  1
 22 24  1  0
 23 67  1  0
 23 68  1  0
 23 69  1  0
 24 25  1  0
 24 70  1  1
 25 26  1  0
 25 71  1  0
 25 72  1  0
 26 28  1  0
 26 30  1  0
 26 27  1  1
 27 28  1  0
 28 29  1  0
 28 73  1  1
 29 30  1  0
 29 74  1  0
 29 75  1  0
 30 31  1  6
 30 32  1  0
 31 76  1  0
 31 77  1  0
 31 78  1  0
 32 33  1  0
 32 79  1  1
 33 80  1  0
 33 81  1  0
M  END
>  <i_m_ct_stereo_status>  (99) 
1

>  <s_m_source_file>  (99) 
/var/tmp/pbs.5076255.sched01/tmp7c02qu8j/38qwqhi24o.sdf

>  <i_m_source_file_index>  (99) 
6

>  <i_lp_mmshare_version>  (99) 
48012

>  <i_f3d_flags>  (99) 
0

>  <s_epik_input>  (99) 
W0NIMl0xW0NIMl1bQ0BAXShbQ0gzXSkoW09IXSlbQ0gyXVtDQEBIXTJbQ0BdMyhbQ0gzXSlbQ0gyXVtDQEBIXShPNClbQ0BdMzRbQ0gyXVtDQEBIXShbQ0BAXTEyNSlbQ0BdNihbQ0gzXSlbQ0BAXShbQ0gyXTUpKFtDSDNdKVtDQEBIXTdbQ0BdKFtDSDNdKShbQ0gyXVtDSDJdNilbQ0gyXU9bQ0gyXVtDSDJdQzcoW0NIM10pW0NIM10=

>  <s_epik_cmdline>  (99) 
J2VwaWtfcHl0aG9uJywgJy1waHQnLCAnMi4wJywgJy1waCcsICc3LjAnLCAnLXRuJywgJzgnLCAnLW1hJywgJzIwMCcsICctaW1hZScsICc8aW5maWxlLm1hZT4nLCAnLW9tYWUnLCAnPG91dGZpbGUubWFlPic=

>  <r_lp_tautomer_probability>  (99) 
1

>  <r_epik_Ionization_Penalty>  (99) 
2.45737e-06

>  <r_epik_Ionization_Penalty_Charging>  (99) 
0

>  <r_epik_Ionization_Penalty_Neutral>  (99) 
2.45737e-06

>  <r_epik_State_Penalty>  (99) 
-0

>  <r_epik_Charging_Adjusted_Penalty>  (99) 
0

>  <i_epik_Tot_Q>  (99) 
0

>  <i_epik_Tot_abs_Q>  (99) 
0

>  <s_lp_Force_Field>  (99) 
OPLS3e

>  <r_lp_Energy>  (99) 
125.409

>  <b_lp_Chiralities_Consistent>  (99) 
1

>  <s_lp_Variant>  (99) 
31:0-1

>  <s_i_glide_gridfile>  (99) 
pfpi4k_grid

>  <i_i_glide_lignum>  (99) 
6

>  <i_i_glide_rotatable_bonds>  (99) 
1

>  <r_i_docking_score>  (99) 
-1.86549

>  <r_i_glide_ligand_efficiency>  (99) 
-0.0565299

>  <r_i_glide_ligand_efficiency_sa>  (99) 
-0.181322

>  <r_i_glide_ligand_efficiency_ln>  (99) 
-0.414875

>  <r_i_glide_gscore>  (99) 
-1.86549

>  <r_i_glide_lipo>  (99) 
-0.0530577

>  <r_i_glide_hbond>  (99) 
-0.16

>  <r_i_glide_metal>  (99) 
-0

>  <r_i_glide_rewards>  (99) 
-0.295225

>  <r_i_glide_evdw>  (99) 
-17.7214

>  <r_i_glide_ecoul>  (99) 
-3.14088

>  <r_i_glide_erotb>  (99) 
0

>  <r_i_glide_esite>  (99) 
0

>  <r_i_glide_emodel>  (99) 
-22.6473

>  <r_i_glide_energy>  (99) 
-20.8623

>  <r_i_glide_einternal>  (99) 
0.215945

>  <r_i_glide_intrahb_reward>  (99) 
-0

>  <i_i_glide_confnum>  (99) 
2

>  <i_i_glide_posenum>  (99) 
2

>  <r_i_glide_eff_state_penalty>  (99) 
0

>  <ligand_id>  (99) 
31

>  <original_smiles>  (99) 
CC1(O)CCC23CC4(C)C5C(C)(C)CCOCC5(C)CCC4(C)C2CC24OC2CC4(C)C3C1

>  <smiles>  (99) 
[H]OC1(C([H])([H])[H])C([H])([H])C([H])([H])C23C([H])([H])C4(C([H])([H])[H])C5([H])C(C([H])([H])[H])(C([H])([H])[H])C([H])([H])C([H])([H])OC([H])([H])C5(C([H])([H])[H])C([H])([H])C([H])([H])C4(C([H])([H])[H])C2([H])C([H])([H])C24OC2([H])C([H])([H])C4(C([H])([H])[H])C3([H])C1([H])[H]

$$$$
32:0:0
     RDKit          3D

 56 60  0  0  1  0  0  0  0  0999 V2000
    1.4045   -2.2909    3.4030 C   0  0  0  0  0  0  0  0  0  0  0  0
    2.7240   -3.0844    3.4296 C   0  0  2  0  0  0  0  0  0  0  0  0
    3.9452   -2.2916    2.7943 C   0  0  1  0  0  0  0  0  0  0  0  0
    4.7922   -1.7732    3.8033 O   0  0  0  0  0  0  0  0  0  0  0  0
    4.6558   -3.3126    1.9038 C   0  0  1  0  0  0  0  0  0  0  0  0
    3.7475   -3.3996    0.5388 C   0  0  1  0  0  0  0  0  0  0  0  0
    2.4042   -2.9686    0.5312 O   0  0  0  0  0  0  0  0  0  0  0  0
    4.4963   -2.6982   -0.6309 C   0  0  1  0  0  0  0  0  0  0  0  0
    3.8217   -1.4638   -1.2783 C   0  0  0  0  0  0  0  0  0  0  0  0
    5.9232   -2.4590   -0.1080 C   0  0  0  0  0  0  0  0  0  0  0  0
    6.9917   -2.8389   -1.1522 C   0  0  0  0  0  0  0  0  0  0  0  0
    6.1911   -1.0016    0.3371 C   0  0  0  0  0  0  0  0  0  0  0  0
    5.9703   -3.3625    1.1339 C   0  0  2  0  0  0  0  0  0  0  0  0
    5.9343   -4.9416    0.8799 C   0  0  1  0  0  0  0  0  0  0  0  0
    7.2779   -5.3902    0.7956 O   0  0  0  0  0  0  0  0  0  0  0  0
    5.1193   -5.6277    2.0812 C   0  0  1  0  0  0  0  0  0  0  0  0
    5.8470   -6.8740    2.6592 C   0  0  0  0  0  0  0  0  0  0  0  0
    5.1887   -4.4512    2.9385 C   0  0  2  0  0  0  0  0  0  0  0  0
    4.4812   -4.8278    4.1232 O   0  0  0  0  0  0  0  0  0  0  0  0
    3.3227   -5.5223    3.7303 C   0  0  1  0  0  0  0  0  0  0  0  0
    2.5182   -4.5866    2.9387 C   0  0  2  0  0  0  0  0  0  0  0  0
    3.5386   -5.7188    2.2824 C   0  0  1  0  0  0  0  0  0  0  0  0
    2.9153   -6.9253    1.5543 C   0  0  0  0  0  0  0  0  0  0  0  0
    1.6074   -7.2413    2.0454 O   0  0  0  0  0  0  0  0  0  0  0  0
    0.4803   -6.7728    1.4828 C   0  0  0  0  0  0  0  0  0  0  0  0
   -0.5661   -6.7591    2.1261 O   0  0  0  0  0  0  0  0  0  0  0  0
    0.4809   -6.2546    0.3759 O   0  0  0  0  0  0  0  0  0  0  0  0
    1.0239   -2.1266    2.3996 H   0  0  0  0  0  0  0  0  0  0  0  0
    1.5350   -1.3144    3.8686 H   0  0  0  0  0  0  0  0  0  0  0  0
    0.6245   -2.8125    3.9545 H   0  0  0  0  0  0  0  0  0  0  0  0
    2.8995   -3.1483    4.5070 H   0  0  0  0  0  0  0  0  0  0  0  0
    3.5821   -1.4453    2.2064 H   0  0  0  0  0  0  0  0  0  0  0  0
    5.0515   -2.4974    4.3572 H   0  0  0  0  0  0  0  0  0  0  0  0
    3.5931   -4.4207    0.2052 H   0  0  0  0  0  0  0  0  0  0  0  0
    2.3408   -2.0898    0.1792 H   0  0  0  0  0  0  0  0  0  0  0  0
    4.5552   -3.4344   -1.4345 H   0  0  0  0  0  0  0  0  0  0  0  0
    3.6087   -0.6711   -0.5590 H   0  0  0  0  0  0  0  0  0  0  0  0
    2.8812   -1.7439   -1.7542 H   0  0  0  0  0  0  0  0  0  0  0  0
    4.4501   -1.0428   -2.0645 H   0  0  0  0  0  0  0  0  0  0  0  0
    7.9996   -2.7821   -0.7367 H   0  0  0  0  0  0  0  0  0  0  0  0
    6.9480   -2.1874   -2.0242 H   0  0  0  0  0  0  0  0  0  0  0  0
    6.8456   -3.8546   -1.5178 H   0  0  0  0  0  0  0  0  0  0  0  0
    7.1740   -0.9047    0.8033 H   0  0  0  0  0  0  0  0  0  0  0  0
    5.4590   -0.6329    1.0556 H   0  0  0  0  0  0  0  0  0  0  0  0
    6.1766   -0.3126   -0.5069 H   0  0  0  0  0  0  0  0  0  0  0  0
    6.8185   -3.0654    1.7522 H   0  0  0  0  0  0  0  0  0  0  0  0
    5.5057   -5.2250   -0.0803 H   0  0  0  0  0  0  0  0  0  0  0  0
    7.6949   -5.2602    1.6336 H   0  0  0  0  0  0  0  0  0  0  0  0
    5.3252   -7.2983    3.5147 H   0  0  0  0  0  0  0  0  0  0  0  0
    6.8537   -6.6376    3.0000 H   0  0  0  0  0  0  0  0  0  0  0  0
    5.9323   -7.6615    1.9095 H   0  0  0  0  0  0  0  0  0  0  0  0
    6.1985   -4.2689    3.3165 H   0  0  0  0  0  0  0  0  0  0  0  0
    2.8997   -6.2982    4.3664 H   0  0  0  0  0  0  0  0  0  0  0  0
    1.4597   -4.8154    2.9103 H   0  0  0  0  0  0  0  0  0  0  0  0
    2.9196   -6.7274    0.4847 H   0  0  0  0  0  0  0  0  0  0  0  0
    3.5371   -7.8052    1.7162 H   0  0  0  0  0  0  0  0  0  0  0  0
  1  2  1  0
  1 28  1  0
  1 29  1  0
  1 30  1  0
  2 21  1  0
  2  3  1  0
  2 31  1  1
  3  4  1  0
  3  5  1  0
  3 32  1  6
  4 33  1  0
  5 13  1  0
  5 18  1  0
  5  6  1  6
  6  7  1  0
  6  8  1  0
  6 34  1  6
  7 35  1  0
  8  9  1  0
  8 10  1  0
  8 36  1  6
  9 37  1  0
  9 38  1  0
  9 39  1  0
 10 11  1  0
 10 12  1  0
 10 13  1  0
 11 40  1  0
 11 41  1  0
 11 42  1  0
 12 43  1  0
 12 44  1  0
 12 45  1  0
 13 14  1  0
 13 46  1  1
 14 15  1  0
 14 16  1  0
 14 47  1  6
 15 48  1  0
 16 22  1  0
 16 17  1  1
 16 18  1  0
 17 49  1  0
 17 50  1  0
 17 51  1  0
 18 19  1  0
 18 52  1  1
 19 20  1  0
 20 22  1  0
 20 21  1  0
 20 53  1  1
 21 22  1  0
 21 54  1  6
 22 23  1  6
 23 24  1  0
 23 55  1  0
 23 56  1  0
 24 25  1  0
 25 26  2  0
 25 27  1  0
M  CHG  1  27  -1
M  END
>  <i_m_ct_stereo_status>  (100) 
1

>  <s_m_source_file>  (100) 
/var/tmp/pbs.5076255.sched01/tmp7c02qu8j/38qwqhi24o.sdf

>  <i_m_source_file_index>  (100) 
7

>  <i_lp_mmshare_version>  (100) 
48012

>  <i_f3d_flags>  (100) 
0

>  <s_epik_input>  (100) 
Tz1DKFtPSF0pT1tDSDJdW0NAXTEyW0NASF0oW0NASF0oW0NIM10pW0NASF0zW09IXSlbQ0BASF0yT1tDQEhdNFtDQF0xKFtDSDNdKVtDQEhdKFtPSF0pW0NASF0oW0NAXTM0NSlDKFtDSDNdKShbQ0gzXSlbQ0BIXShbQ0gzXSlbQ0BASF01W09IXQ==

>  <s_epik_cmdline>  (100) 
J2VwaWtfcHl0aG9uJywgJy1waHQnLCAnMi4wJywgJy1waCcsICc3LjAnLCAnLXRuJywgJzgnLCAnLW1hJywgJzIwMCcsICctaW1hZScsICc8aW5maWxlLm1hZT4nLCAnLW9tYWUnLCAnPG91dGZpbGUubWFlPic=

>  <r_epik_Ionization_Penalty>  (100) 
0.379522

>  <r_epik_Ionization_Penalty_Charging>  (100) 
0.379521

>  <r_epik_Ionization_Penalty_Neutral>  (100) 
3.80088e-07

>  <r_epik_State_Penalty>  (100) 
0.377493

>  <r_epik_Charging_Adjusted_Penalty>  (100) 
0.757014

>  <i_epik_Tot_Q>  (100) 
-1

>  <i_epik_Tot_abs_Q>  (100) 
1

>  <s_epik_Chemistry_Notes>  (100) 
This compound has an ester and may undergo hydrolysis at high or low pH. This is carbonic acid which has a microscopic pka value of about 3.8 however its equilibrium with CO2 as a lewis acid yields a pKa of about 6.35.

>  <s_lp_Force_Field>  (100) 
OPLS3e

>  <r_lp_Energy>  (100) 
160.361

>  <b_lp_Chiralities_Consistent>  (100) 
1

>  <s_lp_Variant>  (100) 
32:0-1

>  <s_i_glide_gridfile>  (100) 
pfpi4k_grid

>  <i_i_glide_lignum>  (100) 
7

>  <i_i_glide_rotatable_bonds>  (100) 
6

>  <r_i_docking_score>  (100) 
-3.85571

>  <r_i_glide_ligand_efficiency>  (100) 
-0.142804

>  <r_i_glide_ligand_efficiency_sa>  (100) 
-0.428412

>  <r_i_glide_ligand_efficiency_ln>  (100) 
-0.897545

>  <r_i_glide_gscore>  (100) 
-3.85571

>  <r_i_glide_lipo>  (100) 
-0.406425

>  <r_i_glide_hbond>  (100) 
-0.530543

>  <r_i_glide_metal>  (100) 
-0

>  <r_i_glide_rewards>  (100) 
-0.808363

>  <r_i_glide_evdw>  (100) 
-23.7357

>  <r_i_glide_ecoul>  (100) 
-7.26943

>  <r_i_glide_erotb>  (100) 
0.266826

>  <r_i_glide_esite>  (100) 
-0.1

>  <r_i_glide_emodel>  (100) 
-40.4506

>  <r_i_glide_energy>  (100) 
-31.0052

>  <r_i_glide_einternal>  (100) 
2.3623

>  <r_i_glide_intrahb_reward>  (100) 
-0

>  <i_i_glide_confnum>  (100) 
3

>  <i_i_glide_posenum>  (100) 
1

>  <r_i_glide_eff_state_penalty>  (100) 
0

>  <ligand_id>  (100) 
32

>  <original_smiles>  (100) 
CC1C(O)C23C(O)C(C)C(C)(C)C2C(O)C2(C)C3OC3C1C32COC(=O)O

>  <smiles>  (100) 
[H]OC1([H])C([H])(C([H])([H])[H])C2([H])C3([H])OC4([H])C15C([H])(O[H])C([H])(C([H])([H])[H])C(C([H])([H])[H])(C([H])([H])[H])C5([H])C([H])(O[H])C4(C([H])([H])[H])C32C([H])([H])OC(=O)[O-]

$$$$
32:0:1
     RDKit          3D

 56 60  0  0  1  0  0  0  0  0999 V2000
    1.3886   -2.2391    3.3352 C   0  0  0  0  0  0  0  0  0  0  0  0
    2.7067   -3.0324    3.3777 C   0  0  2  0  0  0  0  0  0  0  0  0
    3.9233   -2.2417    2.7342 C   0  0  1  0  0  0  0  0  0  0  0  0
    4.7555   -1.6902    3.7385 O   0  0  0  0  0  0  0  0  0  0  0  0
    4.6415   -3.2739    1.8633 C   0  0  1  0  0  0  0  0  0  0  0  0
    3.7412   -3.3778    0.4957 C   0  0  1  0  0  0  0  0  0  0  0  0
    2.3960   -2.9626    0.4759 O   0  0  0  0  0  0  0  0  0  0  0  0
    4.4951   -2.6931   -0.6811 C   0  0  1  0  0  0  0  0  0  0  0  0
    3.8187   -1.4705   -1.3483 C   0  0  0  0  0  0  0  0  0  0  0  0
    5.9169   -2.4427   -0.1572 C   0  0  0  0  0  0  0  0  0  0  0  0
    6.9941   -2.8343   -1.1901 C   0  0  0  0  0  0  0  0  0  0  0  0
    6.1799   -0.9785    0.2705 C   0  0  0  0  0  0  0  0  0  0  0  0
    5.9569   -3.3291    1.0969 C   0  0  2  0  0  0  0  0  0  0  0  0
    5.9221   -4.9106    0.8690 C   0  0  1  0  0  0  0  0  0  0  0  0
    7.2731   -5.3257    0.8479 O   0  0  0  0  0  0  0  0  0  0  0  0
    5.1084   -5.5803    2.0750 C   0  0  1  0  0  0  0  0  0  0  0  0
    5.8411   -6.8185    2.6712 C   0  0  0  0  0  0  0  0  0  0  0  0
    5.1748   -4.3942    2.9175 C   0  0  2  0  0  0  0  0  0  0  0  0
    4.4645   -4.7752    4.1025 O   0  0  0  0  0  0  0  0  0  0  0  0
    3.3076   -5.4688    3.7134 C   0  0  1  0  0  0  0  0  0  0  0  0
    2.5072   -4.5387    2.9054 C   0  0  2  0  0  0  0  0  0  0  0  0
    3.5298   -5.6784    2.2696 C   0  0  1  0  0  0  0  0  0  0  0  0
    2.9176   -6.8932    1.5560 C   0  0  0  0  0  0  0  0  0  0  0  0
    1.6123   -7.2145    2.0546 O   0  0  0  0  0  0  0  0  0  0  0  0
    0.4841   -6.7713    1.4697 C   0  0  0  0  0  0  0  0  0  0  0  0
   -0.5663   -6.7602    2.1060 O   0  0  0  0  0  0  0  0  0  0  0  0
    0.4885   -6.2514    0.3556 O   0  0  0  0  0  0  0  0  0  0  0  0
    1.0124   -2.0880    2.3271 H   0  0  0  0  0  0  0  0  0  0  0  0
    1.5120   -1.2566    3.7880 H   0  0  0  0  0  0  0  0  0  0  0  0
    0.6057   -2.7566    3.8894 H   0  0  0  0  0  0  0  0  0  0  0  0
    2.8895   -3.0769    4.4534 H   0  0  0  0  0  0  0  0  0  0  0  0
    3.5597   -1.4080    2.1319 H   0  0  0  0  0  0  0  0  0  0  0  0
    5.4364   -1.1870    3.3219 H   0  0  0  0  0  0  0  0  0  0  0  0
    3.5932   -4.4051    0.1763 H   0  0  0  0  0  0  0  0  0  0  0  0
    2.3289   -2.0731    0.1316 H   0  0  0  0  0  0  0  0  0  0  0  0
    4.5596   -3.4405   -1.4737 H   0  0  0  0  0  0  0  0  0  0  0  0
    3.6016   -0.6682   -0.6408 H   0  0  0  0  0  0  0  0  0  0  0  0
    2.8817   -1.7586   -1.8239 H   0  0  0  0  0  0  0  0  0  0  0  0
    4.4500   -1.0576   -2.1362 H   0  0  0  0  0  0  0  0  0  0  0  0
    7.9996   -2.7680   -0.7701 H   0  0  0  0  0  0  0  0  0  0  0  0
    6.9527   -2.1953   -2.0711 H   0  0  0  0  0  0  0  0  0  0  0  0
    6.8531   -3.8551   -1.5414 H   0  0  0  0  0  0  0  0  0  0  0  0
    7.1609   -0.8705    0.7378 H   0  0  0  0  0  0  0  0  0  0  0  0
    5.4418   -0.6002    0.9773 H   0  0  0  0  0  0  0  0  0  0  0  0
    6.1650   -0.3048   -0.5850 H   0  0  0  0  0  0  0  0  0  0  0  0
    6.8098   -3.0326    1.7100 H   0  0  0  0  0  0  0  0  0  0  0  0
    5.5179   -5.2207   -0.0952 H   0  0  0  0  0  0  0  0  0  0  0  0
    7.2893   -6.2703    0.7569 H   0  0  0  0  0  0  0  0  0  0  0  0
    5.3210   -7.2311    3.5360 H   0  0  0  0  0  0  0  0  0  0  0  0
    6.8472   -6.5717    3.0168 H   0  0  0  0  0  0  0  0  0  0  0  0
    5.9333   -7.6214    1.9384 H   0  0  0  0  0  0  0  0  0  0  0  0
    6.1820   -4.2023    3.2992 H   0  0  0  0  0  0  0  0  0  0  0  0
    2.8830   -6.2336    4.3558 H   0  0  0  0  0  0  0  0  0  0  0  0
    1.4466   -4.7704    2.8736 H   0  0  0  0  0  0  0  0  0  0  0  0
    2.9264   -6.7116    0.4780 H   0  0  0  0  0  0  0  0  0  0  0  0
    3.5462   -7.7721    1.7297 H   0  0  0  0  0  0  0  0  0  0  0  0
  1  2  1  0
  1 28  1  0
  1 29  1  0
  1 30  1  0
  2 21  1  0
  2  3  1  0
  2 31  1  1
  3  4  1  0
  3  5  1  0
  3 32  1  6
  4 33  1  0
  5 13  1  0
  5 18  1  0
  5  6  1  6
  6  7  1  0
  6  8  1  0
  6 34  1  6
  7 35  1  0
  8  9  1  0
  8 10  1  0
  8 36  1  6
  9 37  1  0
  9 38  1  0
  9 39  1  0
 10 11  1  0
 10 12  1  0
 10 13  1  0
 11 40  1  0
 11 41  1  0
 11 42  1  0
 12 43  1  0
 12 44  1  0
 12 45  1  0
 13 14  1  0
 13 46  1  1
 14 15  1  0
 14 16  1  0
 14 47  1  6
 15 48  1  0
 16 22  1  0
 16 17  1  1
 16 18  1  0
 17 49  1  0
 17 50  1  0
 17 51  1  0
 18 19  1  0
 18 52  1  1
 19 20  1  0
 20 22  1  0
 20 21  1  0
 20 53  1  1
 21 22  1  0
 21 54  1  6
 22 23  1  6
 23 24  1  0
 23 55  1  0
 23 56  1  0
 24 25  1  0
 25 26  2  0
 25 27  1  0
M  CHG  1  27  -1
M  END
>  <i_m_ct_stereo_status>  (101) 
1

>  <s_m_source_file>  (101) 
/var/tmp/pbs.5076255.sched01/tmp7c02qu8j/38qwqhi24o.sdf

>  <i_m_source_file_index>  (101) 
7

>  <i_lp_mmshare_version>  (101) 
48012

>  <i_f3d_flags>  (101) 
0

>  <s_epik_input>  (101) 
Tz1DKFtPSF0pT1tDSDJdW0NAXTEyW0NASF0oW0NASF0oW0NIM10pW0NASF0zW09IXSlbQ0BASF0yT1tDQEhdNFtDQF0xKFtDSDNdKVtDQEhdKFtPSF0pW0NASF0oW0NAXTM0NSlDKFtDSDNdKShbQ0gzXSlbQ0BIXShbQ0gzXSlbQ0BASF01W09IXQ==

>  <s_epik_cmdline>  (101) 
J2VwaWtfcHl0aG9uJywgJy1waHQnLCAnMi4wJywgJy1waCcsICc3LjAnLCAnLXRuJywgJzgnLCAnLW1hJywgJzIwMCcsICctaW1hZScsICc8aW5maWxlLm1hZT4nLCAnLW9tYWUnLCAnPG91dGZpbGUubWFlPic=

>  <r_epik_Ionization_Penalty>  (101) 
0.379522

>  <r_epik_Ionization_Penalty_Charging>  (101) 
0.379521

>  <r_epik_Ionization_Penalty_Neutral>  (101) 
3.80088e-07

>  <r_epik_State_Penalty>  (101) 
0.377493

>  <r_epik_Charging_Adjusted_Penalty>  (101) 
0.757014

>  <i_epik_Tot_Q>  (101) 
-1

>  <i_epik_Tot_abs_Q>  (101) 
1

>  <s_epik_Chemistry_Notes>  (101) 
This compound has an ester and may undergo hydrolysis at high or low pH. This is carbonic acid which has a microscopic pka value of about 3.8 however its equilibrium with CO2 as a lewis acid yields a pKa of about 6.35.

>  <s_lp_Force_Field>  (101) 
OPLS3e

>  <r_lp_Energy>  (101) 
160.361

>  <b_lp_Chiralities_Consistent>  (101) 
1

>  <s_lp_Variant>  (101) 
32:0-1

>  <s_i_glide_gridfile>  (101) 
pfpi4k_grid

>  <i_i_glide_lignum>  (101) 
7

>  <i_i_glide_rotatable_bonds>  (101) 
6

>  <r_i_docking_score>  (101) 
-3.81625

>  <r_i_glide_ligand_efficiency>  (101) 
-0.141343

>  <r_i_glide_ligand_efficiency_sa>  (101) 
-0.424028

>  <r_i_glide_ligand_efficiency_ln>  (101) 
-0.88836

>  <r_i_glide_gscore>  (101) 
-3.81625

>  <r_i_glide_lipo>  (101) 
-0.377966

>  <r_i_glide_hbond>  (101) 
-0.545987

>  <r_i_glide_metal>  (101) 
-0

>  <r_i_glide_rewards>  (101) 
-0.808363

>  <r_i_glide_evdw>  (101) 
-23.6463

>  <r_i_glide_ecoul>  (101) 
-7.12297

>  <r_i_glide_erotb>  (101) 
0.266826

>  <r_i_glide_esite>  (101) 
-0.1

>  <r_i_glide_emodel>  (101) 
-40.0003

>  <r_i_glide_energy>  (101) 
-30.7692

>  <r_i_glide_einternal>  (101) 
2.92717

>  <r_i_glide_intrahb_reward>  (101) 
-0

>  <i_i_glide_confnum>  (101) 
3

>  <i_i_glide_posenum>  (101) 
29

>  <r_i_glide_eff_state_penalty>  (101) 
0

>  <ligand_id>  (101) 
32

>  <original_smiles>  (101) 
CC1C(O)C23C(O)C(C)C(C)(C)C2C(O)C2(C)C3OC3C1C32COC(=O)O

>  <smiles>  (101) 
[H]OC1([H])C([H])(C([H])([H])[H])C2([H])C3([H])OC4([H])C15C([H])(O[H])C([H])(C([H])([H])[H])C(C([H])([H])[H])(C([H])([H])[H])C5([H])C([H])(O[H])C4(C([H])([H])[H])C32C([H])([H])OC(=O)[O-]

$$$$
32:0:2
     RDKit          3D

 56 60  0  0  1  0  0  0  0  0999 V2000
    1.2880   -2.2517    3.2837 C   0  0  0  0  0  0  0  0  0  0  0  0
    2.6205   -3.0180    3.3281 C   0  0  2  0  0  0  0  0  0  0  0  0
    3.8161   -2.2193    2.6635 C   0  0  1  0  0  0  0  0  0  0  0  0
    4.6426   -1.6371    3.6535 O   0  0  0  0  0  0  0  0  0  0  0  0
    4.5496   -3.2501    1.8045 C   0  0  1  0  0  0  0  0  0  0  0  0
    3.6465   -3.3973    0.4419 C   0  0  1  0  0  0  0  0  0  0  0  0
    2.2895   -3.0162    0.4175 O   0  0  0  0  0  0  0  0  0  0  0  0
    4.3867   -2.7214   -0.7484 C   0  0  1  0  0  0  0  0  0  0  0  0
    3.6921   -1.5235   -1.4386 C   0  0  0  0  0  0  0  0  0  0  0  0
    5.8051   -2.4340   -0.2339 C   0  0  0  0  0  0  0  0  0  0  0  0
    6.8825   -2.8261   -1.2668 C   0  0  0  0  0  0  0  0  0  0  0  0
    6.0400   -0.9557    0.1628 C   0  0  0  0  0  0  0  0  0  0  0  0
    5.8620   -3.2948    1.0379 C   0  0  2  0  0  0  0  0  0  0  0  0
    5.8599   -4.8802    0.8348 C   0  0  1  0  0  0  0  0  0  0  0  0
    7.2177   -5.2664    0.8063 O   0  0  0  0  0  0  0  0  0  0  0  0
    5.0624   -5.5446    2.0543 C   0  0  1  0  0  0  0  0  0  0  0  0
    5.8213   -6.7602    2.6656 C   0  0  0  0  0  0  0  0  0  0  0  0
    5.1066   -4.3445    2.8764 C   0  0  2  0  0  0  0  0  0  0  0  0
    4.4126   -4.7193    4.0712 O   0  0  0  0  0  0  0  0  0  0  0  0
    3.2657   -5.4405    3.6977 C   0  0  1  0  0  0  0  0  0  0  0  0
    2.4436   -4.5427    2.8810 C   0  0  2  0  0  0  0  0  0  0  0  0
    3.4849   -5.6705    2.2564 C   0  0  1  0  0  0  0  0  0  0  0  0
    2.8916   -6.9131    1.5697 C   0  0  0  0  0  0  0  0  0  0  0  0
    1.5804   -7.2258    2.0490 O   0  0  0  0  0  0  0  0  0  0  0  0
    0.4713   -6.7602    1.4627 C   0  0  0  0  0  0  0  0  0  0  0  0
   -0.5873   -6.7066    2.0883 O   0  0  0  0  0  0  0  0  0  0  0  0
    0.4940   -6.2553    0.3360 O   0  0  0  0  0  0  0  0  0  0  0  0
    0.9087   -2.1196    2.2741 H   0  0  0  0  0  0  0  0  0  0  0  0
    1.3967   -1.2586    3.7203 H   0  0  0  0  0  0  0  0  0  0  0  0
    0.5172   -2.7729    3.8472 H   0  0  0  0  0  0  0  0  0  0  0  0
    2.8112   -3.0460    4.4027 H   0  0  0  0  0  0  0  0  0  0  0  0
    3.4340   -1.4032    2.0463 H   0  0  0  0  0  0  0  0  0  0  0  0
    5.3098   -1.1182    3.2237 H   0  0  0  0  0  0  0  0  0  0  0  0
    3.5179   -4.4333    0.1426 H   0  0  0  0  0  0  0  0  0  0  0  0
    2.2001   -2.1255    0.0868 H   0  0  0  0  0  0  0  0  0  0  0  0
    4.4601   -3.4824   -1.5276 H   0  0  0  0  0  0  0  0  0  0  0  0
    3.4611   -0.7152   -0.7426 H   0  0  0  0  0  0  0  0  0  0  0  0
    2.7558   -1.8361   -1.9014 H   0  0  0  0  0  0  0  0  0  0  0  0
    4.3108   -1.1137   -2.2374 H   0  0  0  0  0  0  0  0  0  0  0  0
    7.8888   -2.7314   -0.8569 H   0  0  0  0  0  0  0  0  0  0  0  0
    6.8272   -2.1956   -2.1532 H   0  0  0  0  0  0  0  0  0  0  0  0
    6.7560   -3.8573   -1.6096 H   0  0  0  0  0  0  0  0  0  0  0  0
    7.0201   -0.8181    0.6234 H   0  0  0  0  0  0  0  0  0  0  0  0
    5.2982   -0.5797    0.8669 H   0  0  0  0  0  0  0  0  0  0  0  0
    6.0048   -0.2998   -0.7066 H   0  0  0  0  0  0  0  0  0  0  0  0
    6.7070   -2.9654    1.6509 H   0  0  0  0  0  0  0  0  0  0  0  0
    5.4499   -5.2100   -0.1241 H   0  0  0  0  0  0  0  0  0  0  0  0
    7.6163   -4.8612    0.0486 H   0  0  0  0  0  0  0  0  0  0  0  0
    5.3144   -7.1677    3.5372 H   0  0  0  0  0  0  0  0  0  0  0  0
    6.8250   -6.4890    2.9957 H   0  0  0  0  0  0  0  0  0  0  0  0
    5.9249   -7.5691    1.9433 H   0  0  0  0  0  0  0  0  0  0  0  0
    6.1104   -4.1235    3.2529 H   0  0  0  0  0  0  0  0  0  0  0  0
    2.8596   -6.2046    4.3558 H   0  0  0  0  0  0  0  0  0  0  0  0
    1.3914   -4.7900    2.8666 H   0  0  0  0  0  0  0  0  0  0  0  0
    2.9112   -6.7597    0.4896 H   0  0  0  0  0  0  0  0  0  0  0  0
    3.5285   -7.7787    1.7718 H   0  0  0  0  0  0  0  0  0  0  0  0
  1  2  1  0
  1 28  1  0
  1 29  1  0
  1 30  1  0
  2 21  1  0
  2  3  1  0
  2 31  1  1
  3  4  1  0
  3  5  1  0
  3 32  1  6
  4 33  1  0
  5 13  1  0
  5 18  1  0
  5  6  1  6
  6  7  1  0
  6  8  1  0
  6 34  1  6
  7 35  1  0
  8  9  1  0
  8 10  1  0
  8 36  1  6
  9 37  1  0
  9 38  1  0
  9 39  1  0
 10 11  1  0
 10 12  1  0
 10 13  1  0
 11 40  1  0
 11 41  1  0
 11 42  1  0
 12 43  1  0
 12 44  1  0
 12 45  1  0
 13 14  1  0
 13 46  1  1
 14 15  1  0
 14 16  1  0
 14 47  1  6
 15 48  1  0
 16 22  1  0
 16 17  1  1
 16 18  1  0
 17 49  1  0
 17 50  1  0
 17 51  1  0
 18 19  1  0
 18 52  1  1
 19 20  1  0
 20 22  1  0
 20 21  1  0
 20 53  1  1
 21 22  1  0
 21 54  1  6
 22 23  1  6
 23 24  1  0
 23 55  1  0
 23 56  1  0
 24 25  1  0
 25 26  2  0
 25 27  1  0
M  CHG  1  27  -1
M  END
>  <i_m_ct_stereo_status>  (102) 
1

>  <s_m_source_file>  (102) 
/var/tmp/pbs.5076255.sched01/tmp7c02qu8j/38qwqhi24o.sdf

>  <i_m_source_file_index>  (102) 
7

>  <i_lp_mmshare_version>  (102) 
48012

>  <i_f3d_flags>  (102) 
0

>  <s_epik_input>  (102) 
Tz1DKFtPSF0pT1tDSDJdW0NAXTEyW0NASF0oW0NASF0oW0NIM10pW0NASF0zW09IXSlbQ0BASF0yT1tDQEhdNFtDQF0xKFtDSDNdKVtDQEhdKFtPSF0pW0NASF0oW0NAXTM0NSlDKFtDSDNdKShbQ0gzXSlbQ0BIXShbQ0gzXSlbQ0BASF01W09IXQ==

>  <s_epik_cmdline>  (102) 
J2VwaWtfcHl0aG9uJywgJy1waHQnLCAnMi4wJywgJy1waCcsICc3LjAnLCAnLXRuJywgJzgnLCAnLW1hJywgJzIwMCcsICctaW1hZScsICc8aW5maWxlLm1hZT4nLCAnLW9tYWUnLCAnPG91dGZpbGUubWFlPic=

>  <r_epik_Ionization_Penalty>  (102) 
0.379522

>  <r_epik_Ionization_Penalty_Charging>  (102) 
0.379521

>  <r_epik_Ionization_Penalty_Neutral>  (102) 
3.80088e-07

>  <r_epik_State_Penalty>  (102) 
0.377493

>  <r_epik_Charging_Adjusted_Penalty>  (102) 
0.757014

>  <i_epik_Tot_Q>  (102) 
-1

>  <i_epik_Tot_abs_Q>  (102) 
1

>  <s_epik_Chemistry_Notes>  (102) 
This compound has an ester and may undergo hydrolysis at high or low pH. This is carbonic acid which has a microscopic pka value of about 3.8 however its equilibrium with CO2 as a lewis acid yields a pKa of about 6.35.

>  <s_lp_Force_Field>  (102) 
OPLS3e

>  <r_lp_Energy>  (102) 
160.361

>  <b_lp_Chiralities_Consistent>  (102) 
1

>  <s_lp_Variant>  (102) 
32:0-1

>  <s_i_glide_gridfile>  (102) 
pfpi4k_grid

>  <i_i_glide_lignum>  (102) 
7

>  <i_i_glide_rotatable_bonds>  (102) 
6

>  <r_i_docking_score>  (102) 
-3.80521

>  <r_i_glide_ligand_efficiency>  (102) 
-0.140934

>  <r_i_glide_ligand_efficiency_sa>  (102) 
-0.422801

>  <r_i_glide_ligand_efficiency_ln>  (102) 
-0.885791

>  <r_i_glide_gscore>  (102) 
-3.80521

>  <r_i_glide_lipo>  (102) 
-0.347263

>  <r_i_glide_hbond>  (102) 
-0.592411

>  <r_i_glide_metal>  (102) 
-0

>  <r_i_glide_rewards>  (102) 
-0.808363

>  <r_i_glide_evdw>  (102) 
-22.7504

>  <r_i_glide_ecoul>  (102) 
-7.24321

>  <r_i_glide_erotb>  (102) 
0.266826

>  <r_i_glide_esite>  (102) 
-0.1

>  <r_i_glide_emodel>  (102) 
-38.8685

>  <r_i_glide_energy>  (102) 
-29.9936

>  <r_i_glide_einternal>  (102) 
2.78516

>  <r_i_glide_intrahb_reward>  (102) 
-0

>  <i_i_glide_confnum>  (102) 
3

>  <i_i_glide_posenum>  (102) 
10

>  <r_i_glide_eff_state_penalty>  (102) 
0

>  <ligand_id>  (102) 
32

>  <original_smiles>  (102) 
CC1C(O)C23C(O)C(C)C(C)(C)C2C(O)C2(C)C3OC3C1C32COC(=O)O

>  <smiles>  (102) 
[H]OC1([H])C([H])(C([H])([H])[H])C2([H])C3([H])OC4([H])C15C([H])(O[H])C([H])(C([H])([H])[H])C(C([H])([H])[H])(C([H])([H])[H])C5([H])C([H])(O[H])C4(C([H])([H])[H])C32C([H])([H])OC(=O)[O-]

$$$$
32:1:0
     RDKit          3D

 57 61  0  0  1  0  0  0  0  0999 V2000
    4.3450   -7.3889    1.2017 C   0  0  0  0  0  0  0  0  0  0  0  0
    4.9143   -5.9594    1.2880 C   0  0  2  0  0  0  0  0  0  0  0  0
    4.8454   -5.3523    2.7520 C   0  0  1  0  0  0  0  0  0  0  0  0
    6.1022   -5.4149    3.3982 O   0  0  0  0  0  0  0  0  0  0  0  0
    4.3582   -3.9154    2.5505 C   0  0  1  0  0  0  0  0  0  0  0  0
    2.7372   -4.0543    2.3052 C   0  0  1  0  0  0  0  0  0  0  0  0
    2.1625   -5.2859    1.9169 O   0  0  0  0  0  0  0  0  0  0  0  0
    1.9742   -3.5489    3.5668 C   0  0  1  0  0  0  0  0  0  0  0  0
    1.0872   -4.5647    4.3319 C   0  0  0  0  0  0  0  0  0  0  0  0
    3.0291   -2.8375    4.4261 C   0  0  0  0  0  0  0  0  0  0  0  0
    2.5223   -1.4797    4.9563 C   0  0  0  0  0  0  0  0  0  0  0  0
    3.5150   -3.6612    5.6440 C   0  0  0  0  0  0  0  0  0  0  0  0
    4.1953   -2.6868    3.4319 C   0  0  2  0  0  0  0  0  0  0  0  0
    3.9710   -1.6736    2.2150 C   0  0  1  0  0  0  0  0  0  0  0  0
    4.4840   -0.4210    2.6188 O   0  0  0  0  0  0  0  0  0  0  0  0
    4.7438   -2.2403    0.9338 C   0  0  1  0  0  0  0  0  0  0  0  0
    5.5935   -1.1571    0.2128 C   0  0  0  0  0  0  0  0  0  0  0  0
    5.5371   -3.1923    1.6939 C   0  0  2  0  0  0  0  0  0  0  0  0
    6.3186   -3.8852    0.7128 O   0  0  0  0  0  0  0  0  0  0  0  0
    5.4940   -4.1495   -0.3873 C   0  0  1  0  0  0  0  0  0  0  0  0
    4.4041   -5.0132    0.0993 C   0  0  2  0  0  0  0  0  0  0  0  0
    4.2850   -3.3790   -0.0651 C   0  0  1  0  0  0  0  0  0  0  0  0
    3.3830   -2.8638   -1.1708 C   0  0  0  0  0  0  0  0  0  0  0  0
    4.1331   -2.2051   -2.1879 O   0  0  0  0  0  0  0  0  0  0  0  0
    3.8420   -2.2424   -3.5238 C   0  0  0  0  0  0  0  0  0  0  0  0
    4.2162   -1.3834   -4.3160 O   0  0  0  0  0  0  0  0  0  0  0  0
    3.2241   -3.4105   -3.8729 O   0  0  0  0  0  0  0  0  0  0  0  0
    3.2730   -7.4482    1.3712 H   0  0  0  0  0  0  0  0  0  0  0  0
    4.8174   -8.0303    1.9490 H   0  0  0  0  0  0  0  0  0  0  0  0
    4.5460   -7.8375    0.2302 H   0  0  0  0  0  0  0  0  0  0  0  0
    5.9675   -6.1531    1.0745 H   0  0  0  0  0  0  0  0  0  0  0  0
    4.1493   -5.9189    3.3758 H   0  0  0  0  0  0  0  0  0  0  0  0
    6.3650   -6.3254    3.4678 H   0  0  0  0  0  0  0  0  0  0  0  0
    2.3798   -3.4313    1.4898 H   0  0  0  0  0  0  0  0  0  0  0  0
    2.6343   -5.5876    1.1505 H   0  0  0  0  0  0  0  0  0  0  0  0
    1.2726   -2.7946    3.2068 H   0  0  0  0  0  0  0  0  0  0  0  0
    1.6443   -5.4361    4.6787 H   0  0  0  0  0  0  0  0  0  0  0  0
    0.2761   -4.9236    3.7009 H   0  0  0  0  0  0  0  0  0  0  0  0
    0.6224   -4.0938    5.1986 H   0  0  0  0  0  0  0  0  0  0  0  0
    3.3183   -0.9286    5.4576 H   0  0  0  0  0  0  0  0  0  0  0  0
    1.7131   -1.6174    5.6745 H   0  0  0  0  0  0  0  0  0  0  0  0
    2.1400   -0.8431    4.1588 H   0  0  0  0  0  0  0  0  0  0  0  0
    4.3414   -3.1630    6.1524 H   0  0  0  0  0  0  0  0  0  0  0  0
    3.8655   -4.6544    5.3664 H   0  0  0  0  0  0  0  0  0  0  0  0
    2.7290   -3.7878    6.3892 H   0  0  0  0  0  0  0  0  0  0  0  0
    5.1072   -2.4486    3.9889 H   0  0  0  0  0  0  0  0  0  0  0  0
    2.9252   -1.4710    1.9784 H   0  0  0  0  0  0  0  0  0  0  0  0
    4.1899    0.2377    1.9991 H   0  0  0  0  0  0  0  0  0  0  0  0
    6.1682   -1.5677   -0.6150 H   0  0  0  0  0  0  0  0  0  0  0  0
    6.3164   -0.6839    0.8787 H   0  0  0  0  0  0  0  0  0  0  0  0
    4.9552   -0.3763   -0.1964 H   0  0  0  0  0  0  0  0  0  0  0  0
    6.2954   -2.7212    2.3275 H   0  0  0  0  0  0  0  0  0  0  0  0
    5.8951   -4.2016   -1.3948 H   0  0  0  0  0  0  0  0  0  0  0  0
    3.9105   -5.5749   -0.6821 H   0  0  0  0  0  0  0  0  0  0  0  0
    2.7996   -3.7132   -1.5198 H   0  0  0  0  0  0  0  0  0  0  0  0
    2.6748   -2.1467   -0.7543 H   0  0  0  0  0  0  0  0  0  0  0  0
    3.0277   -3.9968   -3.1611 H   0  0  0  0  0  0  0  0  0  0  0  0
  1  2  1  0
  1 28  1  0
  1 29  1  0
  1 30  1  0
  2 21  1  0
  2  3  1  0
  2 31  1  6
  3  4  1  0
  3  5  1  0
  3 32  1  1
  4 33  1  0
  5 13  1  0
  5 18  1  0
  5  6  1  6
  6  7  1  0
  6  8  1  0
  6 34  1  6
  7 35  1  0
  8  9  1  0
  8 10  1  0
  8 36  1  6
  9 37  1  0
  9 38  1  0
  9 39  1  0
 10 11  1  0
 10 12  1  0
 10 13  1  0
 11 40  1  0
 11 41  1  0
 11 42  1  0
 12 43  1  0
 12 44  1  0
 12 45  1  0
 13 14  1  0
 13 46  1  1
 14 15  1  0
 14 16  1  0
 14 47  1  6
 15 48  1  0
 16 22  1  0
 16 17  1  6
 16 18  1  0
 17 49  1  0
 17 50  1  0
 17 51  1  0
 18 19  1  0
 18 52  1  1
 19 20  1  0
 20 22  1  0
 20 21  1  0
 20 53  1  6
 21 22  1  0
 21 54  1  6
 22 23  1  6
 23 24  1  0
 23 55  1  0
 23 56  1  0
 24 25  1  0
 25 26  2  0
 25 27  1  0
 27 57  1  0
M  END
>  <i_m_ct_stereo_status>  (103) 
1

>  <s_m_source_file>  (103) 
/var/tmp/pbs.5076255.sched01/tmp7c02qu8j/38qwqhi24o.sdf

>  <i_m_source_file_index>  (103) 
8

>  <i_lp_mmshare_version>  (103) 
48012

>  <i_f3d_flags>  (103) 
0

>  <s_epik_input>  (103) 
Tz1DKFtPSF0pT1tDSDJdW0NAXTEyW0NASF0oW0NASF0oW0NIM10pW0NASF0zW09IXSlbQ0BASF0yT1tDQEhdNFtDQF0xKFtDSDNdKVtDQEhdKFtPSF0pW0NASF0oW0NAXTM0NSlDKFtDSDNdKShbQ0gzXSlbQ0BIXShbQ0gzXSlbQ0BASF01W09IXQ==

>  <s_epik_cmdline>  (103) 
J2VwaWtfcHl0aG9uJywgJy1waHQnLCAnMi4wJywgJy1waCcsICc3LjAnLCAnLXRuJywgJzgnLCAnLW1hJywgJzIwMCcsICctaW1hZScsICc8aW5maWxlLm1hZT4nLCAnLW9tYWUnLCAnPG91dGZpbGUubWFlPic=

>  <r_epik_Ionization_Penalty>  (103) 
0.443569

>  <r_epik_Ionization_Penalty_Charging>  (103) 
0

>  <r_epik_Ionization_Penalty_Neutral>  (103) 
0.443569

>  <r_epik_State_Penalty>  (103) 
0.445836

>  <r_epik_Charging_Adjusted_Penalty>  (103) 
0.445836

>  <i_epik_Tot_Q>  (103) 
0

>  <i_epik_Tot_abs_Q>  (103) 
0

>  <s_epik_Chemistry_Notes>  (103) 
This compound has an ester and may undergo hydrolysis at high or low pH. This is carbonic acid which has a microscopic pka value of about 3.8 however its equilibrium with CO2 as a lewis acid yields a pKa of about 6.35.

>  <s_lp_Force_Field>  (103) 
OPLS3e

>  <r_lp_Energy>  (103) 
155.253

>  <b_lp_Chiralities_Consistent>  (103) 
1

>  <s_lp_Variant>  (103) 
32:0-2

>  <s_i_glide_gridfile>  (103) 
pfpi4k_grid

>  <i_i_glide_lignum>  (103) 
8

>  <i_i_glide_rotatable_bonds>  (103) 
7

>  <r_i_docking_score>  (103) 
-3.99736

>  <r_i_glide_ligand_efficiency>  (103) 
-0.14805

>  <r_i_glide_ligand_efficiency_sa>  (103) 
-0.444151

>  <r_i_glide_ligand_efficiency_ln>  (103) 
-0.93052

>  <r_i_glide_gscore>  (103) 
-3.99736

>  <r_i_glide_lipo>  (103) 
-0.40009

>  <r_i_glide_hbond>  (103) 
-0.270116

>  <r_i_glide_metal>  (103) 
-0

>  <r_i_glide_rewards>  (103) 
-1.08285

>  <r_i_glide_evdw>  (103) 
-29.8158

>  <r_i_glide_ecoul>  (103) 
-7.67914

>  <r_i_glide_erotb>  (103) 
0.39835

>  <r_i_glide_esite>  (103) 
0

>  <r_i_glide_emodel>  (103) 
-43.2526

>  <r_i_glide_energy>  (103) 
-37.4949

>  <r_i_glide_einternal>  (103) 
6.40934

>  <r_i_glide_intrahb_reward>  (103) 
-0

>  <i_i_glide_confnum>  (103) 
6

>  <i_i_glide_posenum>  (103) 
16

>  <r_i_glide_eff_state_penalty>  (103) 
0

>  <ligand_id>  (103) 
32

>  <original_smiles>  (103) 
CC1C(O)C23C(O)C(C)C(C)(C)C2C(O)C2(C)C3OC3C1C32COC(=O)O

>  <smiles>  (103) 
[H]OC(=O)OC([H])([H])C12C3([H])OC4([H])C5(C([H])(O[H])C([H])(C([H])([H])[H])C31[H])C([H])(O[H])C([H])(C([H])([H])[H])C(C([H])([H])[H])(C([H])([H])[H])C5([H])C([H])(O[H])C42C([H])([H])[H]

$$$$
32:1:1
     RDKit          3D

 57 61  0  0  1  0  0  0  0  0999 V2000
    4.4566   -7.0437    0.4999 C   0  0  0  0  0  0  0  0  0  0  0  0
    5.0747   -5.6649    0.7984 C   0  0  2  0  0  0  0  0  0  0  0  0
    5.0297   -5.2911    2.3448 C   0  0  1  0  0  0  0  0  0  0  0  0
    6.2900   -5.4821    2.9586 O   0  0  0  0  0  0  0  0  0  0  0  0
    4.5691   -3.8356    2.3746 C   0  0  1  0  0  0  0  0  0  0  0  0
    2.9464   -3.8965    2.1323 C   0  0  1  0  0  0  0  0  0  0  0  0
    2.3428   -5.0401    1.5562 O   0  0  0  0  0  0  0  0  0  0  0  0
    2.2115   -3.5753    3.4670 C   0  0  1  0  0  0  0  0  0  0  0  0
    1.3080   -4.6763    4.0719 C   0  0  0  0  0  0  0  0  0  0  0  0
    3.2952   -3.0340    4.4143 C   0  0  0  0  0  0  0  0  0  0  0  0
    2.8285   -1.7665    5.1617 C   0  0  0  0  0  0  0  0  0  0  0  0
    3.7696   -4.0559    5.4790 C   0  0  0  0  0  0  0  0  0  0  0  0
    4.4523   -2.7534    3.4410 C   0  0  2  0  0  0  0  0  0  0  0  0
    4.2447   -1.5572    2.4013 C   0  0  1  0  0  0  0  0  0  0  0  0
    4.7980   -0.3986    2.9987 O   0  0  0  0  0  0  0  0  0  0  0  0
    4.9812   -1.9406    1.0330 C   0  0  1  0  0  0  0  0  0  0  0  0
    5.8394   -0.7795    0.4782 C   0  0  0  0  0  0  0  0  0  0  0  0
    5.7608   -3.0148    1.6260 C   0  0  2  0  0  0  0  0  0  0  0  0
    6.5184   -3.5429    0.5301 O   0  0  0  0  0  0  0  0  0  0  0  0
    5.6736   -3.6291   -0.5854 C   0  0  1  0  0  0  0  0  0  0  0  0
    4.5818   -4.5445   -0.2279 C   0  0  2  0  0  0  0  0  0  0  0  0
    4.4739   -2.8957   -0.1354 C   0  0  1  0  0  0  0  0  0  0  0  0
    3.5975   -2.1685   -1.1596 C   0  0  0  0  0  0  0  0  0  0  0  0
    3.3431   -3.0023   -2.2851 O   0  0  0  0  0  0  0  0  0  0  0  0
    3.8112   -2.6977   -3.5040 C   0  0  0  0  0  0  0  0  0  0  0  0
    4.2164   -1.6085   -3.9072 O   0  0  0  0  0  0  0  0  0  0  0  0
    3.8068   -3.8507   -4.2210 O   0  0  0  0  0  0  0  0  0  0  0  0
    3.3888   -7.0888    0.6882 H   0  0  0  0  0  0  0  0  0  0  0  0
    4.9212   -7.8135    1.1132 H   0  0  0  0  0  0  0  0  0  0  0  0
    4.6149   -7.3238   -0.5394 H   0  0  0  0  0  0  0  0  0  0  0  0
    6.1228   -5.8514    0.5470 H   0  0  0  0  0  0  0  0  0  0  0  0
    4.3248   -5.9334    2.8737 H   0  0  0  0  0  0  0  0  0  0  0  0
    6.5174   -6.3962    2.8914 H   0  0  0  0  0  0  0  0  0  0  0  0
    2.5982   -3.1475    1.4264 H   0  0  0  0  0  0  0  0  0  0  0  0
    2.7651   -5.1871    0.7240 H   0  0  0  0  0  0  0  0  0  0  0  0
    1.5297   -2.7546    3.2388 H   0  0  0  0  0  0  0  0  0  0  0  0
    1.8467   -5.6042    4.2676 H   0  0  0  0  0  0  0  0  0  0  0  0
    0.4846   -4.9100    3.3990 H   0  0  0  0  0  0  0  0  0  0  0  0
    0.8640   -4.3368    5.0082 H   0  0  0  0  0  0  0  0  0  0  0  0
    3.6438   -1.3251    5.7356 H   0  0  0  0  0  0  0  0  0  0  0  0
    2.0248   -2.0008    5.8596 H   0  0  0  0  0  0  0  0  0  0  0  0
    2.4496   -1.0037    4.4827 H   0  0  0  0  0  0  0  0  0  0  0  0
    4.6141   -3.6657    6.0487 H   0  0  0  0  0  0  0  0  0  0  0  0
    4.0895   -5.0009    5.0407 H   0  0  0  0  0  0  0  0  0  0  0  0
    2.9866   -4.2797    6.2042 H   0  0  0  0  0  0  0  0  0  0  0  0
    5.3758   -2.6398    4.0125 H   0  0  0  0  0  0  0  0  0  0  0  0
    3.2020   -1.2954    2.2148 H   0  0  0  0  0  0  0  0  0  0  0  0
    4.2286   -0.1343    3.7028 H   0  0  0  0  0  0  0  0  0  0  0  0
    6.3847   -1.0630   -0.4159 H   0  0  0  0  0  0  0  0  0  0  0  0
    6.5848   -0.4546    1.1996 H   0  0  0  0  0  0  0  0  0  0  0  0
    5.2237    0.0833    0.2276 H   0  0  0  0  0  0  0  0  0  0  0  0
    6.5410   -2.6574    2.3033 H   0  0  0  0  0  0  0  0  0  0  0  0
    6.0843   -3.5364   -1.5864 H   0  0  0  0  0  0  0  0  0  0  0  0
    4.0755   -4.9944   -1.0766 H   0  0  0  0  0  0  0  0  0  0  0  0
    2.6520   -1.9120   -0.6871 H   0  0  0  0  0  0  0  0  0  0  0  0
    4.0774   -1.2321   -1.4525 H   0  0  0  0  0  0  0  0  0  0  0  0
    3.4461   -4.5675   -3.7031 H   0  0  0  0  0  0  0  0  0  0  0  0
  1  2  1  0
  1 28  1  0
  1 29  1  0
  1 30  1  0
  2 21  1  0
  2  3  1  0
  2 31  1  6
  3  4  1  0
  3  5  1  0
  3 32  1  1
  4 33  1  0
  5 13  1  0
  5 18  1  0
  5  6  1  6
  6  7  1  0
  6  8  1  0
  6 34  1  6
  7 35  1  0
  8  9  1  0
  8 10  1  0
  8 36  1  6
  9 37  1  0
  9 38  1  0
  9 39  1  0
 10 11  1  0
 10 12  1  0
 10 13  1  0
 11 40  1  0
 11 41  1  0
 11 42  1  0
 12 43  1  0
 12 44  1  0
 12 45  1  0
 13 14  1  0
 13 46  1  1
 14 15  1  0
 14 16  1  0
 14 47  1  6
 15 48  1  0
 16 22  1  0
 16 17  1  6
 16 18  1  0
 17 49  1  0
 17 50  1  0
 17 51  1  0
 18 19  1  0
 18 52  1  1
 19 20  1  0
 20 22  1  0
 20 21  1  0
 20 53  1  6
 21 22  1  0
 21 54  1  6
 22 23  1  6
 23 24  1  0
 23 55  1  0
 23 56  1  0
 24 25  1  0
 25 26  2  0
 25 27  1  0
 27 57  1  0
M  END
>  <i_m_ct_stereo_status>  (104) 
1

>  <s_m_source_file>  (104) 
/var/tmp/pbs.5076255.sched01/tmp7c02qu8j/38qwqhi24o.sdf

>  <i_m_source_file_index>  (104) 
8

>  <i_lp_mmshare_version>  (104) 
48012

>  <i_f3d_flags>  (104) 
0

>  <s_epik_input>  (104) 
Tz1DKFtPSF0pT1tDSDJdW0NAXTEyW0NASF0oW0NASF0oW0NIM10pW0NASF0zW09IXSlbQ0BASF0yT1tDQEhdNFtDQF0xKFtDSDNdKVtDQEhdKFtPSF0pW0NASF0oW0NAXTM0NSlDKFtDSDNdKShbQ0gzXSlbQ0BIXShbQ0gzXSlbQ0BASF01W09IXQ==

>  <s_epik_cmdline>  (104) 
J2VwaWtfcHl0aG9uJywgJy1waHQnLCAnMi4wJywgJy1waCcsICc3LjAnLCAnLXRuJywgJzgnLCAnLW1hJywgJzIwMCcsICctaW1hZScsICc8aW5maWxlLm1hZT4nLCAnLW9tYWUnLCAnPG91dGZpbGUubWFlPic=

>  <r_epik_Ionization_Penalty>  (104) 
0.443569

>  <r_epik_Ionization_Penalty_Charging>  (104) 
0

>  <r_epik_Ionization_Penalty_Neutral>  (104) 
0.443569

>  <r_epik_State_Penalty>  (104) 
0.445836

>  <r_epik_Charging_Adjusted_Penalty>  (104) 
0.445836

>  <i_epik_Tot_Q>  (104) 
0

>  <i_epik_Tot_abs_Q>  (104) 
0

>  <s_epik_Chemistry_Notes>  (104) 
This compound has an ester and may undergo hydrolysis at high or low pH. This is carbonic acid which has a microscopic pka value of about 3.8 however its equilibrium with CO2 as a lewis acid yields a pKa of about 6.35.

>  <s_lp_Force_Field>  (104) 
OPLS3e

>  <r_lp_Energy>  (104) 
155.253

>  <b_lp_Chiralities_Consistent>  (104) 
1

>  <s_lp_Variant>  (104) 
32:0-2

>  <s_i_glide_gridfile>  (104) 
pfpi4k_grid

>  <i_i_glide_lignum>  (104) 
8

>  <i_i_glide_rotatable_bonds>  (104) 
7

>  <r_i_docking_score>  (104) 
-3.89113

>  <r_i_glide_ligand_efficiency>  (104) 
-0.144116

>  <r_i_glide_ligand_efficiency_sa>  (104) 
-0.432348

>  <r_i_glide_ligand_efficiency_ln>  (104) 
-0.905792

>  <r_i_glide_gscore>  (104) 
-3.89113

>  <r_i_glide_lipo>  (104) 
-0.584069

>  <r_i_glide_hbond>  (104) 
-0.0465993

>  <r_i_glide_metal>  (104) 
-0

>  <r_i_glide_rewards>  (104) 
-1.06922

>  <r_i_glide_evdw>  (104) 
-28.4986

>  <r_i_glide_ecoul>  (104) 
-7.76444

>  <r_i_glide_erotb>  (104) 
0.39835

>  <r_i_glide_esite>  (104) 
0

>  <r_i_glide_emodel>  (104) 
-43.8347

>  <r_i_glide_energy>  (104) 
-36.263

>  <r_i_glide_einternal>  (104) 
2.48442

>  <r_i_glide_intrahb_reward>  (104) 
-0

>  <i_i_glide_confnum>  (104) 
6

>  <i_i_glide_posenum>  (104) 
40

>  <r_i_glide_eff_state_penalty>  (104) 
0

>  <ligand_id>  (104) 
32

>  <original_smiles>  (104) 
CC1C(O)C23C(O)C(C)C(C)(C)C2C(O)C2(C)C3OC3C1C32COC(=O)O

>  <smiles>  (104) 
[H]OC(=O)OC([H])([H])C12C3([H])OC4([H])C5(C([H])(O[H])C([H])(C([H])([H])[H])C31[H])C([H])(O[H])C([H])(C([H])([H])[H])C(C([H])([H])[H])(C([H])([H])[H])C5([H])C([H])(O[H])C42C([H])([H])[H]

$$$$
32:1:2
     RDKit          3D

 57 61  0  0  1  0  0  0  0  0999 V2000
    4.4008   -7.1491    0.4919 C   0  0  0  0  0  0  0  0  0  0  0  0
    5.0566   -5.8053    0.8448 C   0  0  2  0  0  0  0  0  0  0  0  0
    4.9601   -5.4649    2.3948 C   0  0  1  0  0  0  0  0  0  0  0  0
    6.1865   -5.7220    3.0528 O   0  0  0  0  0  0  0  0  0  0  0  0
    4.5607   -3.9920    2.4414 C   0  0  1  0  0  0  0  0  0  0  0  0
    2.9512   -3.9701    2.1334 C   0  0  1  0  0  0  0  0  0  0  0  0
    2.3184   -5.0643    1.5006 O   0  0  0  0  0  0  0  0  0  0  0  0
    2.1791   -3.6481    3.4462 C   0  0  1  0  0  0  0  0  0  0  0  0
    1.2049   -4.7215    3.9879 C   0  0  0  0  0  0  0  0  0  0  0  0
    3.2469   -3.1791    4.4475 C   0  0  0  0  0  0  0  0  0  0  0  0
    2.8082   -1.9087    5.2063 C   0  0  0  0  0  0  0  0  0  0  0  0
    3.6309   -4.2455    5.5058 C   0  0  0  0  0  0  0  0  0  0  0  0
    4.4537   -2.9290    3.5269 C   0  0  2  0  0  0  0  0  0  0  0  0
    4.3436   -1.7010    2.5079 C   0  0  1  0  0  0  0  0  0  0  0  0
    4.9233   -0.5841    3.1546 O   0  0  0  0  0  0  0  0  0  0  0  0
    5.1150   -2.0912    1.1605 C   0  0  1  0  0  0  0  0  0  0  0  0
    6.0553   -0.9631    0.6643 C   0  0  0  0  0  0  0  0  0  0  0  0
    5.8184   -3.2141    1.7578 C   0  0  2  0  0  0  0  0  0  0  0  0
    6.5950   -3.7436    0.6775 O   0  0  0  0  0  0  0  0  0  0  0  0
    5.7874   -3.7641   -0.4709 C   0  0  1  0  0  0  0  0  0  0  0  0
    4.6494   -4.6448   -0.1786 C   0  0  2  0  0  0  0  0  0  0  0  0
    4.6003   -2.9939   -0.0462 C   0  0  1  0  0  0  0  0  0  0  0  0
    3.8089   -2.1865   -1.0748 C   0  0  0  0  0  0  0  0  0  0  0  0
    3.1867   -3.0454   -2.0187 O   0  0  0  0  0  0  0  0  0  0  0  0
    3.1646   -2.7439   -3.3205 C   0  0  0  0  0  0  0  0  0  0  0  0
    3.5627   -1.7214   -3.8725 O   0  0  0  0  0  0  0  0  0  0  0  0
    2.6346   -3.8192   -3.9557 O   0  0  0  0  0  0  0  0  0  0  0  0
    3.3231   -7.1443    0.6193 H   0  0  0  0  0  0  0  0  0  0  0  0
    4.7976   -7.9503    1.1159 H   0  0  0  0  0  0  0  0  0  0  0  0
    4.6076   -7.4154   -0.5430 H   0  0  0  0  0  0  0  0  0  0  0  0
    6.1068   -6.0320    0.6406 H   0  0  0  0  0  0  0  0  0  0  0  0
    4.2059   -6.0884    2.8789 H   0  0  0  0  0  0  0  0  0  0  0  0
    6.0739   -5.5707    3.9759 H   0  0  0  0  0  0  0  0  0  0  0  0
    2.6632   -3.1884    1.4346 H   0  0  0  0  0  0  0  0  0  0  0  0
    2.7590   -5.2022    0.6732 H   0  0  0  0  0  0  0  0  0  0  0  0
    1.5438   -2.7931    3.2116 H   0  0  0  0  0  0  0  0  0  0  0  0
    1.6929   -5.6774    4.1833 H   0  0  0  0  0  0  0  0  0  0  0  0
    0.4017   -4.9041    3.2772 H   0  0  0  0  0  0  0  0  0  0  0  0
    0.7365   -4.3829    4.9128 H   0  0  0  0  0  0  0  0  0  0  0  0
    3.6175   -1.5179    5.8236 H   0  0  0  0  0  0  0  0  0  0  0  0
    1.9656   -2.1209    5.8655 H   0  0  0  0  0  0  0  0  0  0  0  0
    2.4921   -1.1140    4.5312 H   0  0  0  0  0  0  0  0  0  0  0  0
    4.4671   -3.9083    6.1193 H   0  0  0  0  0  0  0  0  0  0  0  0
    3.9212   -5.1959    5.0593 H   0  0  0  0  0  0  0  0  0  0  0  0
    2.8085   -4.4476    6.1935 H   0  0  0  0  0  0  0  0  0  0  0  0
    5.3570   -2.8696    4.1373 H   0  0  0  0  0  0  0  0  0  0  0  0
    3.3207   -1.3878    2.2885 H   0  0  0  0  0  0  0  0  0  0  0  0
    4.3369   -0.3113    3.8423 H   0  0  0  0  0  0  0  0  0  0  0  0
    6.6247   -1.2510   -0.2145 H   0  0  0  0  0  0  0  0  0  0  0  0
    6.7816   -0.6876    1.4266 H   0  0  0  0  0  0  0  0  0  0  0  0
    5.4958   -0.0627    0.4146 H   0  0  0  0  0  0  0  0  0  0  0  0
    6.5857   -2.9027    2.4718 H   0  0  0  0  0  0  0  0  0  0  0  0
    6.2376   -3.6689   -1.4542 H   0  0  0  0  0  0  0  0  0  0  0  0
    4.1890   -5.0627   -1.0683 H   0  0  0  0  0  0  0  0  0  0  0  0
    3.0422   -1.6053   -0.5668 H   0  0  0  0  0  0  0  0  0  0  0  0
    4.4922   -1.4872   -1.5578 H   0  0  0  0  0  0  0  0  0  0  0  0
    2.4364   -4.5368   -3.3659 H   0  0  0  0  0  0  0  0  0  0  0  0
  1  2  1  0
  1 28  1  0
  1 29  1  0
  1 30  1  0
  2 21  1  0
  2  3  1  0
  2 31  1  6
  3  4  1  0
  3  5  1  0
  3 32  1  1
  4 33  1  0
  5 13  1  0
  5 18  1  0
  5  6  1  6
  6  7  1  0
  6  8  1  0
  6 34  1  6
  7 35  1  0
  8  9  1  0
  8 10  1  0
  8 36  1  6
  9 37  1  0
  9 38  1  0
  9 39  1  0
 10 11  1  0
 10 12  1  0
 10 13  1  0
 11 40  1  0
 11 41  1  0
 11 42  1  0
 12 43  1  0
 12 44  1  0
 12 45  1  0
 13 14  1  0
 13 46  1  1
 14 15  1  0
 14 16  1  0
 14 47  1  6
 15 48  1  0
 16 22  1  0
 16 17  1  6
 16 18  1  0
 17 49  1  0
 17 50  1  0
 17 51  1  0
 18 19  1  0
 18 52  1  1
 19 20  1  0
 20 22  1  0
 20 21  1  0
 20 53  1  6
 21 22  1  0
 21 54  1  6
 22 23  1  6
 23 24  1  0
 23 55  1  0
 23 56  1  0
 24 25  1  0
 25 26  2  0
 25 27  1  0
 27 57  1  0
M  END
>  <i_m_ct_stereo_status>  (105) 
1

>  <s_m_source_file>  (105) 
/var/tmp/pbs.5076255.sched01/tmp7c02qu8j/38qwqhi24o.sdf

>  <i_m_source_file_index>  (105) 
8

>  <i_lp_mmshare_version>  (105) 
48012

>  <i_f3d_flags>  (105) 
0

>  <s_epik_input>  (105) 
Tz1DKFtPSF0pT1tDSDJdW0NAXTEyW0NASF0oW0NASF0oW0NIM10pW0NASF0zW09IXSlbQ0BASF0yT1tDQEhdNFtDQF0xKFtDSDNdKVtDQEhdKFtPSF0pW0NASF0oW0NAXTM0NSlDKFtDSDNdKShbQ0gzXSlbQ0BIXShbQ0gzXSlbQ0BASF01W09IXQ==

>  <s_epik_cmdline>  (105) 
J2VwaWtfcHl0aG9uJywgJy1waHQnLCAnMi4wJywgJy1waCcsICc3LjAnLCAnLXRuJywgJzgnLCAnLW1hJywgJzIwMCcsICctaW1hZScsICc8aW5maWxlLm1hZT4nLCAnLW9tYWUnLCAnPG91dGZpbGUubWFlPic=

>  <r_epik_Ionization_Penalty>  (105) 
0.443569

>  <r_epik_Ionization_Penalty_Charging>  (105) 
0

>  <r_epik_Ionization_Penalty_Neutral>  (105) 
0.443569

>  <r_epik_State_Penalty>  (105) 
0.445836

>  <r_epik_Charging_Adjusted_Penalty>  (105) 
0.445836

>  <i_epik_Tot_Q>  (105) 
0

>  <i_epik_Tot_abs_Q>  (105) 
0

>  <s_epik_Chemistry_Notes>  (105) 
This compound has an ester and may undergo hydrolysis at high or low pH. This is carbonic acid which has a microscopic pka value of about 3.8 however its equilibrium with CO2 as a lewis acid yields a pKa of about 6.35.

>  <s_lp_Force_Field>  (105) 
OPLS3e

>  <r_lp_Energy>  (105) 
155.253

>  <b_lp_Chiralities_Consistent>  (105) 
1

>  <s_lp_Variant>  (105) 
32:0-2

>  <s_i_glide_gridfile>  (105) 
pfpi4k_grid

>  <i_i_glide_lignum>  (105) 
8

>  <i_i_glide_rotatable_bonds>  (105) 
7

>  <r_i_docking_score>  (105) 
-3.65774

>  <r_i_glide_ligand_efficiency>  (105) 
-0.135472

>  <r_i_glide_ligand_efficiency_sa>  (105) 
-0.406415

>  <r_i_glide_ligand_efficiency_ln>  (105) 
-0.851461

>  <r_i_glide_gscore>  (105) 
-3.65774

>  <r_i_glide_lipo>  (105) 
-0.591768

>  <r_i_glide_hbond>  (105) 
0

>  <r_i_glide_metal>  (105) 
-0

>  <r_i_glide_rewards>  (105) 
-0.981914

>  <r_i_glide_evdw>  (105) 
-27.3309

>  <r_i_glide_ecoul>  (105) 
-7.43906

>  <r_i_glide_erotb>  (105) 
0.39835

>  <r_i_glide_esite>  (105) 
0

>  <r_i_glide_emodel>  (105) 
-42.1089

>  <r_i_glide_energy>  (105) 
-34.7699

>  <r_i_glide_einternal>  (105) 
2.18297

>  <r_i_glide_intrahb_reward>  (105) 
-0

>  <i_i_glide_confnum>  (105) 
6

>  <i_i_glide_posenum>  (105) 
1

>  <r_i_glide_eff_state_penalty>  (105) 
0

>  <ligand_id>  (105) 
32

>  <original_smiles>  (105) 
CC1C(O)C23C(O)C(C)C(C)(C)C2C(O)C2(C)C3OC3C1C32COC(=O)O

>  <smiles>  (105) 
[H]OC(=O)OC([H])([H])C12C3([H])OC4([H])C5(C([H])(O[H])C([H])(C([H])([H])[H])C31[H])C([H])(O[H])C([H])(C([H])([H])[H])C(C([H])([H])[H])(C([H])([H])[H])C5([H])C([H])(O[H])C42C([H])([H])[H]

$$$$
33:0:0
     RDKit          3D

 44 47  0  0  1  0  0  0  0  0999 V2000
    2.3077   -2.9784    2.0918 C   0  0  0  0  0  0  0  0  0  0  0  0
    2.6011   -4.2197    2.5242 C   0  0  0  0  0  0  0  0  0  0  0  0
    3.2449   -4.2502    4.0707 C   0  0  0  0  0  0  0  0  0  0  0  0
    3.5041   -3.1755    4.6215 O   0  0  0  0  0  0  0  0  0  0  0  0
    3.6788   -5.6342    5.0637 C   0  0  0  0  0  0  0  0  0  0  0  0
    4.5980   -5.4657    5.8609 O   0  0  0  0  0  0  0  0  0  0  0  0
    2.9746   -7.0771    4.9091 C   0  0  0  0  0  0  0  0  0  0  0  0
    1.8000   -6.7639    4.4248 C   0  0  0  0  0  0  0  0  0  0  0  0
    0.7404   -6.0329    5.2154 C   0  0  0  0  0  0  0  0  0  0  0  0
   -0.1853   -5.3708    4.7500 O   0  0  0  0  0  0  0  0  0  0  0  0
    0.9247   -6.1652    6.5422 O   0  0  0  0  0  0  0  0  0  0  0  0
    0.0373   -5.5034    7.4276 C   0  0  0  0  0  0  0  0  0  0  0  0
    2.1536   -6.5857    3.0274 C   0  0  0  0  0  0  0  0  0  0  0  0
    3.4735   -6.4618    2.4899 C   0  0  0  0  0  0  0  0  0  0  0  0
    3.5292   -6.5822    1.1601 C   0  0  1  0  0  0  0  0  0  0  0  0
    4.7683   -5.9951    0.4811 C   0  0  0  0  0  0  0  0  0  0  0  0
    3.6765   -8.0748    1.3262 O   0  0  0  0  0  0  0  0  0  0  0  0
    2.9881   -8.8087    2.4673 C   0  0  1  0  0  0  0  0  0  0  0  0
    3.5066   -8.4534    4.1130 C   0  0  1  0  0  0  0  0  0  0  0  0
    5.0069   -8.7163    4.3011 C   0  0  0  0  0  0  0  0  0  0  0  0
    1.5196   -8.3088    1.9320 C   0  0  1  0  0  0  0  0  0  0  0  0
    0.4141   -9.1430    2.6342 C   0  0  0  0  0  0  0  0  0  0  0  0
    1.2970   -6.6954    1.9317 C   0  0  1  0  0  0  0  0  0  0  0  0
    0.0762   -6.2578    2.0000 O   0  0  0  0  0  0  0  0  0  0  0  0
    2.3090   -5.5741    1.4229 C   0  0  1  0  0  0  0  0  0  0  0  0
    1.8927   -2.8115    1.1104 H   0  0  0  0  0  0  0  0  0  0  0  0
    2.4632   -2.0934    2.6984 H   0  0  0  0  0  0  0  0  0  0  0  0
    0.3361   -5.6962    8.4552 H   0  0  0  0  0  0  0  0  0  0  0  0
   -0.9859   -5.8572    7.2980 H   0  0  0  0  0  0  0  0  0  0  0  0
    0.0478   -4.4246    7.2656 H   0  0  0  0  0  0  0  0  0  0  0  0
    4.4546   -6.4167    2.9310 H   0  0  0  0  0  0  0  0  0  0  0  0
    4.8642   -4.9217    0.6382 H   0  0  0  0  0  0  0  0  0  0  0  0
    4.7092   -6.1828   -0.5890 H   0  0  0  0  0  0  0  0  0  0  0  0
    5.6699   -6.4884    0.8412 H   0  0  0  0  0  0  0  0  0  0  0  0
    3.1012   -9.8699    2.2877 H   0  0  0  0  0  0  0  0  0  0  0  0
    3.0084   -9.2310    4.6884 H   0  0  0  0  0  0  0  0  0  0  0  0
    5.2540   -8.8305    5.3562 H   0  0  0  0  0  0  0  0  0  0  0  0
    5.6329   -7.9213    3.8986 H   0  0  0  0  0  0  0  0  0  0  0  0
    5.2965   -9.6418    3.8001 H   0  0  0  0  0  0  0  0  0  0  0  0
    1.4512   -8.6106    0.8866 H   0  0  0  0  0  0  0  0  0  0  0  0
    0.3537   -8.9645    3.7094 H   0  0  0  0  0  0  0  0  0  0  0  0
    0.6155  -10.2111    2.5088 H   0  0  0  0  0  0  0  0  0  0  0  0
   -0.5741   -8.9729    2.2010 H   0  0  0  0  0  0  0  0  0  0  0  0
    1.9793   -5.1580    0.4647 H   0  0  0  0  0  0  0  0  0  0  0  0
  1  2  2  0
  1 26  1  0
  1 27  1  0
  2 25  1  0
  2  3  1  0
  3  4  2  0
  3  5  1  0
  5  6  2  0
  5  7  1  0
  7 19  1  0
  7  8  2  0
  8  9  1  0
  8 13  1  0
  9 10  2  0
  9 11  1  0
 11 12  1  0
 12 28  1  0
 12 29  1  0
 12 30  1  0
 13 23  1  0
 13 14  2  0
 14 15  1  0
 14 31  1  0
 15 25  1  0
 15 16  1  6
 15 17  1  0
 16 32  1  0
 16 33  1  0
 16 34  1  0
 17 18  1  0
 18 19  1  0
 18 21  1  0
 18 35  1  6
 19 20  1  0
 19 36  1  1
 20 37  1  0
 20 38  1  0
 20 39  1  0
 21 22  1  0
 21 23  1  0
 21 40  1  6
 22 41  1  0
 22 42  1  0
 22 43  1  0
 23 24  1  1
 23 25  1  0
 25 44  1  6
M  CHG  1  24  -1
M  END
>  <i_m_ct_stereo_status>  (106) 
1

>  <s_m_source_file>  (106) 
/var/tmp/pbs.5076255.sched01/tmp7c02qu8j/38qwqhi24o.sdf

>  <i_m_source_file_index>  (106) 
9

>  <i_lp_mmshare_version>  (106) 
48012

>  <i_f3d_flags>  (106) 
0

>  <s_epik_input>  (106) 
W0NIMl09QzFDKD1PKUMoPU8pQyhbQ0BIXShbQ0gzXSlbQ0BIXShPMilbQ0BIXTNbQ0gzXSk9QyhDKD1PKU9bQ0gzXSlDKD1bQ0hdNClDMyhbT0hdKVtDQEBIXTFbQ0BdMjRbQ0gzXQ==

>  <s_epik_cmdline>  (106) 
J2VwaWtfcHl0aG9uJywgJy1waHQnLCAnMi4wJywgJy1waCcsICc3LjAnLCAnLXRuJywgJzgnLCAnLW1hJywgJzIwMCcsICctaW1hZScsICc8aW5maWxlLm1hZT4nLCAnLW9tYWUnLCAnPG91dGZpbGUubWFlPic=

>  <r_epik_Ionization_Penalty>  (106) 
0.232885

>  <r_epik_Ionization_Penalty_Charging>  (106) 
0.232885

>  <r_epik_Ionization_Penalty_Neutral>  (106) 
2.63117e-16

>  <r_epik_State_Penalty>  (106) 
0.2236

>  <r_epik_Charging_Adjusted_Penalty>  (106) 
0.456485

>  <i_epik_Tot_Q>  (106) 
-1

>  <i_epik_Tot_abs_Q>  (106) 
1

>  <s_epik_Chemistry_Notes>  (106) 
This compound has an ester and may undergo hydrolysis at high or low pH.

>  <s_lp_Force_Field>  (106) 
OPLS3e

>  <r_lp_Energy>  (106) 
480.923

>  <b_lp_Chiralities_Consistent>  (106) 
1

>  <s_lp_Variant>  (106) 
33:0-1

>  <s_i_glide_gridfile>  (106) 
pfpi4k_grid

>  <i_i_glide_lignum>  (106) 
9

>  <i_i_glide_rotatable_bonds>  (106) 
2

>  <r_i_docking_score>  (106) 
-2.86522

>  <r_i_glide_ligand_efficiency>  (106) 
-0.114609

>  <r_i_glide_ligand_efficiency_sa>  (106) 
-0.335118

>  <r_i_glide_ligand_efficiency_ln>  (106) 
-0.679143

>  <r_i_glide_gscore>  (106) 
-2.86522

>  <r_i_glide_lipo>  (106) 
-0.185148

>  <r_i_glide_hbond>  (106) 
-0.337701

>  <r_i_glide_metal>  (106) 
-0

>  <r_i_glide_rewards>  (106) 
-1.06806

>  <r_i_glide_evdw>  (106) 
-20.3961

>  <r_i_glide_ecoul>  (106) 
-2.73215

>  <r_i_glide_erotb>  (106) 
0.160946

>  <r_i_glide_esite>  (106) 
-0.00562548

>  <r_i_glide_emodel>  (106) 
-30.5639

>  <r_i_glide_energy>  (106) 
-23.1283

>  <r_i_glide_einternal>  (106) 
0.126946

>  <r_i_glide_intrahb_reward>  (106) 
-0

>  <i_i_glide_confnum>  (106) 
1

>  <i_i_glide_posenum>  (106) 
1

>  <r_i_glide_eff_state_penalty>  (106) 
0

>  <ligand_id>  (106) 
33

>  <original_smiles>  (106) 
C=C1C(=O)C(=O)C2=C(C(=O)OC)C3=CC4(C)OC(C2C)C(C)C3(O)C14

>  <smiles>  (106) 
[H]C([H])=C1C(=O)C(=O)C2=C(C(=O)OC([H])([H])[H])C3=C([H])C4(C([H])([H])[H])OC([H])(C2([H])C([H])([H])[H])C([H])(C([H])([H])[H])C3([O-])C14[H]

$$$$
33:0:1
     RDKit          3D

 44 47  0  0  1  0  0  0  0  0999 V2000
    3.6629   -5.1295    1.5222 C   0  0  0  0  0  0  0  0  0  0  0  0
    3.1406   -6.0727    2.3281 C   0  0  0  0  0  0  0  0  0  0  0  0
    3.6383   -5.9737    3.9222 C   0  0  0  0  0  0  0  0  0  0  0  0
    4.5138   -5.1584    4.2110 O   0  0  0  0  0  0  0  0  0  0  0  0
    3.1169   -6.9323    5.3129 C   0  0  0  0  0  0  0  0  0  0  0  0
    3.9490   -7.0876    6.2046 O   0  0  0  0  0  0  0  0  0  0  0  0
    1.6644   -7.6425    5.4151 C   0  0  0  0  0  0  0  0  0  0  0  0
    0.9482   -6.8951    4.6171 C   0  0  0  0  0  0  0  0  0  0  0  0
    0.5668   -5.4754    4.9505 C   0  0  0  0  0  0  0  0  0  0  0  0
    0.6344   -4.5132    4.1881 O   0  0  0  0  0  0  0  0  0  0  0  0
    0.1722   -5.3737    6.2349 O   0  0  0  0  0  0  0  0  0  0  0  0
   -0.2165   -4.1126    6.7518 C   0  0  0  0  0  0  0  0  0  0  0  0
    1.3290   -7.4142    3.3214 C   0  0  0  0  0  0  0  0  0  0  0  0
    2.4467   -8.2761    3.0497 C   0  0  0  0  0  0  0  0  0  0  0  0
    2.3960   -8.8306    1.8343 C   0  0  1  0  0  0  0  0  0  0  0  0
    3.7353   -9.3381    1.2896 C   0  0  0  0  0  0  0  0  0  0  0  0
    1.6018   -9.9740    2.4281 O   0  0  0  0  0  0  0  0  0  0  0  0
    0.6054   -9.7441    3.5517 C   0  0  1  0  0  0  0  0  0  0  0  0
    1.2433   -9.2416    5.1168 C   0  0  1  0  0  0  0  0  0  0  0  0
    2.2763  -10.2491    5.6526 C   0  0  0  0  0  0  0  0  0  0  0  0
   -0.2497   -8.6912    2.6198 C   0  0  1  0  0  0  0  0  0  0  0  0
   -1.6280   -8.4413    3.2769 C   0  0  0  0  0  0  0  0  0  0  0  0
    0.5700   -7.3470    2.1489 C   0  0  1  0  0  0  0  0  0  0  0  0
   -0.1296   -6.2570    1.9229 O   0  0  0  0  0  0  0  0  0  0  0  0
    2.0676   -7.2668    1.5945 C   0  0  1  0  0  0  0  0  0  0  0  0
    3.4203   -5.1023    0.4709 H   0  0  0  0  0  0  0  0  0  0  0  0
    4.3370   -4.3716    1.8943 H   0  0  0  0  0  0  0  0  0  0  0  0
   -0.5350   -4.2138    7.7886 H   0  0  0  0  0  0  0  0  0  0  0  0
   -1.0461   -3.6876    6.1857 H   0  0  0  0  0  0  0  0  0  0  0  0
    0.6176   -3.4131    6.7182 H   0  0  0  0  0  0  0  0  0  0  0  0
    3.2473   -8.6734    3.6559 H   0  0  0  0  0  0  0  0  0  0  0  0
    4.4791   -8.5510    1.1742 H   0  0  0  0  0  0  0  0  0  0  0  0
    3.5760   -9.8024    0.3180 H   0  0  0  0  0  0  0  0  0  0  0  0
    4.1475  -10.1185    1.9328 H   0  0  0  0  0  0  0  0  0  0  0  0
    0.0483  -10.6687    3.6855 H   0  0  0  0  0  0  0  0  0  0  0  0
    0.3808   -9.3564    5.7686 H   0  0  0  0  0  0  0  0  0  0  0  0
    2.4036  -10.1449    6.7293 H   0  0  0  0  0  0  0  0  0  0  0  0
    3.2583  -10.1566    5.1907 H   0  0  0  0  0  0  0  0  0  0  0  0
    1.9342  -11.2678    5.4772 H   0  0  0  0  0  0  0  0  0  0  0  0
   -0.5034   -9.2231    1.7029 H   0  0  0  0  0  0  0  0  0  0  0  0
   -1.5497   -7.9285    4.2357 H   0  0  0  0  0  0  0  0  0  0  0  0
   -2.1187   -9.3972    3.4744 H   0  0  0  0  0  0  0  0  0  0  0  0
   -2.3002   -7.8735    2.6306 H   0  0  0  0  0  0  0  0  0  0  0  0
    2.0370   -7.0511    0.5275 H   0  0  0  0  0  0  0  0  0  0  0  0
  1  2  2  0
  1 26  1  0
  1 27  1  0
  2 25  1  0
  2  3  1  0
  3  4  2  0
  3  5  1  0
  5  6  2  0
  5  7  1  0
  7 19  1  0
  7  8  2  0
  8  9  1  0
  8 13  1  0
  9 10  2  0
  9 11  1  0
 11 12  1  0
 12 28  1  0
 12 29  1  0
 12 30  1  0
 13 23  1  0
 13 14  2  0
 14 15  1  0
 14 31  1  0
 15 25  1  0
 15 16  1  6
 15 17  1  0
 16 32  1  0
 16 33  1  0
 16 34  1  0
 17 18  1  0
 18 19  1  0
 18 21  1  0
 18 35  1  1
 19 20  1  0
 19 36  1  1
 20 37  1  0
 20 38  1  0
 20 39  1  0
 21 22  1  0
 21 23  1  0
 21 40  1  6
 22 41  1  0
 22 42  1  0
 22 43  1  0
 23 24  1  1
 23 25  1  0
 25 44  1  6
M  CHG  1  24  -1
M  END
>  <i_m_ct_stereo_status>  (107) 
1

>  <s_m_source_file>  (107) 
/var/tmp/pbs.5076255.sched01/tmp7c02qu8j/38qwqhi24o.sdf

>  <i_m_source_file_index>  (107) 
9

>  <i_lp_mmshare_version>  (107) 
48012

>  <i_f3d_flags>  (107) 
0

>  <s_epik_input>  (107) 
W0NIMl09QzFDKD1PKUMoPU8pQyhbQ0BIXShbQ0gzXSlbQ0BIXShPMilbQ0BIXTNbQ0gzXSk9QyhDKD1PKU9bQ0gzXSlDKD1bQ0hdNClDMyhbT0hdKVtDQEBIXTFbQ0BdMjRbQ0gzXQ==

>  <s_epik_cmdline>  (107) 
J2VwaWtfcHl0aG9uJywgJy1waHQnLCAnMi4wJywgJy1waCcsICc3LjAnLCAnLXRuJywgJzgnLCAnLW1hJywgJzIwMCcsICctaW1hZScsICc8aW5maWxlLm1hZT4nLCAnLW9tYWUnLCAnPG91dGZpbGUubWFlPic=

>  <r_epik_Ionization_Penalty>  (107) 
0.232885

>  <r_epik_Ionization_Penalty_Charging>  (107) 
0.232885

>  <r_epik_Ionization_Penalty_Neutral>  (107) 
2.63117e-16

>  <r_epik_State_Penalty>  (107) 
0.2236

>  <r_epik_Charging_Adjusted_Penalty>  (107) 
0.456485

>  <i_epik_Tot_Q>  (107) 
-1

>  <i_epik_Tot_abs_Q>  (107) 
1

>  <s_epik_Chemistry_Notes>  (107) 
This compound has an ester and may undergo hydrolysis at high or low pH.

>  <s_lp_Force_Field>  (107) 
OPLS3e

>  <r_lp_Energy>  (107) 
480.923

>  <b_lp_Chiralities_Consistent>  (107) 
1

>  <s_lp_Variant>  (107) 
33:0-1

>  <s_i_glide_gridfile>  (107) 
pfpi4k_grid

>  <i_i_glide_lignum>  (107) 
9

>  <i_i_glide_rotatable_bonds>  (107) 
2

>  <r_i_docking_score>  (107) 
-2.77837

>  <r_i_glide_ligand_efficiency>  (107) 
-0.111135

>  <r_i_glide_ligand_efficiency_sa>  (107) 
-0.32496

>  <r_i_glide_ligand_efficiency_ln>  (107) 
-0.658558

>  <r_i_glide_gscore>  (107) 
-2.77837

>  <r_i_glide_lipo>  (107) 
-0.0139876

>  <r_i_glide_hbond>  (107) 
-0.349702

>  <r_i_glide_metal>  (107) 
-0

>  <r_i_glide_rewards>  (107) 
-1.06806

>  <r_i_glide_evdw>  (107) 
-25.1499

>  <r_i_glide_ecoul>  (107) 
-1.60627

>  <r_i_glide_erotb>  (107) 
0.160946

>  <r_i_glide_esite>  (107) 
-0.00913066

>  <r_i_glide_emodel>  (107) 
-33.5507

>  <r_i_glide_energy>  (107) 
-26.7561

>  <r_i_glide_einternal>  (107) 
1.07472

>  <r_i_glide_intrahb_reward>  (107) 
-0

>  <i_i_glide_confnum>  (107) 
3

>  <i_i_glide_posenum>  (107) 
3

>  <r_i_glide_eff_state_penalty>  (107) 
0

>  <ligand_id>  (107) 
33

>  <original_smiles>  (107) 
C=C1C(=O)C(=O)C2=C(C(=O)OC)C3=CC4(C)OC(C2C)C(C)C3(O)C14

>  <smiles>  (107) 
[H]C([H])=C1C(=O)C(=O)C2=C(C(=O)OC([H])([H])[H])C3=C([H])C4(C([H])([H])[H])OC([H])(C2([H])C([H])([H])[H])C([H])(C([H])([H])[H])C3([O-])C14[H]

$$$$
33:0:2
     RDKit          3D

 44 47  0  0  1  0  0  0  0  0999 V2000
    2.2517   -1.9908    1.9196 C   0  0  0  0  0  0  0  0  0  0  0  0
    2.9368   -3.0774    2.3209 C   0  0  0  0  0  0  0  0  0  0  0  0
    3.3276   -3.0782    3.9484 C   0  0  0  0  0  0  0  0  0  0  0  0
    3.0815   -2.0699    4.6101 O   0  0  0  0  0  0  0  0  0  0  0  0
    4.1183   -4.3312    4.9061 C   0  0  0  0  0  0  0  0  0  0  0  0
    4.7906   -3.9495    5.8628 O   0  0  0  0  0  0  0  0  0  0  0  0
    4.0458   -5.9070    4.5387 C   0  0  0  0  0  0  0  0  0  0  0  0
    2.9290   -5.9647    3.8567 C   0  0  0  0  0  0  0  0  0  0  0  0
    1.5618   -5.7968    4.4832 C   0  0  0  0  0  0  0  0  0  0  0  0
    0.5409   -5.4248    3.9110 O   0  0  0  0  0  0  0  0  0  0  0  0
    1.5824   -6.1007    5.7958 O   0  0  0  0  0  0  0  0  0  0  0  0
    0.3809   -6.0345    6.5440 C   0  0  0  0  0  0  0  0  0  0  0  0
    3.3659   -5.4943    2.5578 C   0  0  0  0  0  0  0  0  0  0  0  0
    4.6080   -4.8272    2.2803 C   0  0  0  0  0  0  0  0  0  0  0  0
    4.8906   -4.7499    0.9722 C   0  0  1  0  0  0  0  0  0  0  0  0
    5.8952   -3.6617    0.5739 C   0  0  0  0  0  0  0  0  0  0  0  0
    5.5850   -6.0920    1.0691 O   0  0  0  0  0  0  0  0  0  0  0  0
    5.0742   -7.1703    2.0120 C   0  0  1  0  0  0  0  0  0  0  0  0
    5.1793   -6.8669    3.7456 C   0  0  1  0  0  0  0  0  0  0  0  0
    6.6277   -6.5801    4.1825 C   0  0  0  0  0  0  0  0  0  0  0  0
    3.6210   -7.1858    1.2566 C   0  0  1  0  0  0  0  0  0  0  0  0
    2.8361   -8.4514    1.6845 C   0  0  0  0  0  0  0  0  0  0  0  0
    2.7814   -5.7757    1.3172 C   0  0  1  0  0  0  0  0  0  0  0  0
    1.4711   -5.8550    1.2346 O   0  0  0  0  0  0  0  0  0  0  0  0
    3.3496   -4.2905    1.0958 C   0  0  1  0  0  0  0  0  0  0  0  0
    1.9543   -1.8766    0.8884 H   0  0  0  0  0  0  0  0  0  0  0  0
    1.9738   -1.1984    2.6013 H   0  0  0  0  0  0  0  0  0  0  0  0
    0.5758   -6.2908    7.5841 H   0  0  0  0  0  0  0  0  0  0  0  0
   -0.3547   -6.7371    6.1513 H   0  0  0  0  0  0  0  0  0  0  0  0
   -0.0457   -5.0312    6.5133 H   0  0  0  0  0  0  0  0  0  0  0  0
    5.4229   -4.4817    2.8976 H   0  0  0  0  0  0  0  0  0  0  0  0
    5.5509   -2.6584    0.8222 H   0  0  0  0  0  0  0  0  0  0  0  0
    6.0702   -3.7079   -0.5001 H   0  0  0  0  0  0  0  0  0  0  0  0
    6.8589   -3.8271    1.0598 H   0  0  0  0  0  0  0  0  0  0  0  0
    5.6227   -8.0847    1.7883 H   0  0  0  0  0  0  0  0  0  0  0  0
    4.9489   -7.8408    4.1708 H   0  0  0  0  0  0  0  0  0  0  0  0
    6.7482   -6.7328    5.2540 H   0  0  0  0  0  0  0  0  0  0  0  0
    6.9458   -5.5641    3.9552 H   0  0  0  0  0  0  0  0  0  0  0  0
    7.3167   -7.2562    3.6778 H   0  0  0  0  0  0  0  0  0  0  0  0
    3.8272   -7.3506    0.2006 H   0  0  0  0  0  0  0  0  0  0  0  0
    2.5611   -8.4420    2.7410 H   0  0  0  0  0  0  0  0  0  0  0  0
    3.4465   -9.3452    1.5274 H   0  0  0  0  0  0  0  0  0  0  0  0
    1.9233   -8.5959    1.1024 H   0  0  0  0  0  0  0  0  0  0  0  0
    3.0205   -3.9124    0.1249 H   0  0  0  0  0  0  0  0  0  0  0  0
  1  2  2  0
  1 26  1  0
  1 27  1  0
  2 25  1  0
  2  3  1  0
  3  4  2  0
  3  5  1  0
  5  6  2  0
  5  7  1  0
  7 19  1  0
  7  8  2  0
  8  9  1  0
  8 13  1  0
  9 10  2  0
  9 11  1  0
 11 12  1  0
 12 28  1  0
 12 29  1  0
 12 30  1  0
 13 23  1  0
 13 14  2  0
 14 15  1  0
 14 31  1  0
 15 25  1  0
 15 16  1  1
 15 17  1  0
 16 32  1  0
 16 33  1  0
 16 34  1  0
 17 18  1  0
 18 19  1  0
 18 21  1  0
 18 35  1  1
 19 20  1  0
 19 36  1  1
 20 37  1  0
 20 38  1  0
 20 39  1  0
 21 22  1  0
 21 23  1  0
 21 40  1  6
 22 41  1  0
 22 42  1  0
 22 43  1  0
 23 24  1  1
 23 25  1  0
 25 44  1  6
M  CHG  1  24  -1
M  END
>  <i_m_ct_stereo_status>  (108) 
1

>  <s_m_source_file>  (108) 
/var/tmp/pbs.5076255.sched01/tmp7c02qu8j/38qwqhi24o.sdf

>  <i_m_source_file_index>  (108) 
9

>  <i_lp_mmshare_version>  (108) 
48012

>  <i_f3d_flags>  (108) 
0

>  <s_epik_input>  (108) 
W0NIMl09QzFDKD1PKUMoPU8pQyhbQ0BIXShbQ0gzXSlbQ0BIXShPMilbQ0BIXTNbQ0gzXSk9QyhDKD1PKU9bQ0gzXSlDKD1bQ0hdNClDMyhbT0hdKVtDQEBIXTFbQ0BdMjRbQ0gzXQ==

>  <s_epik_cmdline>  (108) 
J2VwaWtfcHl0aG9uJywgJy1waHQnLCAnMi4wJywgJy1waCcsICc3LjAnLCAnLXRuJywgJzgnLCAnLW1hJywgJzIwMCcsICctaW1hZScsICc8aW5maWxlLm1hZT4nLCAnLW9tYWUnLCAnPG91dGZpbGUubWFlPic=

>  <r_epik_Ionization_Penalty>  (108) 
0.232885

>  <r_epik_Ionization_Penalty_Charging>  (108) 
0.232885

>  <r_epik_Ionization_Penalty_Neutral>  (108) 
2.63117e-16

>  <r_epik_State_Penalty>  (108) 
0.2236

>  <r_epik_Charging_Adjusted_Penalty>  (108) 
0.456485

>  <i_epik_Tot_Q>  (108) 
-1

>  <i_epik_Tot_abs_Q>  (108) 
1

>  <s_epik_Chemistry_Notes>  (108) 
This compound has an ester and may undergo hydrolysis at high or low pH.

>  <s_lp_Force_Field>  (108) 
OPLS3e

>  <r_lp_Energy>  (108) 
480.923

>  <b_lp_Chiralities_Consistent>  (108) 
1

>  <s_lp_Variant>  (108) 
33:0-1

>  <s_i_glide_gridfile>  (108) 
pfpi4k_grid

>  <i_i_glide_lignum>  (108) 
9

>  <i_i_glide_rotatable_bonds>  (108) 
2

>  <r_i_docking_score>  (108) 
-2.46499

>  <r_i_glide_ligand_efficiency>  (108) 
-0.0985998

>  <r_i_glide_ligand_efficiency_sa>  (108) 
-0.288307

>  <r_i_glide_ligand_efficiency_ln>  (108) 
-0.584277

>  <r_i_glide_gscore>  (108) 
-2.46499

>  <r_i_glide_lipo>  (108) 
-0.240765

>  <r_i_glide_hbond>  (108) 
-0.177161

>  <r_i_glide_metal>  (108) 
-0

>  <r_i_glide_rewards>  (108) 
-1.06807

>  <r_i_glide_evdw>  (108) 
-19.3115

>  <r_i_glide_ecoul>  (108) 
-1.14282

>  <r_i_glide_erotb>  (108) 
0.160946

>  <r_i_glide_esite>  (108) 
-0.00294537

>  <r_i_glide_emodel>  (108) 
-26.9392

>  <r_i_glide_energy>  (108) 
-20.4544

>  <r_i_glide_einternal>  (108) 
0.0176298

>  <r_i_glide_intrahb_reward>  (108) 
-0

>  <i_i_glide_confnum>  (108) 
1

>  <i_i_glide_posenum>  (108) 
34

>  <r_i_glide_eff_state_penalty>  (108) 
0

>  <ligand_id>  (108) 
33

>  <original_smiles>  (108) 
C=C1C(=O)C(=O)C2=C(C(=O)OC)C3=CC4(C)OC(C2C)C(C)C3(O)C14

>  <smiles>  (108) 
[H]C([H])=C1C(=O)C(=O)C2=C(C(=O)OC([H])([H])[H])C3=C([H])C4(C([H])([H])[H])OC([H])(C2([H])C([H])([H])[H])C([H])(C([H])([H])[H])C3([O-])C14[H]

$$$$
33:1:0
     RDKit          3D

 45 48  0  0  1  0  0  0  0  0999 V2000
    1.9222    1.7582    2.1856 C   0  0  0  0  0  0  0  0  0  0  0  0
    1.3398    1.9151    3.3833 C   0  0  0  0  0  0  0  0  0  0  0  0
   -0.1378    1.2312    3.5219 C   0  0  0  0  0  0  0  0  0  0  0  0
   -0.5932    0.5693    2.5879 O   0  0  0  0  0  0  0  0  0  0  0  0
   -1.1820    1.3064    4.8829 C   0  0  0  0  0  0  0  0  0  0  0  0
   -1.7776    0.2767    5.2035 O   0  0  0  0  0  0  0  0  0  0  0  0
   -1.3390    2.6295    5.7264 C   0  0  0  0  0  0  0  0  0  0  0  0
   -1.1266    3.6194    4.9043 C   0  0  0  0  0  0  0  0  0  0  0  0
   -1.9425    3.9673    3.6856 C   0  0  0  0  0  0  0  0  0  0  0  0
   -1.7258    4.9300    2.9502 O   0  0  0  0  0  0  0  0  0  0  0  0
   -3.0190    3.1777    3.5533 O   0  0  0  0  0  0  0  0  0  0  0  0
   -3.8989    3.3510    2.4576 C   0  0  0  0  0  0  0  0  0  0  0  0
    0.2960    3.6072    4.9051 C   0  0  0  0  0  0  0  0  0  0  0  0
    0.9565    4.6033    4.3526 C   0  0  0  0  0  0  0  0  0  0  0  0
    2.1706    4.2752    4.9982 C   0  0  1  0  0  0  0  0  0  0  0  0
    3.3852    5.1119    4.5904 C   0  0  0  0  0  0  0  0  0  0  0  0
    1.7346    4.6810    6.4390 O   0  0  0  0  0  0  0  0  0  0  0  0
    0.8910    3.7592    7.3409 C   0  0  1  0  0  0  0  0  0  0  0  0
   -0.6530    2.9960    7.1713 C   0  0  1  0  0  0  0  0  0  0  0  0
   -1.6675    3.7838    8.0196 C   0  0  0  0  0  0  0  0  0  0  0  0
    1.8900    2.7136    7.1182 C   0  0  1  0  0  0  0  0  0  0  0  0
    1.9478    1.6445    8.2578 C   0  0  0  0  0  0  0  0  0  0  0  0
    1.3559    2.4457    5.6760 C   0  0  1  0  0  0  0  0  0  0  0  0
    1.3086    1.0062    5.8122 O   0  0  0  0  0  0  0  0  0  0  0  0
    2.2165    2.6708    4.5875 C   0  0  1  0  0  0  0  0  0  0  0  0
    2.9180    2.1391    2.0027 H   0  0  0  0  0  0  0  0  0  0  0  0
    1.4273    1.2545    1.3615 H   0  0  0  0  0  0  0  0  0  0  0  0
   -4.6605    2.5851    2.4807 H   0  0  0  0  0  0  0  0  0  0  0  0
   -3.3854    3.2410    1.5095 H   0  0  0  0  0  0  0  0  0  0  0  0
   -4.3810    4.3321    2.4800 H   0  0  0  0  0  0  0  0  0  0  0  0
    0.6598    5.5112    3.8564 H   0  0  0  0  0  0  0  0  0  0  0  0
    3.6394    4.9969    3.5354 H   0  0  0  0  0  0  0  0  0  0  0  0
    4.2520    4.8214    5.1852 H   0  0  0  0  0  0  0  0  0  0  0  0
    3.2082    6.1676    4.7906 H   0  0  0  0  0  0  0  0  0  0  0  0
    0.9878    4.1440    8.3581 H   0  0  0  0  0  0  0  0  0  0  0  0
   -0.6260    2.0338    7.6714 H   0  0  0  0  0  0  0  0  0  0  0  0
   -2.6187    3.2598    8.1047 H   0  0  0  0  0  0  0  0  0  0  0  0
   -1.8620    4.7740    7.6083 H   0  0  0  0  0  0  0  0  0  0  0  0
   -1.2937    3.9327    9.0326 H   0  0  0  0  0  0  0  0  0  0  0  0
    2.9249    3.0765    7.1037 H   0  0  0  0  0  0  0  0  0  0  0  0
    1.0300    1.0881    8.4369 H   0  0  0  0  0  0  0  0  0  0  0  0
    2.2023    2.1378    9.1965 H   0  0  0  0  0  0  0  0  0  0  0  0
    2.7374    0.9161    8.0775 H   0  0  0  0  0  0  0  0  0  0  0  0
    2.1963    0.6730    5.8416 H   0  0  0  0  0  0  0  0  0  0  0  0
    3.2062    2.2266    4.7127 H   0  0  0  0  0  0  0  0  0  0  0  0
  1  2  2  0
  1 26  1  0
  1 27  1  0
  2 25  1  0
  2  3  1  0
  3  4  2  0
  3  5  1  0
  5  6  2  0
  5  7  1  0
  7 19  1  0
  7  8  2  0
  8  9  1  0
  8 13  1  0
  9 10  2  0
  9 11  1  0
 11 12  1  0
 12 28  1  0
 12 29  1  0
 12 30  1  0
 13 23  1  0
 13 14  2  0
 14 15  1  0
 14 31  1  0
 15 25  1  0
 15 16  1  6
 15 17  1  0
 16 32  1  0
 16 33  1  0
 16 34  1  0
 17 18  1  0
 18 19  1  0
 18 21  1  0
 18 35  1  1
 19 20  1  0
 19 36  1  1
 20 37  1  0
 20 38  1  0
 20 39  1  0
 21 22  1  0
 21 23  1  0
 21 40  1  6
 22 41  1  0
 22 42  1  0
 22 43  1  0
 23 24  1  1
 23 25  1  0
 24 44  1  0
 25 45  1  1
M  END
>  <i_m_ct_stereo_status>  (109) 
1

>  <s_m_source_file>  (109) 
/var/tmp/pbs.5076255.sched01/tmp7c02qu8j/38qwqhi24o.sdf

>  <i_m_source_file_index>  (109) 
10

>  <i_lp_mmshare_version>  (109) 
48012

>  <i_f3d_flags>  (109) 
0

>  <s_epik_input>  (109) 
W0NIMl09QzFDKD1PKUMoPU8pQyhbQ0BIXShbQ0gzXSlbQ0BIXShPMilbQ0BIXTNbQ0gzXSk9QyhDKD1PKU9bQ0gzXSlDKD1bQ0hdNClDMyhbT0hdKVtDQEBIXTFbQ0BdMjRbQ0gzXQ==

>  <s_epik_cmdline>  (109) 
J2VwaWtfcHl0aG9uJywgJy1waHQnLCAnMi4wJywgJy1waCcsICc3LjAnLCAnLXRuJywgJzgnLCAnLW1hJywgJzIwMCcsICctaW1hZScsICc8aW5maWxlLm1hZT4nLCAnLW9tYWUnLCAnPG91dGZpbGUubWFlPic=

>  <r_epik_Ionization_Penalty>  (109) 
0.665886

>  <r_epik_Ionization_Penalty_Charging>  (109) 
0

>  <r_epik_Ionization_Penalty_Neutral>  (109) 
0.665886

>  <r_epik_State_Penalty>  (109) 
0.685647

>  <r_epik_Charging_Adjusted_Penalty>  (109) 
0.685647

>  <i_epik_Tot_Q>  (109) 
0

>  <i_epik_Tot_abs_Q>  (109) 
0

>  <s_epik_Chemistry_Notes>  (109) 
This compound has an ester and may undergo hydrolysis at high or low pH.

>  <s_lp_Force_Field>  (109) 
OPLS3e

>  <r_lp_Energy>  (109) 
410.623

>  <b_lp_Chiralities_Consistent>  (109) 
1

>  <s_lp_Variant>  (109) 
33:0-2

>  <s_i_glide_gridfile>  (109) 
pfpi4k_grid

>  <i_i_glide_lignum>  (109) 
10

>  <i_i_glide_rotatable_bonds>  (109) 
3

>  <r_i_docking_score>  (109) 
-2.82623

>  <r_i_glide_ligand_efficiency>  (109) 
-0.113049

>  <r_i_glide_ligand_efficiency_sa>  (109) 
-0.330558

>  <r_i_glide_ligand_efficiency_ln>  (109) 
-0.669901

>  <r_i_glide_gscore>  (109) 
-2.82623

>  <r_i_glide_lipo>  (109) 
-0.192185

>  <r_i_glide_hbond>  (109) 
-0.16

>  <r_i_glide_metal>  (109) 
-0

>  <r_i_glide_rewards>  (109) 
-1.06119

>  <r_i_glide_evdw>  (109) 
-24.2269

>  <r_i_glide_ecoul>  (109) 
-1.50975

>  <r_i_glide_erotb>  (109) 
0.160111

>  <r_i_glide_esite>  (109) 
-0.135154

>  <r_i_glide_emodel>  (109) 
-28.9106

>  <r_i_glide_energy>  (109) 
-25.7367

>  <r_i_glide_einternal>  (109) 
2.35349

>  <r_i_glide_intrahb_reward>  (109) 
-0

>  <i_i_glide_confnum>  (109) 
4

>  <i_i_glide_posenum>  (109) 
10

>  <r_i_glide_eff_state_penalty>  (109) 
0

>  <ligand_id>  (109) 
33

>  <original_smiles>  (109) 
C=C1C(=O)C(=O)C2=C(C(=O)OC)C3=CC4(C)OC(C2C)C(C)C3(O)C14

>  <smiles>  (109) 
[H]OC12C3=C([H])C4(C([H])([H])[H])OC([H])(C([H])(C([H])([H])[H])C(=C3C(=O)OC([H])([H])[H])C(=O)C(=O)C(=C([H])[H])C41[H])C2([H])C([H])([H])[H]

$$$$
33:1:1
     RDKit          3D

 45 48  0  0  1  0  0  0  0  0999 V2000
    2.5387   -0.2838    7.2940 C   0  0  0  0  0  0  0  0  0  0  0  0
    1.4517    0.2894    6.7455 C   0  0  0  0  0  0  0  0  0  0  0  0
    0.5179   -0.7115    5.8506 C   0  0  0  0  0  0  0  0  0  0  0  0
    0.7600   -1.9235    5.8416 O   0  0  0  0  0  0  0  0  0  0  0  0
   -0.8589   -0.2831    4.9189 C   0  0  0  0  0  0  0  0  0  0  0  0
   -1.8125   -1.0585    4.9511 O   0  0  0  0  0  0  0  0  0  0  0  0
   -0.9424    1.0756    4.1162 C   0  0  0  0  0  0  0  0  0  0  0  0
    0.2842    1.3698    3.7895 C   0  0  0  0  0  0  0  0  0  0  0  0
    1.1267    0.5461    2.8547 C   0  0  0  0  0  0  0  0  0  0  0  0
    0.6417   -0.2746    2.0807 O   0  0  0  0  0  0  0  0  0  0  0  0
    2.4493    0.7872    2.9405 O   0  0  0  0  0  0  0  0  0  0  0  0
    3.3431    0.1406    2.0477 C   0  0  0  0  0  0  0  0  0  0  0  0
    0.7297    1.9343    5.0169 C   0  0  0  0  0  0  0  0  0  0  0  0
    1.8660    2.5855    5.0576 C   0  0  0  0  0  0  0  0  0  0  0  0
    1.5689    3.2322    6.2687 C   0  0  1  0  0  0  0  0  0  0  0  0
    2.7080    4.0684    6.8508 C   0  0  0  0  0  0  0  0  0  0  0  0
    0.4669    4.1771    5.7092 O   0  0  0  0  0  0  0  0  0  0  0  0
   -0.9844    3.7128    5.4799 C   0  0  1  0  0  0  0  0  0  0  0  0
   -1.7127    2.4521    4.5526 C   0  0  1  0  0  0  0  0  0  0  0  0
   -2.3335    3.0807    3.2933 C   0  0  0  0  0  0  0  0  0  0  0  0
   -1.0040    3.2637    6.8744 C   0  0  1  0  0  0  0  0  0  0  0  0
   -2.4315    3.2148    7.5077 C   0  0  0  0  0  0  0  0  0  0  0  0
   -0.1391    2.0079    6.5343 C   0  0  1  0  0  0  0  0  0  0  0  0
   -0.9735    1.0636    7.2552 O   0  0  0  0  0  0  0  0  0  0  0  0
    1.1284    1.8829    7.1313 C   0  0  1  0  0  0  0  0  0  0  0  0
    3.2055    0.2774    7.9350 H   0  0  0  0  0  0  0  0  0  0  0  0
    2.7841   -1.3243    7.1234 H   0  0  0  0  0  0  0  0  0  0  0  0
    4.3634    0.4517    2.2697 H   0  0  0  0  0  0  0  0  0  0  0  0
    3.1290    0.4053    1.0104 H   0  0  0  0  0  0  0  0  0  0  0  0
    3.2908   -0.9441    2.1523 H   0  0  0  0  0  0  0  0  0  0  0  0
    2.6090    2.8304    4.3173 H   0  0  0  0  0  0  0  0  0  0  0  0
    3.5831    3.4693    7.1012 H   0  0  0  0  0  0  0  0  0  0  0  0
    2.3679    4.5785    7.7516 H   0  0  0  0  0  0  0  0  0  0  0  0
    3.0106    4.8411    6.1435 H   0  0  0  0  0  0  0  0  0  0  0  0
   -1.5835    4.6143    5.3704 H   0  0  0  0  0  0  0  0  0  0  0  0
   -2.5815    2.0856    5.0884 H   0  0  0  0  0  0  0  0  0  0  0  0
   -2.9665    2.3709    2.7637 H   0  0  0  0  0  0  0  0  0  0  0  0
   -1.5709    3.4303    2.5945 H   0  0  0  0  0  0  0  0  0  0  0  0
   -2.9603    3.9307    3.5513 H   0  0  0  0  0  0  0  0  0  0  0  0
   -0.4812    3.9367    7.5649 H   0  0  0  0  0  0  0  0  0  0  0  0
   -3.1475    2.5579    7.0181 H   0  0  0  0  0  0  0  0  0  0  0  0
   -2.8623    4.2144    7.4896 H   0  0  0  0  0  0  0  0  0  0  0  0
   -2.3880    2.9324    8.5597 H   0  0  0  0  0  0  0  0  0  0  0  0
   -1.0228    1.3634    8.1542 H   0  0  0  0  0  0  0  0  0  0  0  0
    1.1213    2.0520    8.2072 H   0  0  0  0  0  0  0  0  0  0  0  0
  1  2  2  0
  1 26  1  0
  1 27  1  0
  2 25  1  0
  2  3  1  0
  3  4  2  0
  3  5  1  0
  5  6  2  0
  5  7  1  0
  7 19  1  0
  7  8  2  0
  8  9  1  0
  8 13  1  0
  9 10  2  0
  9 11  1  0
 11 12  1  0
 12 28  1  0
 12 29  1  0
 12 30  1  0
 13 23  1  0
 13 14  2  0
 14 15  1  0
 14 31  1  0
 15 25  1  0
 15 16  1  1
 15 17  1  0
 16 32  1  0
 16 33  1  0
 16 34  1  0
 17 18  1  0
 18 19  1  0
 18 21  1  0
 18 35  1  1
 19 20  1  0
 19 36  1  1
 20 37  1  0
 20 38  1  0
 20 39  1  0
 21 22  1  0
 21 23  1  0
 21 40  1  1
 22 41  1  0
 22 42  1  0
 22 43  1  0
 23 24  1  6
 23 25  1  0
 24 44  1  0
 25 45  1  1
M  END
>  <i_m_ct_stereo_status>  (110) 
1

>  <s_m_source_file>  (110) 
/var/tmp/pbs.5076255.sched01/tmp7c02qu8j/38qwqhi24o.sdf

>  <i_m_source_file_index>  (110) 
10

>  <i_lp_mmshare_version>  (110) 
48012

>  <i_f3d_flags>  (110) 
0

>  <s_epik_input>  (110) 
W0NIMl09QzFDKD1PKUMoPU8pQyhbQ0BIXShbQ0gzXSlbQ0BIXShPMilbQ0BIXTNbQ0gzXSk9QyhDKD1PKU9bQ0gzXSlDKD1bQ0hdNClDMyhbT0hdKVtDQEBIXTFbQ0BdMjRbQ0gzXQ==

>  <s_epik_cmdline>  (110) 
J2VwaWtfcHl0aG9uJywgJy1waHQnLCAnMi4wJywgJy1waCcsICc3LjAnLCAnLXRuJywgJzgnLCAnLW1hJywgJzIwMCcsICctaW1hZScsICc8aW5maWxlLm1hZT4nLCAnLW9tYWUnLCAnPG91dGZpbGUubWFlPic=

>  <r_epik_Ionization_Penalty>  (110) 
0.665886

>  <r_epik_Ionization_Penalty_Charging>  (110) 
0

>  <r_epik_Ionization_Penalty_Neutral>  (110) 
0.665886

>  <r_epik_State_Penalty>  (110) 
0.685647

>  <r_epik_Charging_Adjusted_Penalty>  (110) 
0.685647

>  <i_epik_Tot_Q>  (110) 
0

>  <i_epik_Tot_abs_Q>  (110) 
0

>  <s_epik_Chemistry_Notes>  (110) 
This compound has an ester and may undergo hydrolysis at high or low pH.

>  <s_lp_Force_Field>  (110) 
OPLS3e

>  <r_lp_Energy>  (110) 
410.623

>  <b_lp_Chiralities_Consistent>  (110) 
1

>  <s_lp_Variant>  (110) 
33:0-2

>  <s_i_glide_gridfile>  (110) 
pfpi4k_grid

>  <i_i_glide_lignum>  (110) 
10

>  <i_i_glide_rotatable_bonds>  (110) 
3

>  <r_i_docking_score>  (110) 
-2.38981

>  <r_i_glide_ligand_efficiency>  (110) 
-0.0955924

>  <r_i_glide_ligand_efficiency_sa>  (110) 
-0.279514

>  <r_i_glide_ligand_efficiency_ln>  (110) 
-0.566457

>  <r_i_glide_gscore>  (110) 
-2.38981

>  <r_i_glide_lipo>  (110) 
-0.145317

>  <r_i_glide_hbond>  (110) 
0

>  <r_i_glide_metal>  (110) 
-0

>  <r_i_glide_rewards>  (110) 
-1.06119

>  <r_i_glide_evdw>  (110) 
-23.8929

>  <r_i_glide_ecoul>  (110) 
-0.561076

>  <r_i_glide_erotb>  (110) 
0.160111

>  <r_i_glide_esite>  (110) 
-0.0646041

>  <r_i_glide_emodel>  (110) 
-27.932

>  <r_i_glide_energy>  (110) 
-24.454

>  <r_i_glide_einternal>  (110) 
0.822396

>  <r_i_glide_intrahb_reward>  (110) 
-0

>  <i_i_glide_confnum>  (110) 
2

>  <i_i_glide_posenum>  (110) 
28

>  <r_i_glide_eff_state_penalty>  (110) 
0

>  <ligand_id>  (110) 
33

>  <original_smiles>  (110) 
C=C1C(=O)C(=O)C2=C(C(=O)OC)C3=CC4(C)OC(C2C)C(C)C3(O)C14

>  <smiles>  (110) 
[H]OC12C3=C([H])C4(C([H])([H])[H])OC([H])(C([H])(C([H])([H])[H])C(=C3C(=O)OC([H])([H])[H])C(=O)C(=O)C(=C([H])[H])C41[H])C2([H])C([H])([H])[H]

$$$$
33:1:2
     RDKit          3D

 45 48  0  0  1  0  0  0  0  0999 V2000
    1.6414    1.8500    2.2033 C   0  0  0  0  0  0  0  0  0  0  0  0
    1.2767    1.5985    3.4721 C   0  0  0  0  0  0  0  0  0  0  0  0
   -0.2077    0.9299    3.6456 C   0  0  0  0  0  0  0  0  0  0  0  0
   -0.8420    0.5917    2.6456 O   0  0  0  0  0  0  0  0  0  0  0  0
   -1.0278    0.6015    5.1243 C   0  0  0  0  0  0  0  0  0  0  0  0
   -1.6769   -0.4428    5.1926 O   0  0  0  0  0  0  0  0  0  0  0  0
   -0.9285    1.5662    6.3744 C   0  0  0  0  0  0  0  0  0  0  0  0
   -0.7578    2.7627    5.8849 C   0  0  0  0  0  0  0  0  0  0  0  0
   -1.7671    3.4583    5.0230 C   0  0  0  0  0  0  0  0  0  0  0  0
   -2.9826    3.3330    5.1939 O   0  0  0  0  0  0  0  0  0  0  0  0
   -1.2411    4.1965    4.0417 O   0  0  0  0  0  0  0  0  0  0  0  0
   -2.0122    4.5124    2.8962 C   0  0  0  0  0  0  0  0  0  0  0  0
    0.6357    2.7075    5.6123 C   0  0  0  0  0  0  0  0  0  0  0  0
    1.2762    3.8157    5.3178 C   0  0  0  0  0  0  0  0  0  0  0  0
    2.5438    3.2705    5.5930 C   0  0  1  0  0  0  0  0  0  0  0  0
    3.7251    4.1828    5.2628 C   0  0  0  0  0  0  0  0  0  0  0  0
    2.3762    3.1833    7.1392 O   0  0  0  0  0  0  0  0  0  0  0  0
    1.6213    2.0285    7.8279 C   0  0  1  0  0  0  0  0  0  0  0  0
    0.0176    1.3966    7.6986 C   0  0  1  0  0  0  0  0  0  0  0  0
   -0.7866    1.8662    8.9198 C   0  0  0  0  0  0  0  0  0  0  0  0
    2.4877    1.1005    7.0985 C   0  0  1  0  0  0  0  0  0  0  0  0
    2.6544   -0.2865    7.7968 C   0  0  0  0  0  0  0  0  0  0  0  0
    1.7088    1.3360    5.7643 C   0  0  1  0  0  0  0  0  0  0  0  0
    1.5642   -0.0664    5.4380 O   0  0  0  0  0  0  0  0  0  0  0  0
    2.3962    1.8954    4.6751 C   0  0  1  0  0  0  0  0  0  0  0  0
    2.6148    2.2680    1.9809 H   0  0  0  0  0  0  0  0  0  0  0  0
    0.9770    1.6568    1.3684 H   0  0  0  0  0  0  0  0  0  0  0  0
   -1.4430    5.1864    2.2556 H   0  0  0  0  0  0  0  0  0  0  0  0
   -2.9616    4.9922    3.1378 H   0  0  0  0  0  0  0  0  0  0  0  0
   -2.2180    3.5977    2.3416 H   0  0  0  0  0  0  0  0  0  0  0  0
    0.9696    4.8423    5.2300 H   0  0  0  0  0  0  0  0  0  0  0  0
    3.7875    4.4217    4.1995 H   0  0  0  0  0  0  0  0  0  0  0  0
    4.6562    3.7033    5.5653 H   0  0  0  0  0  0  0  0  0  0  0  0
    3.6509    5.1150    5.8232 H   0  0  0  0  0  0  0  0  0  0  0  0
    1.9098    2.0524    8.8815 H   0  0  0  0  0  0  0  0  0  0  0  0
    0.0538    0.3221    7.8307 H   0  0  0  0  0  0  0  0  0  0  0  0
   -1.7445    1.3528    8.9888 H   0  0  0  0  0  0  0  0  0  0  0  0
   -0.9840    2.9400    8.8847 H   0  0  0  0  0  0  0  0  0  0  0  0
   -0.2424    1.6622    9.8401 H   0  0  0  0  0  0  0  0  0  0  0  0
    3.5306    1.4331    7.0216 H   0  0  0  0  0  0  0  0  0  0  0  0
    1.7382   -0.8561    7.9415 H   0  0  0  0  0  0  0  0  0  0  0  0
    3.0936   -0.1373    8.7829 H   0  0  0  0  0  0  0  0  0  0  0  0
    3.3479   -0.9213    7.2457 H   0  0  0  0  0  0  0  0  0  0  0  0
    2.4251   -0.4204    5.2456 H   0  0  0  0  0  0  0  0  0  0  0  0
    3.3535    1.4138    4.4743 H   0  0  0  0  0  0  0  0  0  0  0  0
  1  2  2  0
  1 26  1  0
  1 27  1  0
  2 25  1  0
  2  3  1  0
  3  4  2  0
  3  5  1  0
  5  6  2  0
  5  7  1  0
  7 19  1  0
  7  8  2  0
  8  9  1  0
  8 13  1  0
  9 10  2  0
  9 11  1  0
 11 12  1  0
 12 28  1  0
 12 29  1  0
 12 30  1  0
 13 23  1  0
 13 14  2  0
 14 15  1  0
 14 31  1  0
 15 25  1  0
 15 16  1  1
 15 17  1  0
 16 32  1  0
 16 33  1  0
 16 34  1  0
 17 18  1  0
 18 19  1  0
 18 21  1  0
 18 35  1  1
 19 20  1  0
 19 36  1  1
 20 37  1  0
 20 38  1  0
 20 39  1  0
 21 22  1  0
 21 23  1  0
 21 40  1  6
 22 41  1  0
 22 42  1  0
 22 43  1  0
 23 24  1  6
 23 25  1  0
 24 44  1  0
 25 45  1  6
M  END
>  <i_m_ct_stereo_status>  (111) 
1

>  <s_m_source_file>  (111) 
/var/tmp/pbs.5076255.sched01/tmp7c02qu8j/38qwqhi24o.sdf

>  <i_m_source_file_index>  (111) 
10

>  <i_lp_mmshare_version>  (111) 
48012

>  <i_f3d_flags>  (111) 
0

>  <s_epik_input>  (111) 
W0NIMl09QzFDKD1PKUMoPU8pQyhbQ0BIXShbQ0gzXSlbQ0BIXShPMilbQ0BIXTNbQ0gzXSk9QyhDKD1PKU9bQ0gzXSlDKD1bQ0hdNClDMyhbT0hdKVtDQEBIXTFbQ0BdMjRbQ0gzXQ==

>  <s_epik_cmdline>  (111) 
J2VwaWtfcHl0aG9uJywgJy1waHQnLCAnMi4wJywgJy1waCcsICc3LjAnLCAnLXRuJywgJzgnLCAnLW1hJywgJzIwMCcsICctaW1hZScsICc8aW5maWxlLm1hZT4nLCAnLW9tYWUnLCAnPG91dGZpbGUubWFlPic=

>  <r_epik_Ionization_Penalty>  (111) 
0.665886

>  <r_epik_Ionization_Penalty_Charging>  (111) 
0

>  <r_epik_Ionization_Penalty_Neutral>  (111) 
0.665886

>  <r_epik_State_Penalty>  (111) 
0.685647

>  <r_epik_Charging_Adjusted_Penalty>  (111) 
0.685647

>  <i_epik_Tot_Q>  (111) 
0

>  <i_epik_Tot_abs_Q>  (111) 
0

>  <s_epik_Chemistry_Notes>  (111) 
This compound has an ester and may undergo hydrolysis at high or low pH.

>  <s_lp_Force_Field>  (111) 
OPLS3e

>  <r_lp_Energy>  (111) 
410.623

>  <b_lp_Chiralities_Consistent>  (111) 
1

>  <s_lp_Variant>  (111) 
33:0-2

>  <s_i_glide_gridfile>  (111) 
pfpi4k_grid

>  <i_i_glide_lignum>  (111) 
10

>  <i_i_glide_rotatable_bonds>  (111) 
3

>  <r_i_docking_score>  (111) 
-2.00627

>  <r_i_glide_ligand_efficiency>  (111) 
-0.0802509

>  <r_i_glide_ligand_efficiency_sa>  (111) 
-0.234655

>  <r_i_glide_ligand_efficiency_ln>  (111) 
-0.475547

>  <r_i_glide_gscore>  (111) 
-2.00627

>  <r_i_glide_lipo>  (111) 
0

>  <r_i_glide_hbond>  (111) 
0

>  <r_i_glide_metal>  (111) 
-0

>  <r_i_glide_rewards>  (111) 
-1.06119

>  <r_i_glide_evdw>  (111) 
-21.1672

>  <r_i_glide_ecoul>  (111) 
0.177567

>  <r_i_glide_erotb>  (111) 
0.160111

>  <r_i_glide_esite>  (111) 
-0.0734684

>  <r_i_glide_emodel>  (111) 
-22.8778

>  <r_i_glide_energy>  (111) 
-20.9896

>  <r_i_glide_einternal>  (111) 
2.60446

>  <r_i_glide_intrahb_reward>  (111) 
-0

>  <i_i_glide_confnum>  (111) 
4

>  <i_i_glide_posenum>  (111) 
2

>  <r_i_glide_eff_state_penalty>  (111) 
0

>  <ligand_id>  (111) 
33

>  <original_smiles>  (111) 
C=C1C(=O)C(=O)C2=C(C(=O)OC)C3=CC4(C)OC(C2C)C(C)C3(O)C14

>  <smiles>  (111) 
[H]OC12C3=C([H])C4(C([H])([H])[H])OC([H])(C([H])(C([H])([H])[H])C(=C3C(=O)OC([H])([H])[H])C(=O)C(=O)C(=C([H])[H])C41[H])C2([H])C([H])([H])[H]

$$$$
34:0:0
     RDKit          3D

 63 68  0  0  1  0  0  0  0  0999 V2000
    3.7490   -3.2802   -3.8501 C   0  0  0  0  0  0  0  0  0  0  0  0
    2.6533   -3.1442   -2.7774 C   0  0  0  0  0  0  0  0  0  0  0  0
    3.1165   -3.4309   -1.4679 O   0  0  0  0  0  0  0  0  0  0  0  0
    4.0989   -2.4904   -1.1311 N   0  0  0  0  0  0  0  0  0  0  0  0
    4.0230   -2.1174    0.0775 C   0  0  0  0  0  0  0  0  0  0  0  0
    5.0290   -1.0800    0.5936 C   0  0  0  0  0  0  0  0  0  0  0  0
    4.4012    0.1038    1.3793 C   0  0  0  0  0  0  0  0  0  0  0  0
    3.0027   -0.2264    1.8935 C   0  0  2  0  0  0  0  0  0  0  0  0
    2.1910    0.6776    2.8409 C   0  0  2  0  0  0  0  0  0  0  0  0
    2.7768    1.8530    3.6167 C   0  0  0  0  0  0  0  0  0  0  0  0
    1.5781    2.6987    4.1065 C   0  0  0  0  0  0  0  0  0  0  0  0
    0.3955    1.9096    4.7562 C   0  0  1  0  0  0  0  0  0  0  0  0
   -0.8536    2.8166    4.7917 C   0  0  0  0  0  0  0  0  0  0  0  0
    0.0747    0.4995    4.1361 C   0  0  2  0  0  0  0  0  0  0  0  0
   -0.8440   -0.2912    5.0945 C   0  0  0  0  0  0  0  0  0  0  0  0
   -0.8286   -1.8226    4.9665 C   0  0  0  0  0  0  0  0  0  0  0  0
    0.5744   -2.4590    4.9969 C   0  0  2  0  0  0  0  0  0  0  0  0
    0.5428   -3.8512    5.6394 C   0  0  0  0  0  0  0  0  0  0  0  0
    1.4302   -1.6360    5.7898 O   0  0  0  0  0  0  0  0  0  0  0  0
    2.1142   -0.5457    4.9578 O   0  0  0  0  0  0  0  0  0  0  0  0
    1.3881   -0.2469    3.7693 C   0  0  2  0  0  0  0  0  0  0  0  0
    1.3628   -1.5576    2.9365 C   0  0  2  0  0  0  0  0  0  0  0  0
    1.0584   -2.7090    3.6908 O   0  0  0  0  0  0  0  0  0  0  0  0
    2.7916   -1.6822    2.3179 C   0  0  2  0  0  0  0  0  0  0  0  0
    3.8364   -2.2993    3.3009 C   0  0  0  0  0  0  0  0  0  0  0  0
    3.8685   -3.8059    3.0129 C   0  0  0  0  0  0  0  0  0  0  0  0
    3.2389   -3.9975    1.6308 C   0  0  0  0  0  0  0  0  0  0  0  0
    2.9336   -2.5954    1.0750 C   0  0  2  0  0  0  0  0  0  0  0  0
    3.3277   -3.0740   -4.8286 H   0  0  0  0  0  0  0  0  0  0  0  0
    4.1645   -4.2865   -3.8704 H   0  0  0  0  0  0  0  0  0  0  0  0
    4.5755   -2.5840   -3.7042 H   0  0  0  0  0  0  0  0  0  0  0  0
    2.2138   -2.1464   -2.7971 H   0  0  0  0  0  0  0  0  0  0  0  0
    1.8482   -3.8452   -2.9952 H   0  0  0  0  0  0  0  0  0  0  0  0
    5.7725   -1.5940    1.2036 H   0  0  0  0  0  0  0  0  0  0  0  0
    5.5858   -0.6776   -0.2497 H   0  0  0  0  0  0  0  0  0  0  0  0
    5.0578    0.4098    2.1941 H   0  0  0  0  0  0  0  0  0  0  0  0
    4.3012    0.9472    0.7039 H   0  0  0  0  0  0  0  0  0  0  0  0
    2.4067   -0.1480    0.9795 H   0  0  0  0  0  0  0  0  0  0  0  0
    1.4783    1.1545    2.1597 H   0  0  0  0  0  0  0  0  0  0  0  0
    3.3939    1.5272    4.4512 H   0  0  0  0  0  0  0  0  0  0  0  0
    3.4071    2.4646    2.9755 H   0  0  0  0  0  0  0  0  0  0  0  0
    1.9470    3.4312    4.8279 H   0  0  0  0  0  0  0  0  0  0  0  0
    1.1962    3.2835    3.2657 H   0  0  0  0  0  0  0  0  0  0  0  0
    0.7003    1.7424    5.7868 H   0  0  0  0  0  0  0  0  0  0  0  0
   -1.2132    3.0214    3.7830 H   0  0  0  0  0  0  0  0  0  0  0  0
   -0.6272    3.7783    5.2552 H   0  0  0  0  0  0  0  0  0  0  0  0
   -1.6748    2.3730    5.3530 H   0  0  0  0  0  0  0  0  0  0  0  0
   -0.4749    0.6570    3.2100 H   0  0  0  0  0  0  0  0  0  0  0  0
   -0.5752   -0.0531    6.1222 H   0  0  0  0  0  0  0  0  0  0  0  0
   -1.8712    0.0527    4.9700 H   0  0  0  0  0  0  0  0  0  0  0  0
   -1.4118   -2.2183    5.7990 H   0  0  0  0  0  0  0  0  0  0  0  0
   -1.3605   -2.1312    4.0790 H   0  0  0  0  0  0  0  0  0  0  0  0
    1.5339   -4.3090    5.6086 H   0  0  0  0  0  0  0  0  0  0  0  0
   -0.1404   -4.5186    5.1099 H   0  0  0  0  0  0  0  0  0  0  0  0
    0.2291   -3.8033    6.6838 H   0  0  0  0  0  0  0  0  0  0  0  0
    0.6324   -1.4544    2.1324 H   0  0  0  0  0  0  0  0  0  0  0  0
    4.8317   -1.9009    3.1299 H   0  0  0  0  0  0  0  0  0  0  0  0
    3.6578   -2.1253    4.3562 H   0  0  0  0  0  0  0  0  0  0  0  0
    4.8879   -4.1966    3.0548 H   0  0  0  0  0  0  0  0  0  0  0  0
    3.2848   -4.3470    3.7604 H   0  0  0  0  0  0  0  0  0  0  0  0
    3.8729   -4.5896    0.9711 H   0  0  0  0  0  0  0  0  0  0  0  0
    2.3056   -4.5494    1.7486 H   0  0  0  0  0  0  0  0  0  0  0  0
    1.9847   -2.6144    0.5389 H   0  0  0  0  0  0  0  0  0  0  0  0
  1  2  1  0
  1 29  1  0
  1 30  1  0
  1 31  1  0
  2  3  1  0
  2 32  1  0
  2 33  1  0
  3  4  1  0
  4  5  2  3
  5 28  1  0
  5  6  1  0
  6  7  1  0
  6 34  1  0
  6 35  1  0
  7  8  1  0
  7 36  1  0
  7 37  1  0
  8 24  1  0
  8  9  1  0
  8 38  1  6
  9 21  1  0
  9 10  1  0
  9 39  1  6
 10 11  1  0
 10 40  1  0
 10 41  1  0
 11 12  1  0
 11 42  1  0
 11 43  1  0
 12 13  1  0
 12 14  1  0
 12 44  1  1
 13 45  1  0
 13 46  1  0
 13 47  1  0
 14 21  1  0
 14 15  1  0
 14 48  1  6
 15 16  1  0
 15 49  1  0
 15 50  1  0
 16 17  1  0
 16 51  1  0
 16 52  1  0
 17 23  1  0
 17 18  1  1
 17 19  1  0
 18 53  1  0
 18 54  1  0
 18 55  1  0
 19 20  1  0
 21 20  1  1
 21 22  1  0
 22 23  1  0
 22 24  1  0
 22 56  1  6
 24 28  1  0
 24 25  1  1
 25 26  1  0
 25 57  1  0
 25 58  1  0
 26 27  1  0
 26 59  1  0
 26 60  1  0
 27 28  1  0
 27 61  1  0
 27 62  1  0
 28 63  1  6
M  END
>  <i_m_ct_stereo_status>  (112) 
1

>  <s_m_source_file>  (112) 
/var/tmp/pbs.5076255.sched01/tmp7c02qu8j/38qwqhi24o.sdf

>  <i_m_source_file_index>  (112) 
11

>  <i_lp_mmshare_version>  (112) 
48012

>  <i_f3d_flags>  (112) 
0

>  <s_epik_input>  (112) 
W0NIM11bQ0gyXU8vTj1DKC9bQ0gyXVtDSDJdMSlbQ0BASF0oW0NIMl1bQ0gyXVtDSDJdMilbQ0BAXTIoW0NASF0xW0NASF0zW0NAXTQ1NilbQ0BIXTZPW0NAQF0oW0NIM10pKE9PNSlbQ0gyXVtDSDJdW0NASF00W0NASF0oW0NIM10pW0NIMl1bQ0gyXTM=

>  <s_epik_cmdline>  (112) 
J2VwaWtfcHl0aG9uJywgJy1waHQnLCAnMi4wJywgJy1waCcsICc3LjAnLCAnLXRuJywgJzgnLCAnLW1hJywgJzIwMCcsICctaW1hZScsICc8aW5maWxlLm1hZT4nLCAnLW9tYWUnLCAnPG91dGZpbGUubWFlPic=

>  <r_lp_tautomer_probability>  (112) 
1

>  <r_epik_Ionization_Penalty>  (112) 
5.22728e-08

>  <r_epik_Ionization_Penalty_Charging>  (112) 
0

>  <r_epik_Ionization_Penalty_Neutral>  (112) 
5.22728e-08

>  <r_epik_State_Penalty>  (112) 
-0

>  <r_epik_Charging_Adjusted_Penalty>  (112) 
0

>  <i_epik_Tot_Q>  (112) 
0

>  <i_epik_Tot_abs_Q>  (112) 
0

>  <s_epik_Chemistry_Notes>  (112) 
This compound has an imine and may undergo hydrolysis.

>  <s_lp_Force_Field>  (112) 
OPLS3e

>  <r_lp_Energy>  (112) 
74.2165

>  <b_lp_Chiralities_Consistent>  (112) 
1

>  <s_lp_Variant>  (112) 
34:0-1

>  <s_i_glide_gridfile>  (112) 
pfpi4k_grid

>  <i_i_glide_lignum>  (112) 
11

>  <i_i_glide_rotatable_bonds>  (112) 
2

>  <r_i_docking_score>  (112) 
-2.09265

>  <r_i_glide_ligand_efficiency>  (112) 
-0.0747376

>  <r_i_glide_ligand_efficiency_sa>  (112) 
-0.226947

>  <r_i_glide_ligand_efficiency_ln>  (112) 
-0.483045

>  <r_i_glide_gscore>  (112) 
-2.09265

>  <r_i_glide_lipo>  (112) 
-0.309264

>  <r_i_glide_hbond>  (112) 
0

>  <r_i_glide_metal>  (112) 
-0

>  <r_i_glide_rewards>  (112) 
-0.762321

>  <r_i_glide_evdw>  (112) 
-23.3232

>  <r_i_glide_ecoul>  (112) 
0.400171

>  <r_i_glide_erotb>  (112) 
0.128484

>  <r_i_glide_esite>  (112) 
-0.0434147

>  <r_i_glide_emodel>  (112) 
-23.9633

>  <r_i_glide_energy>  (112) 
-22.9231

>  <r_i_glide_einternal>  (112) 
2.87621

>  <r_i_glide_intrahb_reward>  (112) 
-0

>  <i_i_glide_confnum>  (112) 
1

>  <i_i_glide_posenum>  (112) 
11

>  <r_i_glide_eff_state_penalty>  (112) 
0

>  <ligand_id>  (112) 
34

>  <original_smiles>  (112) 
CCON=C1CCC2C3CCC(C)C4CCC5(C)OOC43C(O5)C23CCCC13

>  <smiles>  (112) 
[H]C([H])([H])C([H])([H])ON=C1C([H])([H])C([H])([H])C2([H])C3([H])C([H])([H])C([H])([H])C([H])(C([H])([H])[H])C4([H])C([H])([H])C([H])([H])C5(C([H])([H])[H])OOC43C([H])(O5)C23C([H])([H])C([H])([H])C([H])([H])C13[H]

$$$$
34:0:1
     RDKit          3D

 63 68  0  0  1  0  0  0  0  0999 V2000
    3.8911   -3.2415   -3.2448 C   0  0  0  0  0  0  0  0  0  0  0  0
    2.6653   -3.0021   -2.3409 C   0  0  0  0  0  0  0  0  0  0  0  0
    2.9679   -3.1294   -0.9587 O   0  0  0  0  0  0  0  0  0  0  0  0
    3.8451   -2.0961   -0.5978 N   0  0  0  0  0  0  0  0  0  0  0  0
    3.7864   -1.8050    0.6353 C   0  0  0  0  0  0  0  0  0  0  0  0
    4.6864   -0.6895    1.1816 C   0  0  0  0  0  0  0  0  0  0  0  0
    3.9672    0.3521    2.0823 C   0  0  0  0  0  0  0  0  0  0  0  0
    2.6462   -0.1721    2.6243 C   0  0  2  0  0  0  0  0  0  0  0  0
    1.7955    0.5670    3.6733 C   0  0  2  0  0  0  0  0  0  0  0  0
    2.2851    1.7531    4.4991 C   0  0  0  0  0  0  0  0  0  0  0  0
    1.0235    2.4191    5.1012 C   0  0  0  0  0  0  0  0  0  0  0  0
   -0.0231    1.4566    5.7484 C   0  0  1  0  0  0  0  0  0  0  0  0
   -1.3653    2.2032    5.9044 C   0  0  0  0  0  0  0  0  0  0  0  0
   -0.2128    0.0635    5.0495 C   0  0  2  0  0  0  0  0  0  0  0  0
   -0.9759   -0.8848    5.9937 C   0  0  0  0  0  0  0  0  0  0  0  0
   -0.8040   -2.3886    5.7424 C   0  0  0  0  0  0  0  0  0  0  0  0
    0.6612   -2.8645    5.6735 C   0  0  2  0  0  0  0  0  0  0  0  0
    0.8250   -4.2879    6.2218 C   0  0  0  0  0  0  0  0  0  0  0  0
    1.4599   -2.0037    6.4845 O   0  0  0  0  0  0  0  0  0  0  0  0
    1.9733   -0.7868    5.7037 O   0  0  0  0  0  0  0  0  0  0  0  0
    1.1546   -0.5019    4.5722 C   0  0  2  0  0  0  0  0  0  0  0  0
    1.2361   -1.7499    3.6521 C   0  0  2  0  0  0  0  0  0  0  0  0
    1.1054   -2.9733    4.3345 O   0  0  0  0  0  0  0  0  0  0  0  0
    2.6336   -1.6635    2.9587 C   0  0  2  0  0  0  0  0  0  0  0  0
    3.7942   -2.2114    3.8505 C   0  0  0  0  0  0  0  0  0  0  0  0
    3.9858   -3.6819    3.4574 C   0  0  0  0  0  0  0  0  0  0  0  0
    3.3096   -3.8578    2.0936 C   0  0  0  0  0  0  0  0  0  0  0  0
    2.8127   -2.4706    1.6494 C   0  0  2  0  0  0  0  0  0  0  0  0
    3.6131   -3.1715   -4.2946 H   0  0  0  0  0  0  0  0  0  0  0  0
    4.3075   -4.2352   -3.0818 H   0  0  0  0  0  0  0  0  0  0  0  0
    4.6875   -2.5162   -3.0730 H   0  0  0  0  0  0  0  0  0  0  0  0
    2.2226   -2.0224   -2.5327 H   0  0  0  0  0  0  0  0  0  0  0  0
    1.8964   -3.7395   -2.5736 H   0  0  0  0  0  0  0  0  0  0  0  0
    5.5138   -1.1476    1.7199 H   0  0  0  0  0  0  0  0  0  0  0  0
    5.1532   -0.1689    0.3465 H   0  0  0  0  0  0  0  0  0  0  0  0
    4.6117    0.6670    2.9038 H   0  0  0  0  0  0  0  0  0  0  0  0
    3.7459    1.2379    1.4865 H   0  0  0  0  0  0  0  0  0  0  0  0
    1.9984   -0.1025    1.7463 H   0  0  0  0  0  0  0  0  0  0  0  0
    0.9955    1.0003    3.0623 H   0  0  0  0  0  0  0  0  0  0  0  0
    2.9750    1.4504    5.2851 H   0  0  0  0  0  0  0  0  0  0  0  0
    2.8090    2.4719    3.8741 H   0  0  0  0  0  0  0  0  0  0  0  0
    1.3450    3.1415    5.8564 H   0  0  0  0  0  0  0  0  0  0  0  0
    0.5303    3.0046    4.3223 H   0  0  0  0  0  0  0  0  0  0  0  0
    0.3547    1.2640    6.7503 H   0  0  0  0  0  0  0  0  0  0  0  0
   -1.8011    2.4259    4.9303 H   0  0  0  0  0  0  0  0  0  0  0  0
   -1.2291    3.1542    6.4225 H   0  0  0  0  0  0  0  0  0  0  0  0
   -2.0979    1.6317    6.4710 H   0  0  0  0  0  0  0  0  0  0  0  0
   -0.8241    0.2112    4.1617 H   0  0  0  0  0  0  0  0  0  0  0  0
   -0.6689   -0.6867    7.0199 H   0  0  0  0  0  0  0  0  0  0  0  0
   -2.0406   -0.6565    5.9393 H   0  0  0  0  0  0  0  0  0  0  0  0
   -1.2971   -2.9127    6.5642 H   0  0  0  0  0  0  0  0  0  0  0  0
   -1.3411   -2.6568    4.8413 H   0  0  0  0  0  0  0  0  0  0  0  0
    1.8597   -4.6231    6.1152 H   0  0  0  0  0  0  0  0  0  0  0  0
    0.1967   -4.9989    5.6824 H   0  0  0  0  0  0  0  0  0  0  0  0
    0.5661   -4.3426    7.2827 H   0  0  0  0  0  0  0  0  0  0  0  0
    0.4608   -1.6835    2.8879 H   0  0  0  0  0  0  0  0  0  0  0  0
    4.7273   -1.6873    3.6687 H   0  0  0  0  0  0  0  0  0  0  0  0
    3.6504   -2.1313    4.9220 H   0  0  0  0  0  0  0  0  0  0  0  0
    5.0458   -3.9489    3.4280 H   0  0  0  0  0  0  0  0  0  0  0  0
    3.5097   -4.3369    4.1908 H   0  0  0  0  0  0  0  0  0  0  0  0
    3.9740   -4.3272    1.3679 H   0  0  0  0  0  0  0  0  0  0  0  0
    2.4540   -4.5241    2.2170 H   0  0  0  0  0  0  0  0  0  0  0  0
    1.8440   -2.5627    1.1592 H   0  0  0  0  0  0  0  0  0  0  0  0
  1  2  1  0
  1 29  1  0
  1 30  1  0
  1 31  1  0
  2  3  1  0
  2 32  1  0
  2 33  1  0
  3  4  1  0
  4  5  2  3
  5 28  1  0
  5  6  1  0
  6  7  1  0
  6 34  1  0
  6 35  1  0
  7  8  1  0
  7 36  1  0
  7 37  1  0
  8 24  1  0
  8  9  1  0
  8 38  1  6
  9 21  1  0
  9 10  1  0
  9 39  1  6
 10 11  1  0
 10 40  1  0
 10 41  1  0
 11 12  1  0
 11 42  1  0
 11 43  1  0
 12 13  1  0
 12 14  1  0
 12 44  1  1
 13 45  1  0
 13 46  1  0
 13 47  1  0
 14 21  1  0
 14 15  1  0
 14 48  1  6
 15 16  1  0
 15 49  1  0
 15 50  1  0
 16 17  1  0
 16 51  1  0
 16 52  1  0
 17 23  1  0
 17 18  1  1
 17 19  1  0
 18 53  1  0
 18 54  1  0
 18 55  1  0
 19 20  1  0
 21 20  1  1
 21 22  1  0
 22 23  1  0
 22 24  1  0
 22 56  1  6
 24 28  1  0
 24 25  1  1
 25 26  1  0
 25 57  1  0
 25 58  1  0
 26 27  1  0
 26 59  1  0
 26 60  1  0
 27 28  1  0
 27 61  1  0
 27 62  1  0
 28 63  1  6
M  END
>  <i_m_ct_stereo_status>  (113) 
1

>  <s_m_source_file>  (113) 
/var/tmp/pbs.5076255.sched01/tmp7c02qu8j/38qwqhi24o.sdf

>  <i_m_source_file_index>  (113) 
11

>  <i_lp_mmshare_version>  (113) 
48012

>  <i_f3d_flags>  (113) 
0

>  <s_epik_input>  (113) 
W0NIM11bQ0gyXU8vTj1DKC9bQ0gyXVtDSDJdMSlbQ0BASF0oW0NIMl1bQ0gyXVtDSDJdMilbQ0BAXTIoW0NASF0xW0NASF0zW0NAXTQ1NilbQ0BIXTZPW0NAQF0oW0NIM10pKE9PNSlbQ0gyXVtDSDJdW0NASF00W0NASF0oW0NIM10pW0NIMl1bQ0gyXTM=

>  <s_epik_cmdline>  (113) 
J2VwaWtfcHl0aG9uJywgJy1waHQnLCAnMi4wJywgJy1waCcsICc3LjAnLCAnLXRuJywgJzgnLCAnLW1hJywgJzIwMCcsICctaW1hZScsICc8aW5maWxlLm1hZT4nLCAnLW9tYWUnLCAnPG91dGZpbGUubWFlPic=

>  <r_lp_tautomer_probability>  (113) 
1

>  <r_epik_Ionization_Penalty>  (113) 
5.22728e-08

>  <r_epik_Ionization_Penalty_Charging>  (113) 
0

>  <r_epik_Ionization_Penalty_Neutral>  (113) 
5.22728e-08

>  <r_epik_State_Penalty>  (113) 
-0

>  <r_epik_Charging_Adjusted_Penalty>  (113) 
0

>  <i_epik_Tot_Q>  (113) 
0

>  <i_epik_Tot_abs_Q>  (113) 
0

>  <s_epik_Chemistry_Notes>  (113) 
This compound has an imine and may undergo hydrolysis.

>  <s_lp_Force_Field>  (113) 
OPLS3e

>  <r_lp_Energy>  (113) 
74.2165

>  <b_lp_Chiralities_Consistent>  (113) 
1

>  <s_lp_Variant>  (113) 
34:0-1

>  <s_i_glide_gridfile>  (113) 
pfpi4k_grid

>  <i_i_glide_lignum>  (113) 
11

>  <i_i_glide_rotatable_bonds>  (113) 
2

>  <r_i_docking_score>  (113) 
-1.92892

>  <r_i_glide_ligand_efficiency>  (113) 
-0.0688898

>  <r_i_glide_ligand_efficiency_sa>  (113) 
-0.20919

>  <r_i_glide_ligand_efficiency_ln>  (113) 
-0.44525

>  <r_i_glide_gscore>  (113) 
-1.92892

>  <r_i_glide_lipo>  (113) 
-0.221003

>  <r_i_glide_hbond>  (113) 
0

>  <r_i_glide_metal>  (113) 
-0

>  <r_i_glide_rewards>  (113) 
-0.753216

>  <r_i_glide_evdw>  (113) 
-20.2259

>  <r_i_glide_ecoul>  (113) 
0.0878858

>  <r_i_glide_erotb>  (113) 
0.128484

>  <r_i_glide_esite>  (113) 
-0.0850687

>  <r_i_glide_emodel>  (113) 
-21.4954

>  <r_i_glide_energy>  (113) 
-20.138

>  <r_i_glide_einternal>  (113) 
1.85474

>  <r_i_glide_intrahb_reward>  (113) 
-0

>  <i_i_glide_confnum>  (113) 
2

>  <i_i_glide_posenum>  (113) 
31

>  <r_i_glide_eff_state_penalty>  (113) 
0

>  <ligand_id>  (113) 
34

>  <original_smiles>  (113) 
CCON=C1CCC2C3CCC(C)C4CCC5(C)OOC43C(O5)C23CCCC13

>  <smiles>  (113) 
[H]C([H])([H])C([H])([H])ON=C1C([H])([H])C([H])([H])C2([H])C3([H])C([H])([H])C([H])([H])C([H])(C([H])([H])[H])C4([H])C([H])([H])C([H])([H])C5(C([H])([H])[H])OOC43C([H])(O5)C23C([H])([H])C([H])([H])C([H])([H])C13[H]

$$$$
34:0:2
     RDKit          3D

 63 68  0  0  1  0  0  0  0  0999 V2000
   -1.3125    1.0770    3.2572 C   0  0  0  0  0  0  0  0  0  0  0  0
   -1.5067    0.3177    4.5736 C   0  0  0  0  0  0  0  0  0  0  0  0
   -0.8855   -0.9513    4.4554 O   0  0  0  0  0  0  0  0  0  0  0  0
   -0.9046   -1.5779    5.7064 N   0  0  0  0  0  0  0  0  0  0  0  0
   -0.1082   -2.5710    5.7613 C   0  0  0  0  0  0  0  0  0  0  0  0
    0.0075   -3.3637    7.0744 C   0  0  0  0  0  0  0  0  0  0  0  0
   -0.0296   -4.9130    6.9350 C   0  0  0  0  0  0  0  0  0  0  0  0
    0.3229   -5.3559    5.5120 C   0  0  2  0  0  0  0  0  0  0  0  0
    0.5078   -6.8224    5.0801 C   0  0  2  0  0  0  0  0  0  0  0  0
    0.6895   -7.9822    6.0521 C   0  0  0  0  0  0  0  0  0  0  0  0
    0.4545   -9.2782    5.2435 C   0  0  0  0  0  0  0  0  0  0  0  0
    1.1612   -9.3634    3.8536 C   0  0  1  0  0  0  0  0  0  0  0  0
    0.4882  -10.4715    3.0196 C   0  0  0  0  0  0  0  0  0  0  0  0
    1.2757   -8.0229    3.0403 C   0  0  2  0  0  0  0  0  0  0  0  0
    2.2942   -8.1901    1.8910 C   0  0  0  0  0  0  0  0  0  0  0  0
    2.9376   -6.9053    1.3390 C   0  0  0  0  0  0  0  0  0  0  0  0
    3.5626   -5.9992    2.4202 C   0  0  2  0  0  0  0  0  0  0  0  0
    4.7992   -5.2615    1.8888 C   0  0  0  0  0  0  0  0  0  0  0  0
    3.9936   -6.8112    3.5127 O   0  0  0  0  0  0  0  0  0  0  0  0
    2.8862   -7.0084    4.5565 O   0  0  0  0  0  0  0  0  0  0  0  0
    1.5928   -6.8352    3.9914 C   0  0  2  0  0  0  0  0  0  0  0  0
    1.5339   -5.3660    3.4939 C   0  0  2  0  0  0  0  0  0  0  0  0
    2.6831   -4.9546    2.7895 O   0  0  0  0  0  0  0  0  0  0  0  0
    1.3516   -4.4953    4.7793 C   0  0  2  0  0  0  0  0  0  0  0  0
    2.6899   -4.2131    5.5241 C   0  0  0  0  0  0  0  0  0  0  0  0
    3.2006   -2.8653    5.0033 C   0  0  0  0  0  0  0  0  0  0  0  0
    2.0019   -2.1698    4.3514 C   0  0  0  0  0  0  0  0  0  0  0  0
    0.7711   -3.0682    4.5757 C   0  0  2  0  0  0  0  0  0  0  0  0
   -1.7535    2.0725    3.3051 H   0  0  0  0  0  0  0  0  0  0  0  0
   -1.7714    0.5506    2.4209 H   0  0  0  0  0  0  0  0  0  0  0  0
   -0.2523    1.1937    3.0315 H   0  0  0  0  0  0  0  0  0  0  0  0
   -1.0563    0.8892    5.3869 H   0  0  0  0  0  0  0  0  0  0  0  0
   -2.5676    0.2016    4.8003 H   0  0  0  0  0  0  0  0  0  0  0  0
    0.9310   -3.0595    7.5646 H   0  0  0  0  0  0  0  0  0  0  0  0
   -0.7835   -3.0589    7.7565 H   0  0  0  0  0  0  0  0  0  0  0  0
    0.6213   -5.3846    7.6731 H   0  0  0  0  0  0  0  0  0  0  0  0
   -1.0382   -5.2661    7.1552 H   0  0  0  0  0  0  0  0  0  0  0  0
   -0.5847   -5.1110    4.9712 H   0  0  0  0  0  0  0  0  0  0  0  0
   -0.4447   -7.0511    4.5881 H   0  0  0  0  0  0  0  0  0  0  0  0
    1.6787   -7.9836    6.5050 H   0  0  0  0  0  0  0  0  0  0  0  0
   -0.0345   -7.9276    6.8621 H   0  0  0  0  0  0  0  0  0  0  0  0
    0.7680  -10.1302    5.8525 H   0  0  0  0  0  0  0  0  0  0  0  0
   -0.6172   -9.4114    5.0962 H   0  0  0  0  0  0  0  0  0  0  0  0
    2.1736   -9.6968    4.0716 H   0  0  0  0  0  0  0  0  0  0  0  0
   -0.5402  -10.2117    2.7659 H   0  0  0  0  0  0  0  0  0  0  0  0
    0.4541  -11.4157    3.5680 H   0  0  0  0  0  0  0  0  0  0  0  0
    1.0199  -10.6468    2.0866 H   0  0  0  0  0  0  0  0  0  0  0  0
    0.3066   -7.8275    2.5846 H   0  0  0  0  0  0  0  0  0  0  0  0
    3.1032   -8.8389    2.2263 H   0  0  0  0  0  0  0  0  0  0  0  0
    1.8242   -8.7246    1.0642 H   0  0  0  0  0  0  0  0  0  0  0  0
    3.7328   -7.2280    0.6641 H   0  0  0  0  0  0  0  0  0  0  0  0
    2.2372   -6.3423    0.7245 H   0  0  0  0  0  0  0  0  0  0  0  0
    5.1953   -4.5825    2.6477 H   0  0  0  0  0  0  0  0  0  0  0  0
    4.5563   -4.6630    1.0082 H   0  0  0  0  0  0  0  0  0  0  0  0
    5.5950   -5.9585    1.6159 H   0  0  0  0  0  0  0  0  0  0  0  0
    0.6615   -5.2443    2.8505 H   0  0  0  0  0  0  0  0  0  0  0  0
    2.5427   -4.1323    6.5963 H   0  0  0  0  0  0  0  0  0  0  0  0
    3.4602   -4.9692    5.4165 H   0  0  0  0  0  0  0  0  0  0  0  0
    3.6330   -2.2696    5.8093 H   0  0  0  0  0  0  0  0  0  0  0  0
    3.9863   -3.0214    4.2611 H   0  0  0  0  0  0  0  0  0  0  0  0
    1.8690   -1.1532    4.7235 H   0  0  0  0  0  0  0  0  0  0  0  0
    2.1963   -2.0875    3.2807 H   0  0  0  0  0  0  0  0  0  0  0  0
    0.1507   -3.0526    3.6782 H   0  0  0  0  0  0  0  0  0  0  0  0
  1  2  1  0
  1 29  1  0
  1 30  1  0
  1 31  1  0
  2  3  1  0
  2 32  1  0
  2 33  1  0
  3  4  1  0
  4  5  2  3
  5 28  1  0
  5  6  1  0
  6  7  1  0
  6 34  1  0
  6 35  1  0
  7  8  1  0
  7 36  1  0
  7 37  1  0
  8 24  1  0
  8  9  1  0
  8 38  1  6
  9 21  1  0
  9 10  1  0
  9 39  1  6
 10 11  1  0
 10 40  1  0
 10 41  1  0
 11 12  1  0
 11 42  1  0
 11 43  1  0
 12 13  1  0
 12 14  1  0
 12 44  1  1
 13 45  1  0
 13 46  1  0
 13 47  1  0
 14 21  1  0
 14 15  1  0
 14 48  1  6
 15 16  1  0
 15 49  1  0
 15 50  1  0
 16 17  1  0
 16 51  1  0
 16 52  1  0
 17 23  1  0
 17 18  1  6
 17 19  1  0
 18 53  1  0
 18 54  1  0
 18 55  1  0
 19 20  1  0
 21 20  1  1
 21 22  1  0
 22 23  1  0
 22 24  1  0
 22 56  1  6
 24 28  1  0
 24 25  1  1
 25 26  1  0
 25 57  1  0
 25 58  1  0
 26 27  1  0
 26 59  1  0
 26 60  1  0
 27 28  1  0
 27 61  1  0
 27 62  1  0
 28 63  1  6
M  END
>  <i_m_ct_stereo_status>  (114) 
1

>  <s_m_source_file>  (114) 
/var/tmp/pbs.5076255.sched01/tmp7c02qu8j/38qwqhi24o.sdf

>  <i_m_source_file_index>  (114) 
11

>  <i_lp_mmshare_version>  (114) 
48012

>  <i_f3d_flags>  (114) 
0

>  <s_epik_input>  (114) 
W0NIM11bQ0gyXU8vTj1DKC9bQ0gyXVtDSDJdMSlbQ0BASF0oW0NIMl1bQ0gyXVtDSDJdMilbQ0BAXTIoW0NASF0xW0NASF0zW0NAXTQ1NilbQ0BIXTZPW0NAQF0oW0NIM10pKE9PNSlbQ0gyXVtDSDJdW0NASF00W0NASF0oW0NIM10pW0NIMl1bQ0gyXTM=

>  <s_epik_cmdline>  (114) 
J2VwaWtfcHl0aG9uJywgJy1waHQnLCAnMi4wJywgJy1waCcsICc3LjAnLCAnLXRuJywgJzgnLCAnLW1hJywgJzIwMCcsICctaW1hZScsICc8aW5maWxlLm1hZT4nLCAnLW9tYWUnLCAnPG91dGZpbGUubWFlPic=

>  <r_lp_tautomer_probability>  (114) 
1

>  <r_epik_Ionization_Penalty>  (114) 
5.22728e-08

>  <r_epik_Ionization_Penalty_Charging>  (114) 
0

>  <r_epik_Ionization_Penalty_Neutral>  (114) 
5.22728e-08

>  <r_epik_State_Penalty>  (114) 
-0

>  <r_epik_Charging_Adjusted_Penalty>  (114) 
0

>  <i_epik_Tot_Q>  (114) 
0

>  <i_epik_Tot_abs_Q>  (114) 
0

>  <s_epik_Chemistry_Notes>  (114) 
This compound has an imine and may undergo hydrolysis.

>  <s_lp_Force_Field>  (114) 
OPLS3e

>  <r_lp_Energy>  (114) 
74.2165

>  <b_lp_Chiralities_Consistent>  (114) 
1

>  <s_lp_Variant>  (114) 
34:0-1

>  <s_i_glide_gridfile>  (114) 
pfpi4k_grid

>  <i_i_glide_lignum>  (114) 
11

>  <i_i_glide_rotatable_bonds>  (114) 
2

>  <r_i_docking_score>  (114) 
-1.8963

>  <r_i_glide_ligand_efficiency>  (114) 
-0.067725

>  <r_i_glide_ligand_efficiency_sa>  (114) 
-0.205653

>  <r_i_glide_ligand_efficiency_ln>  (114) 
-0.437722

>  <r_i_glide_gscore>  (114) 
-1.8963

>  <r_i_glide_lipo>  (114) 
-0.145235

>  <r_i_glide_hbond>  (114) 
0

>  <r_i_glide_metal>  (114) 
-0

>  <r_i_glide_rewards>  (114) 
-0.753216

>  <r_i_glide_evdw>  (114) 
-20.3238

>  <r_i_glide_ecoul>  (114) 
-0.120923

>  <r_i_glide_erotb>  (114) 
0.128484

>  <r_i_glide_esite>  (114) 
-0.0920021

>  <r_i_glide_emodel>  (114) 
-22.4941

>  <r_i_glide_energy>  (114) 
-20.4448

>  <r_i_glide_einternal>  (114) 
0.411672

>  <r_i_glide_intrahb_reward>  (114) 
-0

>  <i_i_glide_confnum>  (114) 
1

>  <i_i_glide_posenum>  (114) 
15

>  <r_i_glide_eff_state_penalty>  (114) 
0

>  <ligand_id>  (114) 
34

>  <original_smiles>  (114) 
CCON=C1CCC2C3CCC(C)C4CCC5(C)OOC43C(O5)C23CCCC13

>  <smiles>  (114) 
[H]C([H])([H])C([H])([H])ON=C1C([H])([H])C([H])([H])C2([H])C3([H])C([H])([H])C([H])([H])C([H])(C([H])([H])[H])C4([H])C([H])([H])C([H])([H])C5(C([H])([H])[H])OOC43C([H])(O5)C23C([H])([H])C([H])([H])C([H])([H])C13[H]

$$$$
34:1:0
     RDKit          3D

 63 68  0  0  1  0  0  0  0  0999 V2000
   -4.4390    5.4762    1.9666 C   0  0  0  0  0  0  0  0  0  0  0  0
   -4.7096    3.9673    2.0916 C   0  0  0  0  0  0  0  0  0  0  0  0
   -3.5204    3.1903    2.1272 O   0  0  0  0  0  0  0  0  0  0  0  0
   -2.8503    3.4142    3.3426 N   0  0  0  0  0  0  0  0  0  0  0  0
   -1.7809    2.7320    3.4815 C   0  0  0  0  0  0  0  0  0  0  0  0
   -1.2686    1.7320    2.4237 C   0  0  0  0  0  0  0  0  0  0  0  0
   -0.6789    0.4220    2.9876 C   0  0  0  0  0  0  0  0  0  0  0  0
    0.2918    0.7819    4.0992 C   0  0  2  0  0  0  0  0  0  0  0  0
    1.3492   -0.1839    4.6536 C   0  0  2  0  0  0  0  0  0  0  0  0
    1.3506   -1.6835    4.3892 C   0  0  0  0  0  0  0  0  0  0  0  0
    2.7610   -2.1940    4.7639 C   0  0  0  0  0  0  0  0  0  0  0  0
    3.3598   -1.6624    6.1089 C   0  0  1  0  0  0  0  0  0  0  0  0
    4.8871   -1.8860    6.0961 C   0  0  0  0  0  0  0  0  0  0  0  0
    2.9913   -0.1840    6.5110 C   0  0  2  0  0  0  0  0  0  0  0  0
    3.3239    0.0547    7.9986 C   0  0  0  0  0  0  0  0  0  0  0  0
    2.5659    1.1931    8.7040 C   0  0  0  0  0  0  0  0  0  0  0  0
    1.0299    1.1214    8.5589 C   0  0  2  0  0  0  0  0  0  0  0  0
    0.3275    1.6641    9.8100 C   0  0  0  0  0  0  0  0  0  0  0  0
    0.6284   -0.2430    8.4106 O   0  0  0  0  0  0  0  0  0  0  0  0
    0.6581   -0.6984    6.9447 O   0  0  0  0  0  0  0  0  0  0  0  0
    1.5115    0.1230    6.1497 C   0  0  2  0  0  0  0  0  0  0  0  0
    0.9277    1.5649    6.2182 C   0  0  2  0  0  0  0  0  0  0  0  0
    0.5666    1.9633    7.5203 O   0  0  0  0  0  0  0  0  0  0  0  0
   -0.3222    1.5440    5.2683 C   0  0  2  0  0  0  0  0  0  0  0  0
   -1.5944    0.9485    5.9474 C   0  0  0  0  0  0  0  0  0  0  0  0
   -2.2846    2.1309    6.6489 C   0  0  0  0  0  0  0  0  0  0  0  0
   -1.7090    3.3868    5.9846 C   0  0  0  0  0  0  0  0  0  0  0  0
   -0.8975    2.8939    4.7647 C   0  0  2  0  0  0  0  0  0  0  0  0
   -5.3724    6.0362    1.9719 H   0  0  0  0  0  0  0  0  0  0  0  0
   -3.9100    5.7463    1.0533 H   0  0  0  0  0  0  0  0  0  0  0  0
   -3.8362    5.8290    2.7941 H   0  0  0  0  0  0  0  0  0  0  0  0
   -5.3225    3.7535    2.9647 H   0  0  0  0  0  0  0  0  0  0  0  0
   -5.2931    3.6346    1.2354 H   0  0  0  0  0  0  0  0  0  0  0  0
   -2.0523    1.4410    1.7226 H   0  0  0  0  0  0  0  0  0  0  0  0
   -0.5076    2.2393    1.8293 H   0  0  0  0  0  0  0  0  0  0  0  0
   -1.4608   -0.2423    3.3489 H   0  0  0  0  0  0  0  0  0  0  0  0
   -0.1513   -0.1088    2.1926 H   0  0  0  0  0  0  0  0  0  0  0  0
    0.9268    1.5309    3.6181 H   0  0  0  0  0  0  0  0  0  0  0  0
    2.2599    0.1600    4.1493 H   0  0  0  0  0  0  0  0  0  0  0  0
    0.5780   -2.1974    4.9592 H   0  0  0  0  0  0  0  0  0  0  0  0
    1.1612   -1.8908    3.3370 H   0  0  0  0  0  0  0  0  0  0  0  0
    2.7340   -3.2848    4.8009 H   0  0  0  0  0  0  0  0  0  0  0  0
    3.4470   -1.9480    3.9493 H   0  0  0  0  0  0  0  0  0  0  0  0
    2.9484   -2.3132    6.8796 H   0  0  0  0  0  0  0  0  0  0  0  0
    5.3705   -1.2628    5.3414 H   0  0  0  0  0  0  0  0  0  0  0  0
    5.1324   -2.9233    5.8595 H   0  0  0  0  0  0  0  0  0  0  0  0
    5.3491   -1.6586    7.0564 H   0  0  0  0  0  0  0  0  0  0  0  0
    3.6141    0.4934    5.9271 H   0  0  0  0  0  0  0  0  0  0  0  0
    3.1324   -0.8582    8.5615 H   0  0  0  0  0  0  0  0  0  0  0  0
    4.3934    0.2362    8.1039 H   0  0  0  0  0  0  0  0  0  0  0  0
    2.8185    1.1134    9.7644 H   0  0  0  0  0  0  0  0  0  0  0  0
    2.9363    2.1667    8.3868 H   0  0  0  0  0  0  0  0  0  0  0  0
   -0.7574    1.6515    9.6859 H   0  0  0  0  0  0  0  0  0  0  0  0
    0.6168    2.6977   10.0140 H   0  0  0  0  0  0  0  0  0  0  0  0
    0.5616    1.0704   10.6982 H   0  0  0  0  0  0  0  0  0  0  0  0
    1.6647    2.2683    5.8269 H   0  0  0  0  0  0  0  0  0  0  0  0
   -2.2811    0.5660    5.1959 H   0  0  0  0  0  0  0  0  0  0  0  0
   -1.4332    0.1239    6.6309 H   0  0  0  0  0  0  0  0  0  0  0  0
   -3.3685    2.1045    6.5444 H   0  0  0  0  0  0  0  0  0  0  0  0
   -2.0674    2.1328    7.7185 H   0  0  0  0  0  0  0  0  0  0  0  0
   -2.4792    4.1249    5.7572 H   0  0  0  0  0  0  0  0  0  0  0  0
   -1.0333    3.8639    6.6960 H   0  0  0  0  0  0  0  0  0  0  0  0
   -0.1010    3.6004    4.5293 H   0  0  0  0  0  0  0  0  0  0  0  0
  1  2  1  0
  1 29  1  0
  1 30  1  0
  1 31  1  0
  2  3  1  0
  2 32  1  0
  2 33  1  0
  3  4  1  0
  4  5  2  3
  5 28  1  0
  5  6  1  0
  6  7  1  0
  6 34  1  0
  6 35  1  0
  7  8  1  0
  7 36  1  0
  7 37  1  0
  8 24  1  0
  8  9  1  0
  8 38  1  6
  9 21  1  0
  9 10  1  0
  9 39  1  6
 10 11  1  0
 10 40  1  0
 10 41  1  0
 11 12  1  0
 11 42  1  0
 11 43  1  0
 12 13  1  0
 12 14  1  0
 12 44  1  1
 13 45  1  0
 13 46  1  0
 13 47  1  0
 14 21  1  0
 14 15  1  0
 14 48  1  6
 15 16  1  0
 15 49  1  0
 15 50  1  0
 16 17  1  0
 16 51  1  0
 16 52  1  0
 17 23  1  0
 17 18  1  1
 17 19  1  0
 18 53  1  0
 18 54  1  0
 18 55  1  0
 19 20  1  0
 21 20  1  1
 21 22  1  0
 22 23  1  0
 22 24  1  0
 22 56  1  6
 24 28  1  0
 24 25  1  1
 25 26  1  0
 25 57  1  0
 25 58  1  0
 26 27  1  0
 26 59  1  0
 26 60  1  0
 27 28  1  0
 27 61  1  0
 27 62  1  0
 28 63  1  6
M  END
>  <i_m_ct_stereo_status>  (115) 
1

>  <s_m_source_file>  (115) 
/var/tmp/pbs.5076255.sched01/tmp7c02qu8j/38qwqhi24o.sdf

>  <i_m_source_file_index>  (115) 
12

>  <i_lp_mmshare_version>  (115) 
48012

>  <i_f3d_flags>  (115) 
0

>  <s_epik_input>  (115) 
W0NIM11bQ0gyXU8vTj1DKC9bQ0gyXVtDSDJdMSlbQ0BASF0oW0NIMl1bQ0gyXVtDSDJdMilbQ0BAXTIoW0NASF0xW0NASF0zW0NAXTQ1NilbQ0BIXTZPW0NAQF0oW0NIM10pKE9PNSlbQ0gyXVtDSDJdW0NASF00W0NASF0oW0NIM10pW0NIMl1bQ0gyXTM=

>  <s_epik_cmdline>  (115) 
J2VwaWtfcHl0aG9uJywgJy1waHQnLCAnMi4wJywgJy1waCcsICc3LjAnLCAnLXRuJywgJzgnLCAnLW1hJywgJzIwMCcsICctaW1hZScsICc8aW5maWxlLm1hZT4nLCAnLW9tYWUnLCAnPG91dGZpbGUubWFlPic=

>  <r_lp_tautomer_probability>  (115) 
1

>  <r_epik_Ionization_Penalty>  (115) 
5.22728e-08

>  <r_epik_Ionization_Penalty_Charging>  (115) 
0

>  <r_epik_Ionization_Penalty_Neutral>  (115) 
5.22728e-08

>  <r_epik_State_Penalty>  (115) 
-0

>  <r_epik_Charging_Adjusted_Penalty>  (115) 
0

>  <i_epik_Tot_Q>  (115) 
0

>  <i_epik_Tot_abs_Q>  (115) 
0

>  <s_epik_Chemistry_Notes>  (115) 
This compound has an imine and may undergo hydrolysis.

>  <s_lp_Force_Field>  (115) 
OPLS3e

>  <r_lp_Energy>  (115) 
76.4518

>  <b_lp_Chiralities_Consistent>  (115) 
1

>  <s_lp_Variant>  (115) 
34:0-2

>  <s_i_glide_gridfile>  (115) 
pfpi4k_grid

>  <i_i_glide_lignum>  (115) 
12

>  <i_i_glide_rotatable_bonds>  (115) 
2

>  <r_i_docking_score>  (115) 
-2.19785

>  <r_i_glide_ligand_efficiency>  (115) 
-0.0784946

>  <r_i_glide_ligand_efficiency_sa>  (115) 
-0.238356

>  <r_i_glide_ligand_efficiency_ln>  (115) 
-0.507328

>  <r_i_glide_gscore>  (115) 
-2.19785

>  <r_i_glide_lipo>  (115) 
-0.25799

>  <r_i_glide_hbond>  (115) 
0

>  <r_i_glide_metal>  (115) 
-0

>  <r_i_glide_rewards>  (115) 
-0.753216

>  <r_i_glide_evdw>  (115) 
-19.5416

>  <r_i_glide_ecoul>  (115) 
-1.61611

>  <r_i_glide_erotb>  (115) 
0.128484

>  <r_i_glide_esite>  (115) 
-0.0956298

>  <r_i_glide_emodel>  (115) 
-23.0664

>  <r_i_glide_energy>  (115) 
-21.1577

>  <r_i_glide_einternal>  (115) 
1.17504

>  <r_i_glide_intrahb_reward>  (115) 
-0

>  <i_i_glide_confnum>  (115) 
1

>  <i_i_glide_posenum>  (115) 
29

>  <r_i_glide_eff_state_penalty>  (115) 
0

>  <ligand_id>  (115) 
34

>  <original_smiles>  (115) 
CCON=C1CCC2C3CCC(C)C4CCC5(C)OOC43C(O5)C23CCCC13

>  <smiles>  (115) 
[H]C([H])([H])C([H])([H])ON=C1C([H])([H])C([H])([H])C2([H])C3([H])C([H])([H])C([H])([H])C([H])(C([H])([H])[H])C4([H])C([H])([H])C([H])([H])C5(C([H])([H])[H])OOC43C([H])(O5)C23C([H])([H])C([H])([H])C([H])([H])C13[H]

$$$$
34:1:1
     RDKit          3D

 63 68  0  0  1  0  0  0  0  0999 V2000
    1.0133  -11.9945    4.3897 C   0  0  0  0  0  0  0  0  0  0  0  0
    0.8708  -10.5087    4.7291 C   0  0  0  0  0  0  0  0  0  0  0  0
    1.5790   -9.7524    3.7595 O   0  0  0  0  0  0  0  0  0  0  0  0
    1.3325   -8.3879    3.9794 N   0  0  0  0  0  0  0  0  0  0  0  0
    1.8404   -7.6332    3.0848 C   0  0  0  0  0  0  0  0  0  0  0  0
    2.6547   -8.1726    1.8844 C   0  0  0  0  0  0  0  0  0  0  0  0
    3.8687   -7.3101    1.4588 C   0  0  0  0  0  0  0  0  0  0  0  0
    3.4067   -5.8648    1.3671 C   0  0  2  0  0  0  0  0  0  0  0  0
    4.1816   -4.7599    0.6301 C   0  0  2  0  0  0  0  0  0  0  0  0
    5.6292   -4.8910    0.1861 C   0  0  0  0  0  0  0  0  0  0  0  0
    5.8794   -3.7654   -0.8422 C   0  0  0  0  0  0  0  0  0  0  0  0
    5.3362   -2.3486   -0.4646 C   0  0  1  0  0  0  0  0  0  0  0  0
    5.2573   -1.4930   -1.7453 C   0  0  0  0  0  0  0  0  0  0  0  0
    3.9906   -2.3044    0.3478 C   0  0  2  0  0  0  0  0  0  0  0  0
    3.7940   -0.9023    0.9559 C   0  0  0  0  0  0  0  0  0  0  0  0
    2.8687   -0.7987    2.1792 C   0  0  0  0  0  0  0  0  0  0  0  0
    3.2267   -1.7729    3.3210 C   0  0  2  0  0  0  0  0  0  0  0  0
    2.9159   -1.1608    4.6946 C   0  0  0  0  0  0  0  0  0  0  0  0
    4.6291   -2.0375    3.2869 O   0  0  0  0  0  0  0  0  0  0  0  0
    4.9735   -3.2196    2.3655 O   0  0  0  0  0  0  0  0  0  0  0  0
    3.9528   -3.4476    1.3983 C   0  0  2  0  0  0  0  0  0  0  0  0
    2.6640   -3.7951    2.1919 C   0  0  2  0  0  0  0  0  0  0  0  0
    2.4238   -2.9369    3.2835 O   0  0  0  0  0  0  0  0  0  0  0  0
    2.8563   -5.2802    2.6650 C   0  0  2  0  0  0  0  0  0  0  0  0
    3.7307   -5.3956    3.9506 C   0  0  0  0  0  0  0  0  0  0  0  0
    2.7563   -5.2712    5.1311 C   0  0  0  0  0  0  0  0  0  0  0  0
    1.3670   -5.5547    4.5467 C   0  0  0  0  0  0  0  0  0  0  0  0
    1.6110   -6.0880    3.1171 C   0  0  2  0  0  0  0  0  0  0  0  0
    0.4552  -12.6148    5.0906 H   0  0  0  0  0  0  0  0  0  0  0  0
    2.0569  -12.3040    4.4277 H   0  0  0  0  0  0  0  0  0  0  0  0
    0.6322  -12.2145    3.3922 H   0  0  0  0  0  0  0  0  0  0  0  0
   -0.1850  -10.2394    4.7258 H   0  0  0  0  0  0  0  0  0  0  0  0
    1.2611  -10.3199    5.7294 H   0  0  0  0  0  0  0  0  0  0  0  0
    3.0355   -9.1771    2.0695 H   0  0  0  0  0  0  0  0  0  0  0  0
    1.9578   -8.2637    1.0492 H   0  0  0  0  0  0  0  0  0  0  0  0
    4.7005   -7.4174    2.1543 H   0  0  0  0  0  0  0  0  0  0  0  0
    4.2360   -7.6455    0.4874 H   0  0  0  0  0  0  0  0  0  0  0  0
    2.5194   -5.9459    0.7333 H   0  0  0  0  0  0  0  0  0  0  0  0
    3.6326   -4.6830   -0.3160 H   0  0  0  0  0  0  0  0  0  0  0  0
    6.3196   -4.8221    1.0252 H   0  0  0  0  0  0  0  0  0  0  0  0
    5.7956   -5.8550   -0.2894 H   0  0  0  0  0  0  0  0  0  0  0  0
    6.9556   -3.6924   -1.0128 H   0  0  0  0  0  0  0  0  0  0  0  0
    5.4498   -4.0678   -1.8000 H   0  0  0  0  0  0  0  0  0  0  0  0
    6.1043   -1.9107    0.1690 H   0  0  0  0  0  0  0  0  0  0  0  0
    4.4976   -1.8797   -2.4263 H   0  0  0  0  0  0  0  0  0  0  0  0
    6.2060   -1.5151   -2.2806 H   0  0  0  0  0  0  0  0  0  0  0  0
    5.0143   -0.4503   -1.5403 H   0  0  0  0  0  0  0  0  0  0  0  0
    3.1676   -2.4680   -0.3461 H   0  0  0  0  0  0  0  0  0  0  0  0
    4.7612   -0.4895    1.2418 H   0  0  0  0  0  0  0  0  0  0  0  0
    3.4082   -0.2436    0.1803 H   0  0  0  0  0  0  0  0  0  0  0  0
    2.9711    0.2231    2.5515 H   0  0  0  0  0  0  0  0  0  0  0  0
    1.8240   -0.9058    1.8914 H   0  0  0  0  0  0  0  0  0  0  0  0
    3.1325   -1.8753    5.4928 H   0  0  0  0  0  0  0  0  0  0  0  0
    1.8623   -0.8868    4.7780 H   0  0  0  0  0  0  0  0  0  0  0  0
    3.5142   -0.2647    4.8804 H   0  0  0  0  0  0  0  0  0  0  0  0
    1.8172   -3.7387    1.5125 H   0  0  0  0  0  0  0  0  0  0  0  0
    4.1860   -6.3797    4.0171 H   0  0  0  0  0  0  0  0  0  0  0  0
    4.5511   -4.6952    4.0472 H   0  0  0  0  0  0  0  0  0  0  0  0
    3.0172   -5.9747    5.9248 H   0  0  0  0  0  0  0  0  0  0  0  0
    2.7869   -4.2665    5.5585 H   0  0  0  0  0  0  0  0  0  0  0  0
    0.7745   -6.2087    5.1866 H   0  0  0  0  0  0  0  0  0  0  0  0
    0.8200   -4.6120    4.4900 H   0  0  0  0  0  0  0  0  0  0  0  0
    0.7492   -5.8731    2.4844 H   0  0  0  0  0  0  0  0  0  0  0  0
  1  2  1  0
  1 29  1  0
  1 30  1  0
  1 31  1  0
  2  3  1  0
  2 32  1  0
  2 33  1  0
  3  4  1  0
  4  5  2  3
  5 28  1  0
  5  6  1  0
  6  7  1  0
  6 34  1  0
  6 35  1  0
  7  8  1  0
  7 36  1  0
  7 37  1  0
  8 24  1  0
  8  9  1  0
  8 38  1  6
  9 21  1  0
  9 10  1  0
  9 39  1  6
 10 11  1  0
 10 40  1  0
 10 41  1  0
 11 12  1  0
 11 42  1  0
 11 43  1  0
 12 13  1  0
 12 14  1  0
 12 44  1  1
 13 45  1  0
 13 46  1  0
 13 47  1  0
 14 21  1  0
 14 15  1  0
 14 48  1  6
 15 16  1  0
 15 49  1  0
 15 50  1  0
 16 17  1  0
 16 51  1  0
 16 52  1  0
 17 23  1  0
 17 18  1  1
 17 19  1  0
 18 53  1  0
 18 54  1  0
 18 55  1  0
 19 20  1  0
 21 20  1  1
 21 22  1  0
 22 23  1  0
 22 24  1  0
 22 56  1  6
 24 28  1  0
 24 25  1  1
 25 26  1  0
 25 57  1  0
 25 58  1  0
 26 27  1  0
 26 59  1  0
 26 60  1  0
 27 28  1  0
 27 61  1  0
 27 62  1  0
 28 63  1  6
M  END
>  <i_m_ct_stereo_status>  (116) 
1

>  <s_m_source_file>  (116) 
/var/tmp/pbs.5076255.sched01/tmp7c02qu8j/38qwqhi24o.sdf

>  <i_m_source_file_index>  (116) 
12

>  <i_lp_mmshare_version>  (116) 
48012

>  <i_f3d_flags>  (116) 
0

>  <s_epik_input>  (116) 
W0NIM11bQ0gyXU8vTj1DKC9bQ0gyXVtDSDJdMSlbQ0BASF0oW0NIMl1bQ0gyXVtDSDJdMilbQ0BAXTIoW0NASF0xW0NASF0zW0NAXTQ1NilbQ0BIXTZPW0NAQF0oW0NIM10pKE9PNSlbQ0gyXVtDSDJdW0NASF00W0NASF0oW0NIM10pW0NIMl1bQ0gyXTM=

>  <s_epik_cmdline>  (116) 
J2VwaWtfcHl0aG9uJywgJy1waHQnLCAnMi4wJywgJy1waCcsICc3LjAnLCAnLXRuJywgJzgnLCAnLW1hJywgJzIwMCcsICctaW1hZScsICc8aW5maWxlLm1hZT4nLCAnLW9tYWUnLCAnPG91dGZpbGUubWFlPic=

>  <r_lp_tautomer_probability>  (116) 
1

>  <r_epik_Ionization_Penalty>  (116) 
5.22728e-08

>  <r_epik_Ionization_Penalty_Charging>  (116) 
0

>  <r_epik_Ionization_Penalty_Neutral>  (116) 
5.22728e-08

>  <r_epik_State_Penalty>  (116) 
-0

>  <r_epik_Charging_Adjusted_Penalty>  (116) 
0

>  <i_epik_Tot_Q>  (116) 
0

>  <i_epik_Tot_abs_Q>  (116) 
0

>  <s_epik_Chemistry_Notes>  (116) 
This compound has an imine and may undergo hydrolysis.

>  <s_lp_Force_Field>  (116) 
OPLS3e

>  <r_lp_Energy>  (116) 
76.4518

>  <b_lp_Chiralities_Consistent>  (116) 
1

>  <s_lp_Variant>  (116) 
34:0-2

>  <s_i_glide_gridfile>  (116) 
pfpi4k_grid

>  <i_i_glide_lignum>  (116) 
12

>  <i_i_glide_rotatable_bonds>  (116) 
2

>  <r_i_docking_score>  (116) 
-2.05353

>  <r_i_glide_ligand_efficiency>  (116) 
-0.0733404

>  <r_i_glide_ligand_efficiency_sa>  (116) 
-0.222705

>  <r_i_glide_ligand_efficiency_ln>  (116) 
-0.474016

>  <r_i_glide_gscore>  (116) 
-2.05353

>  <r_i_glide_lipo>  (116) 
-0.290631

>  <r_i_glide_hbond>  (116) 
0

>  <r_i_glide_metal>  (116) 
-0

>  <r_i_glide_rewards>  (116) 
-0.753216

>  <r_i_glide_evdw>  (116) 
-21.1325

>  <r_i_glide_ecoul>  (116) 
-0.351766

>  <r_i_glide_erotb>  (116) 
0.128484

>  <r_i_glide_esite>  (116) 
-0.0287803

>  <r_i_glide_emodel>  (116) 
-23.7093

>  <r_i_glide_energy>  (116) 
-21.4843

>  <r_i_glide_einternal>  (116) 
0.16093

>  <r_i_glide_intrahb_reward>  (116) 
-0

>  <i_i_glide_confnum>  (116) 
1

>  <i_i_glide_posenum>  (116) 
26

>  <r_i_glide_eff_state_penalty>  (116) 
0

>  <ligand_id>  (116) 
34

>  <original_smiles>  (116) 
CCON=C1CCC2C3CCC(C)C4CCC5(C)OOC43C(O5)C23CCCC13

>  <smiles>  (116) 
[H]C([H])([H])C([H])([H])ON=C1C([H])([H])C([H])([H])C2([H])C3([H])C([H])([H])C([H])([H])C([H])(C([H])([H])[H])C4([H])C([H])([H])C([H])([H])C5(C([H])([H])[H])OOC43C([H])(O5)C23C([H])([H])C([H])([H])C([H])([H])C13[H]

$$$$
35:0:0
     RDKit          3D

 62 68  0  0  1  0  0  0  0  0999 V2000
    8.6130   -6.6974    1.9789 C   0  0  0  0  0  0  0  0  0  0  0  0
    7.2135   -6.3085    2.0148 N   0  0  0  0  0  0  0  0  0  0  0  0
    6.7991   -5.0162    1.4899 C   0  0  0  0  0  0  0  0  0  0  0  0
    5.2794   -5.1557    1.4512 C   0  0  2  0  0  0  0  0  0  0  0  0
    4.4290   -3.8465    1.5526 C   0  0  1  0  0  0  0  0  0  0  0  0
    3.8914   -3.4595    0.2872 O   0  0  0  0  0  0  0  0  0  0  0  0
    4.8639   -3.0600   -0.6722 C   0  0  0  0  0  0  0  0  0  0  0  0
    4.2172   -2.3602   -1.8577 C   0  0  0  0  0  0  0  0  0  0  0  0
    4.6157   -1.1040   -2.1141 N   0  0  0  0  0  0  0  0  0  0  0  0
    3.9972   -0.4743   -3.1346 C   0  0  0  0  0  0  0  0  0  0  0  0
    3.0211   -1.1118   -3.9224 C   0  0  0  0  0  0  0  0  0  0  0  0
    2.6911   -2.4306   -3.5598 C   0  0  0  0  0  0  0  0  0  0  0  0
    3.2989   -3.0553   -2.5373 N   0  0  0  0  0  0  0  0  0  0  0  0
    3.3117   -3.9741    2.6448 C   0  0  2  0  0  0  0  0  0  0  0  0
    4.0265   -4.1598    3.8734 O   0  0  0  0  0  0  0  0  0  0  0  0
    4.9250   -5.2800    3.9236 C   0  0  0  0  0  0  0  0  0  0  0  0
    4.9533   -6.1265    2.6030 C   0  0  2  0  0  0  0  0  0  0  0  0
    6.2127   -6.9756    2.6103 C   0  0  0  0  0  0  0  0  0  0  0  0
    6.2631   -8.0981    3.1223 O   0  0  0  0  0  0  0  0  0  0  0  0
    3.6396   -6.9649    2.2937 C   0  0  2  0  0  0  0  0  0  0  0  0
    2.6674   -6.1448    1.4534 C   0  0  0  0  0  0  0  0  0  0  0  0
    2.2659   -5.1132    2.4681 C   0  0  2  0  0  0  0  0  0  0  0  0
    0.8818   -5.2303    3.0432 C   0  0  0  0  0  0  0  0  0  0  0  0
    2.0187   -5.8869    3.7725 C   0  0  1  0  0  0  0  0  0  0  0  0
    2.7303   -7.2320    3.5484 C   0  0  1  0  0  0  0  0  0  0  0  0
    1.7441   -8.4160    3.4190 C   0  0  2  0  0  0  0  0  0  0  0  0
    0.7327   -8.4569    4.5426 C   0  0  0  0  0  0  0  0  0  0  0  0
    0.6365   -9.6733    5.0704 C   0  0  0  0  0  0  0  0  0  0  0  0
    1.5614  -10.6292    4.3742 C   0  0  0  0  0  0  0  0  0  0  0  0
    2.4282   -9.7324    3.5687 N   0  0  1  0  0  0  0  0  0  0  0  0
    2.8952  -10.3495    2.3065 C   0  0  0  0  0  0  0  0  0  0  0  0
    8.7658   -7.7050    2.3739 H   0  0  0  0  0  0  0  0  0  0  0  0
    9.2024   -6.0098    2.5839 H   0  0  0  0  0  0  0  0  0  0  0  0
    8.9935   -6.6585    0.9569 H   0  0  0  0  0  0  0  0  0  0  0  0
    7.1015   -4.2528    2.1980 H   0  0  0  0  0  0  0  0  0  0  0  0
    7.2346   -4.7908    0.5152 H   0  0  0  0  0  0  0  0  0  0  0  0
    5.0824   -5.6647    0.5057 H   0  0  0  0  0  0  0  0  0  0  0  0
    5.0790   -3.0347    1.8879 H   0  0  0  0  0  0  0  0  0  0  0  0
    5.5846   -2.3823   -0.2210 H   0  0  0  0  0  0  0  0  0  0  0  0
    5.4189   -3.9128   -1.0550 H   0  0  0  0  0  0  0  0  0  0  0  0
    4.2940    0.5421   -3.3250 H   0  0  0  0  0  0  0  0  0  0  0  0
    2.5343   -0.6060   -4.7359 H   0  0  0  0  0  0  0  0  0  0  0  0
    1.9407   -2.9876   -4.0988 H   0  0  0  0  0  0  0  0  0  0  0  0
    2.7737   -3.0311    2.7174 H   0  0  0  0  0  0  0  0  0  0  0  0
    5.9138   -4.8811    4.1497 H   0  0  0  0  0  0  0  0  0  0  0  0
    4.6982   -5.8814    4.8021 H   0  0  0  0  0  0  0  0  0  0  0  0
    3.9117   -7.8453    1.7362 H   0  0  0  0  0  0  0  0  0  0  0  0
    3.0008   -5.7259    0.5109 H   0  0  0  0  0  0  0  0  0  0  0  0
    1.8046   -6.7446    1.1782 H   0  0  0  0  0  0  0  0  0  0  0  0
    0.4460   -4.3428    3.4957 H   0  0  0  0  0  0  0  0  0  0  0  0
    0.1663   -5.8933    2.5556 H   0  0  0  0  0  0  0  0  0  0  0  0
    2.1947   -5.4334    4.7489 H   0  0  0  0  0  0  0  0  0  0  0  0
    3.3381   -7.4406    4.4281 H   0  0  0  0  0  0  0  0  0  0  0  0
    1.1704   -8.3711    2.4979 H   0  0  0  0  0  0  0  0  0  0  0  0
    0.1468   -7.5987    4.8526 H   0  0  0  0  0  0  0  0  0  0  0  0
   -0.0385   -9.9712    5.8664 H   0  0  0  0  0  0  0  0  0  0  0  0
    2.1352  -11.2336    5.0783 H   0  0  0  0  0  0  0  0  0  0  0  0
    0.9561  -11.2913    3.7509 H   0  0  0  0  0  0  0  0  0  0  0  0
    2.0180  -10.5668    1.7022 H   0  0  0  0  0  0  0  0  0  0  0  0
    3.4052  -11.2983    2.5124 H   0  0  0  0  0  0  0  0  0  0  0  0
    3.5637   -9.7363    1.7176 H   0  0  0  0  0  0  0  0  0  0  0  0
    3.2317   -9.5464    4.1482 H   0  0  0  0  0  0  0  0  0  0  0  0
  1  2  1  0
  1 32  1  0
  1 33  1  0
  1 34  1  0
  2 18  1  0
  2  3  1  0
  3  4  1  0
  3 35  1  0
  3 36  1  0
  4 17  1  0
  4  5  1  0
  4 37  1  6
  5  6  1  0
  5 14  1  0
  5 38  1  1
  6  7  1  0
  7  8  1  0
  7 39  1  0
  7 40  1  0
  8 13  1  0
  8  9  2  0
  9 10  1  0
 10 11  2  0
 10 41  1  0
 11 12  1  0
 11 42  1  0
 12 13  2  0
 12 43  1  0
 14 22  1  0
 14 15  1  0
 14 44  1  1
 15 16  1  0
 17 16  1  1
 16 45  1  0
 16 46  1  0
 17 18  1  0
 17 20  1  0
 18 19  2  0
 20 25  1  0
 20 21  1  0
 20 47  1  6
 22 21  1  6
 21 48  1  0
 21 49  1  0
 22 24  1  0
 22 23  1  0
 23 24  1  0
 23 50  1  0
 23 51  1  0
 24 25  1  0
 24 52  1  1
 25 26  1  0
 25 53  1  1
 26 30  1  0
 26 27  1  0
 26 54  1  6
 27 28  2  0
 27 55  1  0
 28 29  1  0
 28 56  1  0
 29 30  1  0
 29 57  1  0
 29 58  1  0
 30 31  1  0
 30 62  1  1
 31 59  1  0
 31 60  1  0
 31 61  1  0
M  CHG  1  30   1
M  END
>  <i_m_ct_stereo_status>  (117) 
1

>  <s_m_source_file>  (117) 
/var/tmp/pbs.5076255.sched01/tmp7c02qu8j/38qwqhi24o.sdf

>  <i_m_source_file_index>  (117) 
13

>  <i_lp_mmshare_version>  (117) 
48012

>  <i_f3d_flags>  (117) 
0

>  <s_epik_input>  (117) 
bjFbY0hdW2NIXVtjSF1uYzFbQ0gyXU9bQ0BIXShbQ0BIXShbQ0BdMjM0KVtDSDJdTihbQ0gzXSlDMz1PKVtDQEhdKE9bQ0gyXTIpW0NAXTU2W0NAQEhdKFtDSDJdNilbQ0BIXShbQ0BIXTRbQ0gyXTUpW0NAQEhdN1tDSF09W0NIXVtDSDJdTjdbQ0gzXQ==

>  <s_epik_cmdline>  (117) 
J2VwaWtfcHl0aG9uJywgJy1waHQnLCAnMi4wJywgJy1waCcsICc3LjAnLCAnLXRuJywgJzgnLCAnLW1hJywgJzIwMCcsICctaW1hZScsICc8aW5maWxlLm1hZT4nLCAnLW9tYWUnLCAnPG91dGZpbGUubWFlPic=

>  <r_lp_tautomer_probability>  (117) 
1

>  <r_epik_Ionization_Penalty>  (117) 
0.000484386

>  <r_epik_Ionization_Penalty_Charging>  (117) 
0.000483552

>  <r_epik_Ionization_Penalty_Neutral>  (117) 
8.3419e-07

>  <r_epik_State_Penalty>  (117) 
0.000300167

>  <r_epik_Charging_Adjusted_Penalty>  (117) 
0.000783719

>  <i_epik_Tot_Q>  (117) 
1

>  <i_epik_Tot_abs_Q>  (117) 
1

>  <s_epik_Chemistry_Notes>  (117) 
This compound contains an electron-poor aromatic ring that is susceptible to covalent hydrolysis at low pH, typically resulting in measured values for nitrogen ring protonation that are around two units higher than predicted values.

>  <s_lp_Force_Field>  (117) 
OPLS3e

>  <r_lp_Energy>  (117) 
73.329

>  <b_lp_Chiralities_Consistent>  (117) 
1

>  <s_lp_Variant>  (117) 
35:0-1

>  <s_i_glide_gridfile>  (117) 
pfpi4k_grid

>  <i_i_glide_lignum>  (117) 
13

>  <i_i_glide_rotatable_bonds>  (117) 
4

>  <r_i_docking_score>  (117) 
-2.71461

>  <r_i_glide_ligand_efficiency>  (117) 
-0.0875681

>  <r_i_glide_ligand_efficiency_sa>  (117) 
-0.275085

>  <r_i_glide_ligand_efficiency_ln>  (117) 
-0.612228

>  <r_i_glide_gscore>  (117) 
-2.71461

>  <r_i_glide_lipo>  (117) 
-0.77796

>  <r_i_glide_hbond>  (117) 
0

>  <r_i_glide_metal>  (117) 
-0

>  <r_i_glide_rewards>  (117) 
-0.591828

>  <r_i_glide_evdw>  (117) 
-28.1126

>  <r_i_glide_ecoul>  (117) 
-2.4396

>  <r_i_glide_erotb>  (117) 
0.441982

>  <r_i_glide_esite>  (117) 
-0.0152358

>  <r_i_glide_emodel>  (117) 
-36.0889

>  <r_i_glide_energy>  (117) 
-30.5522

>  <r_i_glide_einternal>  (117) 
1.77454

>  <r_i_glide_intrahb_reward>  (117) 
-0

>  <i_i_glide_confnum>  (117) 
4

>  <i_i_glide_posenum>  (117) 
2

>  <r_i_glide_eff_state_penalty>  (117) 
0

>  <ligand_id>  (117) 
35

>  <original_smiles>  (117) 
CN1CC2C(OCc3ncccn3)C3OCC2(C1=O)C1CC32CC2C1C1C=CCN1C

>  <smiles>  (117) 
[H]C1=C([H])C([H])(C2([H])C3([H])C([H])([H])C4(C([H])([H])C24[H])C2([H])OC([H])([H])C34C(=O)N(C([H])([H])[H])C([H])([H])C4([H])C2([H])OC([H])([H])c2nc([H])c([H])c([H])n2)[N+]([H])(C([H])([H])[H])C1([H])[H]

$$$$
35:0:1
     RDKit          3D

 62 68  0  0  1  0  0  0  0  0999 V2000
    1.0982   -5.4289    5.7629 C   0  0  0  0  0  0  0  0  0  0  0  0
    1.2900   -4.1743    5.0336 N   0  0  0  0  0  0  0  0  0  0  0  0
    2.3598   -4.0477    4.0522 C   0  0  0  0  0  0  0  0  0  0  0  0
    2.0107   -2.7376    3.3549 C   0  0  2  0  0  0  0  0  0  0  0  0
    3.1665   -1.9403    2.6558 C   0  0  1  0  0  0  0  0  0  0  0  0
    3.0158   -2.1028    1.2418 O   0  0  0  0  0  0  0  0  0  0  0  0
    4.1385   -1.7634    0.4389 C   0  0  0  0  0  0  0  0  0  0  0  0
    3.8569   -1.9310   -1.0398 C   0  0  0  0  0  0  0  0  0  0  0  0
    4.4463   -1.0650   -1.8785 N   0  0  0  0  0  0  0  0  0  0  0  0
    4.1495   -1.2067   -3.1908 C   0  0  0  0  0  0  0  0  0  0  0  0
    3.2896   -2.2113   -3.6596 C   0  0  0  0  0  0  0  0  0  0  0  0
    2.7450   -3.0701   -2.6950 C   0  0  0  0  0  0  0  0  0  0  0  0
    3.0403   -2.9472   -1.3848 N   0  0  0  0  0  0  0  0  0  0  0  0
    3.1550   -0.4345    3.1037 C   0  0  2  0  0  0  0  0  0  0  0  0
    3.3632   -0.4640    4.5177 O   0  0  0  0  0  0  0  0  0  0  0  0
    2.4208   -1.2297    5.2865 C   0  0  0  0  0  0  0  0  0  0  0  0
    1.2898   -1.8956    4.4276 C   0  0  2  0  0  0  0  0  0  0  0  0
    0.6586   -3.0090    5.2639 C   0  0  0  0  0  0  0  0  0  0  0  0
   -0.2819   -2.8154    6.0347 O   0  0  0  0  0  0  0  0  0  0  0  0
    0.2279   -0.8861    3.7992 C   0  0  2  0  0  0  0  0  0  0  0  0
    0.6816   -0.4588    2.3919 C   0  0  0  0  0  0  0  0  0  0  0  0
    1.8825    0.3840    2.7775 C   0  0  2  0  0  0  0  0  0  0  0  0
    1.7532    1.8763    2.6308 C   0  0  0  0  0  0  0  0  0  0  0  0
    1.4057    1.2585    3.9613 C   0  0  1  0  0  0  0  0  0  0  0  0
    0.1454    0.5174    4.4684 C   0  0  1  0  0  0  0  0  0  0  0  0
   -1.1856    1.3207    4.2752 C   0  0  2  0  0  0  0  0  0  0  0  0
   -1.4228    1.9008    2.8795 C   0  0  0  0  0  0  0  0  0  0  0  0
   -1.7069    3.2290    2.9641 C   0  0  0  0  0  0  0  0  0  0  0  0
   -1.7695    3.6835    4.3854 C   0  0  0  0  0  0  0  0  0  0  0  0
   -1.1830    2.5348    5.1285 N   0  0  1  0  0  0  0  0  0  0  0  0
   -1.7826    2.3358    6.4778 C   0  0  0  0  0  0  0  0  0  0  0  0
    0.2636   -5.3733    6.4575 H   0  0  0  0  0  0  0  0  0  0  0  0
    1.9995   -5.6439    6.3344 H   0  0  0  0  0  0  0  0  0  0  0  0
    0.9205   -6.2523    5.0701 H   0  0  0  0  0  0  0  0  0  0  0  0
    3.3237   -3.9816    4.5616 H   0  0  0  0  0  0  0  0  0  0  0  0
    2.3854   -4.8790    3.3527 H   0  0  0  0  0  0  0  0  0  0  0  0
    1.2777   -3.0445    2.6085 H   0  0  0  0  0  0  0  0  0  0  0  0
    4.1154   -2.3828    2.9612 H   0  0  0  0  0  0  0  0  0  0  0  0
    4.4573   -0.7381    0.6248 H   0  0  0  0  0  0  0  0  0  0  0  0
    4.9732   -2.4076    0.6945 H   0  0  0  0  0  0  0  0  0  0  0  0
    4.6151   -0.5073   -3.8691 H   0  0  0  0  0  0  0  0  0  0  0  0
    3.0320   -2.3188   -4.6935 H   0  0  0  0  0  0  0  0  0  0  0  0
    2.0596   -3.8555   -2.9668 H   0  0  0  0  0  0  0  0  0  0  0  0
    3.9922    0.0972    2.6739 H   0  0  0  0  0  0  0  0  0  0  0  0
    2.9974   -1.9971    5.8103 H   0  0  0  0  0  0  0  0  0  0  0  0
    2.0373   -0.6108    6.0934 H   0  0  0  0  0  0  0  0  0  0  0  0
   -0.7593   -1.3462    3.7735 H   0  0  0  0  0  0  0  0  0  0  0  0
    0.9478   -1.2662    1.6936 H   0  0  0  0  0  0  0  0  0  0  0  0
   -0.0190    0.1054    1.8745 H   0  0  0  0  0  0  0  0  0  0  0  0
    2.6690    2.4818    2.5943 H   0  0  0  0  0  0  0  0  0  0  0  0
    0.9427    2.2653    2.0194 H   0  0  0  0  0  0  0  0  0  0  0  0
    2.0910    1.5508    4.7481 H   0  0  0  0  0  0  0  0  0  0  0  0
    0.2544    0.3786    5.5524 H   0  0  0  0  0  0  0  0  0  0  0  0
   -2.0336    0.6702    4.5120 H   0  0  0  0  0  0  0  0  0  0  0  0
   -1.3957    1.3819    1.9561 H   0  0  0  0  0  0  0  0  0  0  0  0
   -1.8402    3.8642    2.1079 H   0  0  0  0  0  0  0  0  0  0  0  0
   -1.2302    4.6269    4.5635 H   0  0  0  0  0  0  0  0  0  0  0  0
   -2.8315    3.7943    4.6121 H   0  0  0  0  0  0  0  0  0  0  0  0
   -2.8486    2.0985    6.4030 H   0  0  0  0  0  0  0  0  0  0  0  0
   -1.6839    3.2399    7.0767 H   0  0  0  0  0  0  0  0  0  0  0  0
   -1.2921    1.5248    7.0166 H   0  0  0  0  0  0  0  0  0  0  0  0
   -0.2027    2.7707    5.2457 H   0  0  0  0  0  0  0  0  0  0  0  0
  1  2  1  0
  1 32  1  0
  1 33  1  0
  1 34  1  0
  2 18  1  0
  2  3  1  0
  3  4  1  0
  3 35  1  0
  3 36  1  0
  4 17  1  0
  4  5  1  0
  4 37  1  6
  5  6  1  0
  5 14  1  0
  5 38  1  1
  6  7  1  0
  7  8  1  0
  7 39  1  0
  7 40  1  0
  8 13  1  0
  8  9  2  0
  9 10  1  0
 10 11  2  0
 10 41  1  0
 11 12  1  0
 11 42  1  0
 12 13  2  0
 12 43  1  0
 14 22  1  0
 14 15  1  0
 14 44  1  6
 15 16  1  0
 17 16  1  1
 16 45  1  0
 16 46  1  0
 17 18  1  0
 17 20  1  0
 18 19  2  0
 20 25  1  0
 20 21  1  0
 20 47  1  6
 22 21  1  6
 21 48  1  0
 21 49  1  0
 22 24  1  0
 22 23  1  0
 23 24  1  0
 23 50  1  0
 23 51  1  0
 24 25  1  0
 24 52  1  1
 25 26  1  0
 25 53  1  1
 26 30  1  0
 26 27  1  0
 26 54  1  1
 27 28  2  0
 27 55  1  0
 28 29  1  0
 28 56  1  0
 29 30  1  0
 29 57  1  0
 29 58  1  0
 30 31  1  0
 30 62  1  1
 31 59  1  0
 31 60  1  0
 31 61  1  0
M  CHG  1  30   1
M  END
>  <i_m_ct_stereo_status>  (118) 
1

>  <s_m_source_file>  (118) 
/var/tmp/pbs.5076255.sched01/tmp7c02qu8j/38qwqhi24o.sdf

>  <i_m_source_file_index>  (118) 
13

>  <i_lp_mmshare_version>  (118) 
48012

>  <i_f3d_flags>  (118) 
0

>  <s_epik_input>  (118) 
bjFbY0hdW2NIXVtjSF1uYzFbQ0gyXU9bQ0BIXShbQ0BIXShbQ0BdMjM0KVtDSDJdTihbQ0gzXSlDMz1PKVtDQEhdKE9bQ0gyXTIpW0NAXTU2W0NAQEhdKFtDSDJdNilbQ0BIXShbQ0BIXTRbQ0gyXTUpW0NAQEhdN1tDSF09W0NIXVtDSDJdTjdbQ0gzXQ==

>  <s_epik_cmdline>  (118) 
J2VwaWtfcHl0aG9uJywgJy1waHQnLCAnMi4wJywgJy1waCcsICc3LjAnLCAnLXRuJywgJzgnLCAnLW1hJywgJzIwMCcsICctaW1hZScsICc8aW5maWxlLm1hZT4nLCAnLW9tYWUnLCAnPG91dGZpbGUubWFlPic=

>  <r_lp_tautomer_probability>  (118) 
1

>  <r_epik_Ionization_Penalty>  (118) 
0.000484386

>  <r_epik_Ionization_Penalty_Charging>  (118) 
0.000483552

>  <r_epik_Ionization_Penalty_Neutral>  (118) 
8.3419e-07

>  <r_epik_State_Penalty>  (118) 
0.000300167

>  <r_epik_Charging_Adjusted_Penalty>  (118) 
0.000783719

>  <i_epik_Tot_Q>  (118) 
1

>  <i_epik_Tot_abs_Q>  (118) 
1

>  <s_epik_Chemistry_Notes>  (118) 
This compound contains an electron-poor aromatic ring that is susceptible to covalent hydrolysis at low pH, typically resulting in measured values for nitrogen ring protonation that are around two units higher than predicted values.

>  <s_lp_Force_Field>  (118) 
OPLS3e

>  <r_lp_Energy>  (118) 
73.329

>  <b_lp_Chiralities_Consistent>  (118) 
1

>  <s_lp_Variant>  (118) 
35:0-1

>  <s_i_glide_gridfile>  (118) 
pfpi4k_grid

>  <i_i_glide_lignum>  (118) 
13

>  <i_i_glide_rotatable_bonds>  (118) 
4

>  <r_i_docking_score>  (118) 
-2.21725

>  <r_i_glide_ligand_efficiency>  (118) 
-0.0715244

>  <r_i_glide_ligand_efficiency_sa>  (118) 
-0.224685

>  <r_i_glide_ligand_efficiency_ln>  (118) 
-0.500059

>  <r_i_glide_gscore>  (118) 
-2.21725

>  <r_i_glide_lipo>  (118) 
-0.34244

>  <r_i_glide_hbond>  (118) 
0

>  <r_i_glide_metal>  (118) 
-0

>  <r_i_glide_rewards>  (118) 
-0.525071

>  <r_i_glide_evdw>  (118) 
-30.6346

>  <r_i_glide_ecoul>  (118) 
-1.33621

>  <r_i_glide_erotb>  (118) 
0.441982

>  <r_i_glide_esite>  (118) 
-0.0595657

>  <r_i_glide_emodel>  (118) 
-32.7643

>  <r_i_glide_energy>  (118) 
-31.9708

>  <r_i_glide_einternal>  (118) 
8.00821

>  <r_i_glide_intrahb_reward>  (118) 
-0

>  <i_i_glide_confnum>  (118) 
2

>  <i_i_glide_posenum>  (118) 
3

>  <r_i_glide_eff_state_penalty>  (118) 
0

>  <ligand_id>  (118) 
35

>  <original_smiles>  (118) 
CN1CC2C(OCc3ncccn3)C3OCC2(C1=O)C1CC32CC2C1C1C=CCN1C

>  <smiles>  (118) 
[H]C1=C([H])C([H])(C2([H])C3([H])C([H])([H])C4(C([H])([H])C24[H])C2([H])OC([H])([H])C34C(=O)N(C([H])([H])[H])C([H])([H])C4([H])C2([H])OC([H])([H])c2nc([H])c([H])c([H])n2)[N+]([H])(C([H])([H])[H])C1([H])[H]

$$$$
35:0:2
     RDKit          3D

 62 68  0  0  1  0  0  0  0  0999 V2000
   -0.9297   -3.6990    6.7234 C   0  0  0  0  0  0  0  0  0  0  0  0
   -0.2109   -2.8999    5.7406 N   0  0  0  0  0  0  0  0  0  0  0  0
    0.7915   -3.5066    4.8728 C   0  0  0  0  0  0  0  0  0  0  0  0
    1.0438   -2.4084    3.8378 C   0  0  2  0  0  0  0  0  0  0  0  0
    2.4190   -2.3815    3.1035 C   0  0  1  0  0  0  0  0  0  0  0  0
    2.2247   -2.8297    1.7642 O   0  0  0  0  0  0  0  0  0  0  0  0
    3.3876   -3.2511    1.0720 C   0  0  0  0  0  0  0  0  0  0  0  0
    3.3619   -2.7899   -0.3745 C   0  0  0  0  0  0  0  0  0  0  0  0
    4.1488   -1.7514   -0.6985 N   0  0  0  0  0  0  0  0  0  0  0  0
    4.0912   -1.3346   -1.9781 C   0  0  0  0  0  0  0  0  0  0  0  0
    3.2859   -1.9655   -2.9409 C   0  0  0  0  0  0  0  0  0  0  0  0
    2.5085   -3.0483   -2.4861 C   0  0  0  0  0  0  0  0  0  0  0  0
    2.5389   -3.4562   -1.2004 N   0  0  0  0  0  0  0  0  0  0  0  0
    3.0643   -0.9511    3.1647 C   0  0  2  0  0  0  0  0  0  0  0  0
    3.2671   -0.7039    4.5616 O   0  0  0  0  0  0  0  0  0  0  0  0
    2.1009   -0.7696    5.3957 C   0  0  0  0  0  0  0  0  0  0  0  0
    0.7913   -1.1038    4.6092 C   0  0  2  0  0  0  0  0  0  0  0  0
   -0.2683   -1.5608    5.6045 C   0  0  0  0  0  0  0  0  0  0  0  0
   -1.0284   -0.7840    6.1815 O   0  0  0  0  0  0  0  0  0  0  0  0
    0.2594    0.0418    3.6538 C   0  0  2  0  0  0  0  0  0  0  0  0
    0.8265   -0.1156    2.2439 C   0  0  0  0  0  0  0  0  0  0  0  0
    2.2557    0.2162    2.5271 C   0  0  2  0  0  0  0  0  0  0  0  0
    2.7416    1.5320    2.0123 C   0  0  0  0  0  0  0  0  0  0  0  0
    2.2320    1.4624    3.4305 C   0  0  1  0  0  0  0  0  0  0  0  0
    0.8004    1.4886    3.9862 C   0  0  1  0  0  0  0  0  0  0  0  0
   -0.0118    2.6756    3.4169 C   0  0  2  0  0  0  0  0  0  0  0  0
    0.6478    4.0074    3.6876 C   0  0  0  0  0  0  0  0  0  0  0  0
   -0.2088    4.8873    4.1866 C   0  0  0  0  0  0  0  0  0  0  0  0
   -1.5720    4.2795    4.3260 C   0  0  0  0  0  0  0  0  0  0  0  0
   -1.3167    2.8458    4.0976 N   0  0  1  0  0  0  0  0  0  0  0  0
   -2.4445    2.1622    3.4379 C   0  0  0  0  0  0  0  0  0  0  0  0
   -1.6708   -3.1199    7.2736 H   0  0  0  0  0  0  0  0  0  0  0  0
   -0.2204   -4.1075    7.4426 H   0  0  0  0  0  0  0  0  0  0  0  0
   -1.4390   -4.5417    6.2568 H   0  0  0  0  0  0  0  0  0  0  0  0
    1.6833   -3.7166    5.4684 H   0  0  0  0  0  0  0  0  0  0  0  0
    0.4332   -4.4309    4.4145 H   0  0  0  0  0  0  0  0  0  0  0  0
    0.2404   -2.5386    3.1086 H   0  0  0  0  0  0  0  0  0  0  0  0
    3.0772   -3.0884    3.6151 H   0  0  0  0  0  0  0  0  0  0  0  0
    4.3100   -2.9013    1.5394 H   0  0  0  0  0  0  0  0  0  0  0  0
    3.4299   -4.3371    1.0962 H   0  0  0  0  0  0  0  0  0  0  0  0
    4.7079   -0.4853   -2.2279 H   0  0  0  0  0  0  0  0  0  0  0  0
    3.2403   -1.6220   -3.9620 H   0  0  0  0  0  0  0  0  0  0  0  0
    1.8486   -3.5806   -3.1557 H   0  0  0  0  0  0  0  0  0  0  0  0
    4.0482   -0.9639    2.7003 H   0  0  0  0  0  0  0  0  0  0  0  0
    2.2861   -1.5252    6.1546 H   0  0  0  0  0  0  0  0  0  0  0  0
    2.0183    0.1499    5.9712 H   0  0  0  0  0  0  0  0  0  0  0  0
   -0.8117   -0.0695    3.6040 H   0  0  0  0  0  0  0  0  0  0  0  0
    0.6874   -1.0461    1.7114 H   0  0  0  0  0  0  0  0  0  0  0  0
    0.4071    0.6256    1.5679 H   0  0  0  0  0  0  0  0  0  0  0  0
    3.8107    1.5565    1.8424 H   0  0  0  0  0  0  0  0  0  0  0  0
    2.1453    2.0809    1.2837 H   0  0  0  0  0  0  0  0  0  0  0  0
    3.0166    1.6494    4.1641 H   0  0  0  0  0  0  0  0  0  0  0  0
    0.8533    1.6418    5.0644 H   0  0  0  0  0  0  0  0  0  0  0  0
   -0.1458    2.5896    2.3413 H   0  0  0  0  0  0  0  0  0  0  0  0
    1.6866    4.2153    3.4446 H   0  0  0  0  0  0  0  0  0  0  0  0
    0.0117    5.9206    4.4220 H   0  0  0  0  0  0  0  0  0  0  0  0
   -2.0199    4.4507    5.2996 H   0  0  0  0  0  0  0  0  0  0  0  0
   -2.2189    4.6761    3.5462 H   0  0  0  0  0  0  0  0  0  0  0  0
   -2.6719    2.5800    2.4479 H   0  0  0  0  0  0  0  0  0  0  0  0
   -3.3589    2.2583    4.0363 H   0  0  0  0  0  0  0  0  0  0  0  0
   -2.1821    1.1334    3.3201 H   0  0  0  0  0  0  0  0  0  0  0  0
   -1.1751    2.4398    5.0084 H   0  0  0  0  0  0  0  0  0  0  0  0
  1  2  1  0
  1 32  1  0
  1 33  1  0
  1 34  1  0
  2 18  1  0
  2  3  1  0
  3  4  1  0
  3 35  1  0
  3 36  1  0
  4 17  1  0
  4  5  1  0
  4 37  1  6
  5  6  1  0
  5 14  1  0
  5 38  1  1
  6  7  1  0
  7  8  1  0
  7 39  1  0
  7 40  1  0
  8 13  1  0
  8  9  2  0
  9 10  1  0
 10 11  2  0
 10 41  1  0
 11 12  1  0
 11 42  1  0
 12 13  2  0
 12 43  1  0
 14 22  1  0
 14 15  1  0
 14 44  1  6
 15 16  1  0
 17 16  1  1
 16 45  1  0
 16 46  1  0
 17 18  1  0
 17 20  1  0
 18 19  2  0
 20 25  1  0
 20 21  1  0
 20 47  1  6
 22 21  1  6
 21 48  1  0
 21 49  1  0
 22 24  1  0
 22 23  1  0
 23 24  1  0
 23 50  1  0
 23 51  1  0
 24 25  1  0
 24 52  1  1
 25 26  1  0
 25 53  1  1
 26 30  1  0
 26 27  1  0
 26 54  1  6
 27 28  2  0
 27 55  1  0
 28 29  1  0
 28 56  1  0
 29 30  1  0
 29 57  1  0
 29 58  1  0
 30 31  1  0
 30 62  1  1
 31 59  1  0
 31 60  1  0
 31 61  1  0
M  CHG  1  30   1
M  END
>  <i_m_ct_stereo_status>  (119) 
1

>  <s_m_source_file>  (119) 
/var/tmp/pbs.5076255.sched01/tmp7c02qu8j/38qwqhi24o.sdf

>  <i_m_source_file_index>  (119) 
13

>  <i_lp_mmshare_version>  (119) 
48012

>  <i_f3d_flags>  (119) 
0

>  <s_epik_input>  (119) 
bjFbY0hdW2NIXVtjSF1uYzFbQ0gyXU9bQ0BIXShbQ0BIXShbQ0BdMjM0KVtDSDJdTihbQ0gzXSlDMz1PKVtDQEhdKE9bQ0gyXTIpW0NAXTU2W0NAQEhdKFtDSDJdNilbQ0BIXShbQ0BIXTRbQ0gyXTUpW0NAQEhdN1tDSF09W0NIXVtDSDJdTjdbQ0gzXQ==

>  <s_epik_cmdline>  (119) 
J2VwaWtfcHl0aG9uJywgJy1waHQnLCAnMi4wJywgJy1waCcsICc3LjAnLCAnLXRuJywgJzgnLCAnLW1hJywgJzIwMCcsICctaW1hZScsICc8aW5maWxlLm1hZT4nLCAnLW9tYWUnLCAnPG91dGZpbGUubWFlPic=

>  <r_lp_tautomer_probability>  (119) 
1

>  <r_epik_Ionization_Penalty>  (119) 
0.000484386

>  <r_epik_Ionization_Penalty_Charging>  (119) 
0.000483552

>  <r_epik_Ionization_Penalty_Neutral>  (119) 
8.3419e-07

>  <r_epik_State_Penalty>  (119) 
0.000300167

>  <r_epik_Charging_Adjusted_Penalty>  (119) 
0.000783719

>  <i_epik_Tot_Q>  (119) 
1

>  <i_epik_Tot_abs_Q>  (119) 
1

>  <s_epik_Chemistry_Notes>  (119) 
This compound contains an electron-poor aromatic ring that is susceptible to covalent hydrolysis at low pH, typically resulting in measured values for nitrogen ring protonation that are around two units higher than predicted values.

>  <s_lp_Force_Field>  (119) 
OPLS3e

>  <r_lp_Energy>  (119) 
73.329

>  <b_lp_Chiralities_Consistent>  (119) 
1

>  <s_lp_Variant>  (119) 
35:0-1

>  <s_i_glide_gridfile>  (119) 
pfpi4k_grid

>  <i_i_glide_lignum>  (119) 
13

>  <i_i_glide_rotatable_bonds>  (119) 
4

>  <r_i_docking_score>  (119) 
-1.9823

>  <r_i_glide_ligand_efficiency>  (119) 
-0.0639451

>  <r_i_glide_ligand_efficiency_sa>  (119) 
-0.200876

>  <r_i_glide_ligand_efficiency_ln>  (119) 
-0.447069

>  <r_i_glide_gscore>  (119) 
-1.9823

>  <r_i_glide_lipo>  (119) 
-0.0751817

>  <r_i_glide_hbond>  (119) 
-0.0367968

>  <r_i_glide_metal>  (119) 
-0

>  <r_i_glide_rewards>  (119) 
-0.5214

>  <r_i_glide_evdw>  (119) 
-24.9902

>  <r_i_glide_ecoul>  (119) 
-2.91493

>  <r_i_glide_erotb>  (119) 
0.441982

>  <r_i_glide_esite>  (119) 
-0.104153

>  <r_i_glide_emodel>  (119) 
-30.6704

>  <r_i_glide_energy>  (119) 
-27.9051

>  <r_i_glide_einternal>  (119) 
2.32357

>  <r_i_glide_intrahb_reward>  (119) 
-0

>  <i_i_glide_confnum>  (119) 
1

>  <i_i_glide_posenum>  (119) 
23

>  <r_i_glide_eff_state_penalty>  (119) 
0

>  <ligand_id>  (119) 
35

>  <original_smiles>  (119) 
CN1CC2C(OCc3ncccn3)C3OCC2(C1=O)C1CC32CC2C1C1C=CCN1C

>  <smiles>  (119) 
[H]C1=C([H])C([H])(C2([H])C3([H])C([H])([H])C4(C([H])([H])C24[H])C2([H])OC([H])([H])C34C(=O)N(C([H])([H])[H])C([H])([H])C4([H])C2([H])OC([H])([H])c2nc([H])c([H])c([H])n2)[N+]([H])(C([H])([H])[H])C1([H])[H]

$$$$
36:0:0
     RDKit          3D

 90 98  0  0  1  0  0  0  0  0999 V2000
    1.2457   -4.7967    4.4123 C   0  0  0  0  0  0  0  0  0  0  0  0
    1.7498   -5.7251    3.4522 O   0  0  0  0  0  0  0  0  0  0  0  0
    3.0691   -5.4491    2.9791 C   0  0  2  0  0  0  0  0  0  0  0  0
    2.9022   -4.2728    1.9754 C   0  0  0  0  0  0  0  0  0  0  0  0
    3.9194   -4.1976    0.8299 C   0  0  1  0  0  0  0  0  0  0  0  0
    3.1914   -4.0065   -0.4971 C   0  0  0  0  0  0  0  0  0  0  0  0
    4.8415   -3.0566    1.1592 C   0  0  2  0  0  0  0  0  0  0  0  0
    5.6960   -3.0131    2.4075 C   0  0  0  0  0  0  0  0  0  0  0  0
    6.0104   -4.0016    1.3085 C   0  0  2  0  0  0  0  0  0  0  0  0
    7.2059   -3.8294    0.5536 C   0  0  0  0  0  0  0  0  0  0  0  0
    8.1937   -3.6729   -0.0504 N   0  0  0  0  0  0  0  0  0  0  0  0
    5.1293   -5.1494    0.8487 C   0  0  1  0  0  0  0  0  0  0  0  0
    5.0551   -6.4817    1.6380 C   0  0  2  0  0  0  0  0  0  0  0  0
    3.6529   -6.7150    2.2702 C   0  0  1  0  0  0  0  0  0  0  0  0
    3.4931   -8.1782    2.8492 C   0  0  1  0  0  0  0  0  0  0  0  0
    4.7965   -9.0089    3.0412 C   0  0  1  0  0  0  0  0  0  0  0  0
    5.9025   -8.0597    3.5377 C   0  0  2  0  0  0  0  0  0  0  0  0
    7.0847   -8.7831    3.8131 O   0  0  0  0  0  0  0  0  0  0  0  0
    5.4510   -7.4270    4.8683 C   0  0  0  0  0  0  0  0  0  0  0  0
    4.5972   -8.2982    5.8058 C   0  0  1  0  0  0  0  0  0  0  0  0
    3.9408   -7.3563    6.8466 C   0  0  0  0  0  0  0  0  0  0  0  0
    3.5810   -9.2745    5.0888 C   0  0  2  0  0  0  0  0  0  0  0  0
    2.9278  -10.1743    6.1924 C   0  0  0  0  0  0  0  0  0  0  0  0
    3.9383  -11.1070    6.8932 C   0  0  0  0  0  0  0  0  0  0  0  0
    4.7507  -11.9414    5.8870 C   0  0  1  0  0  0  0  0  0  0  0  0
    3.9675  -13.0233    5.4093 O   0  0  0  0  0  0  0  0  0  0  0  0
    5.3426  -11.0884    4.7271 C   0  0  0  0  0  0  0  0  0  0  0  0
    4.3052  -10.1362    4.0310 C   0  0  2  0  0  0  0  0  0  0  0  0
    3.3218  -11.0177    3.1583 C   0  0  0  0  0  0  0  0  0  0  0  0
    1.8021  -10.7405    3.3179 C   0  0  0  0  0  0  0  0  0  0  0  0
    1.4741   -9.3348    3.6834 N   0  0  1  0  0  0  0  0  0  0  0  0
    0.2439   -9.1962    4.4909 C   0  0  0  0  0  0  0  0  0  0  0  0
   -0.9573   -8.9438    3.6028 C   0  0  0  0  0  0  0  0  0  0  0  0
   -0.9857   -7.7735    2.6306 C   0  0  0  0  0  0  0  0  0  0  0  0
   -1.8543   -7.7413    3.8514 C   0  0  0  0  0  0  0  0  0  0  0  0
    2.6228   -8.5002    4.1274 C   0  0  2  0  0  0  0  0  0  0  0  0
    6.3211   -6.9867    2.4501 C   0  0  0  0  0  0  0  0  0  0  0  0
    7.2756   -7.5944    1.3813 C   0  0  0  0  0  0  0  0  0  0  0  0
    7.1813   -5.9042    3.1549 C   0  0  0  0  0  0  0  0  0  0  0  0
    0.2906   -5.1609    4.7920 H   0  0  0  0  0  0  0  0  0  0  0  0
    1.0720   -3.8113    3.9826 H   0  0  0  0  0  0  0  0  0  0  0  0
    1.9201   -4.6975    5.2652 H   0  0  0  0  0  0  0  0  0  0  0  0
    3.7165   -5.1230    3.7943 H   0  0  0  0  0  0  0  0  0  0  0  0
    1.9102   -4.3381    1.5417 H   0  0  0  0  0  0  0  0  0  0  0  0
    2.8778   -3.3264    2.5187 H   0  0  0  0  0  0  0  0  0  0  0  0
    3.8629   -3.8612   -1.3460 H   0  0  0  0  0  0  0  0  0  0  0  0
    2.5036   -3.1640   -0.4842 H   0  0  0  0  0  0  0  0  0  0  0  0
    2.5999   -4.8873   -0.7181 H   0  0  0  0  0  0  0  0  0  0  0  0
    4.9206   -2.2635    0.4136 H   0  0  0  0  0  0  0  0  0  0  0  0
    6.3408   -2.1466    2.4892 H   0  0  0  0  0  0  0  0  0  0  0  0
    5.3196   -3.4038    3.3539 H   0  0  0  0  0  0  0  0  0  0  0  0
    5.3772   -5.3570   -0.1913 H   0  0  0  0  0  0  0  0  0  0  0  0
    4.9920   -7.2389    0.8532 H   0  0  0  0  0  0  0  0  0  0  0  0
    2.9893   -6.7474    1.4039 H   0  0  0  0  0  0  0  0  0  0  0  0
    3.0025   -8.6726    2.0079 H   0  0  0  0  0  0  0  0  0  0  0  0
    5.1101   -9.4531    2.0961 H   0  0  0  0  0  0  0  0  0  0  0  0
    6.8784   -9.5506    4.3103 H   0  0  0  0  0  0  0  0  0  0  0  0
    6.3520   -7.1581    5.4168 H   0  0  0  0  0  0  0  0  0  0  0  0
    4.9462   -6.4840    4.7156 H   0  0  0  0  0  0  0  0  0  0  0  0
    5.3290   -8.8709    6.3726 H   0  0  0  0  0  0  0  0  0  0  0  0
    3.2207   -6.6820    6.3828 H   0  0  0  0  0  0  0  0  0  0  0  0
    4.7086   -6.7310    7.3109 H   0  0  0  0  0  0  0  0  0  0  0  0
    3.4451   -7.8923    7.6585 H   0  0  0  0  0  0  0  0  0  0  0  0
    2.3842   -9.5898    6.9337 H   0  0  0  0  0  0  0  0  0  0  0  0
    2.1722  -10.8424    5.8044 H   0  0  0  0  0  0  0  0  0  0  0  0
    4.6159  -10.5260    7.5236 H   0  0  0  0  0  0  0  0  0  0  0  0
    3.4216  -11.7710    7.5843 H   0  0  0  0  0  0  0  0  0  0  0  0
    5.5835  -12.3871    6.4372 H   0  0  0  0  0  0  0  0  0  0  0  0
    3.3768  -13.3324    6.0945 H   0  0  0  0  0  0  0  0  0  0  0  0
    6.1425  -10.5245    5.1932 H   0  0  0  0  0  0  0  0  0  0  0  0
    5.8230  -11.7349    3.9875 H   0  0  0  0  0  0  0  0  0  0  0  0
    3.5665  -10.8968    2.1011 H   0  0  0  0  0  0  0  0  0  0  0  0
    3.4799  -12.0814    3.3066 H   0  0  0  0  0  0  0  0  0  0  0  0
    1.2813  -10.9745    2.3914 H   0  0  0  0  0  0  0  0  0  0  0  0
    1.3958  -11.4732    4.0168 H   0  0  0  0  0  0  0  0  0  0  0  0
    0.0300  -10.0842    5.0891 H   0  0  0  0  0  0  0  0  0  0  0  0
    0.3098   -8.3713    5.2030 H   0  0  0  0  0  0  0  0  0  0  0  0
   -1.4549   -9.8599    3.2525 H   0  0  0  0  0  0  0  0  0  0  0  0
   -0.0963   -7.1411    2.5886 H   0  0  0  0  0  0  0  0  0  0  0  0
   -1.4586   -7.9791    1.6745 H   0  0  0  0  0  0  0  0  0  0  0  0
   -2.9211   -7.8629    3.6812 H   0  0  0  0  0  0  0  0  0  0  0  0
   -1.5863   -7.0497    4.6540 H   0  0  0  0  0  0  0  0  0  0  0  0
    2.2850   -7.5983    4.6305 H   0  0  0  0  0  0  0  0  0  0  0  0
    8.2496   -7.8806    1.7895 H   0  0  0  0  0  0  0  0  0  0  0  0
    7.4762   -6.8666    0.5950 H   0  0  0  0  0  0  0  0  0  0  0  0
    6.8442   -8.4849    0.9134 H   0  0  0  0  0  0  0  0  0  0  0  0
    7.9411   -6.3437    3.8055 H   0  0  0  0  0  0  0  0  0  0  0  0
    6.5843   -5.2253    3.7637 H   0  0  0  0  0  0  0  0  0  0  0  0
    7.7625   -5.3242    2.4512 H   0  0  0  0  0  0  0  0  0  0  0  0
    1.2233   -8.9260    2.7868 H   0  0  0  0  0  0  0  0  0  0  0  0
  1  2  1  0
  1 40  1  0
  1 41  1  0
  1 42  1  0
  2  3  1  0
  3 14  1  0
  3  4  1  0
  3 43  1  1
  4  5  1  0
  4 44  1  0
  4 45  1  0
  5 12  1  0
  5  6  1  6
  5  7  1  0
  6 46  1  0
  6 47  1  0
  6 48  1  0
  7  9  1  0
  7  8  1  0
  7 49  1  6
  8  9  1  0
  8 50  1  0
  8 51  1  0
  9 10  1  6
  9 12  1  0
 10 11  3  0
 12 13  1  0
 12 52  1  6
 13 37  1  0
 13 14  1  0
 13 53  1  6
 14 15  1  0
 14 54  1  6
 15 36  1  0
 15 16  1  0
 15 55  1  6
 16 28  1  0
 16 17  1  0
 16 56  1  6
 17 18  1  1
 17 19  1  0
 17 37  1  0
 18 57  1  0
 19 20  1  0
 19 58  1  0
 19 59  1  0
 20 21  1  0
 20 22  1  0
 20 60  1  1
 21 61  1  0
 21 62  1  0
 21 63  1  0
 22 28  1  0
 22 36  1  0
 22 23  1  1
 23 24  1  0
 23 64  1  0
 23 65  1  0
 24 25  1  0
 24 66  1  0
 24 67  1  0
 25 26  1  0
 25 27  1  0
 25 68  1  1
 26 69  1  0
 28 27  1  1
 27 70  1  0
 27 71  1  0
 28 29  1  0
 29 30  1  0
 29 72  1  0
 29 73  1  0
 30 31  1  0
 30 74  1  0
 30 75  1  0
 31 32  1  0
 31 36  1  0
 31 90  1  6
 32 33  1  0
 32 76  1  0
 32 77  1  0
 33 35  1  0
 33 34  1  0
 33 78  1  0
 34 35  1  0
 34 79  1  0
 34 80  1  0
 35 81  1  0
 35 82  1  0
 36 83  1  1
 37 38  1  0
 37 39  1  0
 38 84  1  0
 38 85  1  0
 38 86  1  0
 39 87  1  0
 39 88  1  0
 39 89  1  0
M  CHG  1  31   1
M  END
>  <i_m_ct_stereo_status>  (120) 
1

>  <s_m_source_file>  (120) 
/var/tmp/pbs.5076255.sched01/tmp7c02qu8j/38qwqhi24o.sdf

>  <i_m_source_file_index>  (120) 
14

>  <i_lp_mmshare_version>  (120) 
48012

>  <i_f3d_flags>  (120) 
2

>  <s_epik_input>  (120) 
W0NIM11PW0NAQEhdMVtDSDJdW0NAQF0oW0NIM10pKFtDQEhdMltDQF0zKFtDSDJdMilDI04pW0NASF0zW0NAQEhdKEMoW0NIM10pKFtDSDNdKVtDQEBdNChbT0hdKVtDSDJdW0NASF01W0NIM10pW0NASF0xW0NASF0oW0NAQEhdNFtDQF02KFtDQF01NzgpW0NIMl1bQ0BIXShbT0hdKVtDSDJdW0NIMl03KVtDQEhdOE4oW0NIMl1bQ0gyXTYpW0NIMl1bQ0hdOVtDSDJdW0NIMl05

>  <s_epik_cmdline>  (120) 
J2VwaWtfcHl0aG9uJywgJy1waHQnLCAnMi4wJywgJy1waCcsICc3LjAnLCAnLXRuJywgJzgnLCAnLW1hJywgJzIwMCcsICctaW1hZScsICc8aW5maWxlLm1hZT4nLCAnLW9tYWUnLCAnPG91dGZpbGUubWFlPic=

>  <r_epik_Ionization_Penalty>  (120) 
0.000307374

>  <r_epik_Ionization_Penalty_Charging>  (120) 
0.00030694

>  <r_epik_Ionization_Penalty_Neutral>  (120) 
4.3393e-07

>  <r_epik_State_Penalty>  (120) 
0.000184801

>  <r_epik_Charging_Adjusted_Penalty>  (120) 
0.000491741

>  <i_epik_Tot_Q>  (120) 
1

>  <i_epik_Tot_abs_Q>  (120) 
1

>  <s_lp_Force_Field>  (120) 
OPLS3e

>  <r_lp_Energy>  (120) 
149.265

>  <b_lp_Chiralities_Consistent>  (120) 
0

>  <s_lp_Variant>  (120) 
36:0-1

>  <s_i_glide_gridfile>  (120) 
pfpi4k_grid

>  <i_i_glide_lignum>  (120) 
14

>  <i_i_glide_rotatable_bonds>  (120) 
6

>  <r_i_docking_score>  (120) 
-2.96624

>  <r_i_glide_ligand_efficiency>  (120) 
-0.0760574

>  <r_i_glide_ligand_efficiency_sa>  (120) 
-0.257927

>  <r_i_glide_ligand_efficiency_ln>  (120) 
-0.636046

>  <r_i_glide_gscore>  (120) 
-2.96624

>  <r_i_glide_lipo>  (120) 
-0.47476

>  <r_i_glide_hbond>  (120) 
-0.16

>  <r_i_glide_metal>  (120) 
-0

>  <r_i_glide_rewards>  (120) 
-0.183292

>  <r_i_glide_evdw>  (120) 
-25.1322

>  <r_i_glide_ecoul>  (120) 
-6.80807

>  <r_i_glide_erotb>  (120) 
0.143847

>  <r_i_glide_esite>  (120) 
-0.0142124

>  <r_i_glide_emodel>  (120) 
-36.4679

>  <r_i_glide_energy>  (120) 
-31.9403

>  <r_i_glide_einternal>  (120) 
4.36869

>  <r_i_glide_intrahb_reward>  (120) 
-0

>  <i_i_glide_confnum>  (120) 
4

>  <i_i_glide_posenum>  (120) 
24

>  <r_i_glide_eff_state_penalty>  (120) 
0

>  <ligand_id>  (120) 
36

>  <original_smiles>  (120) 
COC1CC2(C)C3CC3(C#N)C2C2C1C1C3C(O)(CC(C)C45CCC(O)CC34CCN(CC3CC3)C15)C2(C)C

>  <smiles>  (120) 
[H]OC1([H])C([H])([H])C([H])([H])C23C([H])(C([H])([H])[H])C([H])([H])C4(O[H])C5([H])C([H])(C6([H])C([H])(OC([H])([H])[H])C([H])([H])C7(C([H])([H])[H])C8([H])C([H])([H])C8(C#N)C7([H])C6([H])C4(C([H])([H])[H])C([H])([H])[H])C2([H])[N+]([H])(C([H])([H])C2([H])C([H])([H])C2([H])[H])C([H])([H])C([H])([H])C53C1([H])[H]

$$$$
36:0:1
     RDKit          3D

 90 98  0  0  1  0  0  0  0  0999 V2000
    1.3061   -4.8818    4.3760 C   0  0  0  0  0  0  0  0  0  0  0  0
    1.8533   -5.8212    3.4515 O   0  0  0  0  0  0  0  0  0  0  0  0
    3.1790   -5.5339    3.0069 C   0  0  2  0  0  0  0  0  0  0  0  0
    3.0138   -4.3894    1.9666 C   0  0  0  0  0  0  0  0  0  0  0  0
    4.0585   -4.3252    0.8466 C   0  0  1  0  0  0  0  0  0  0  0  0
    3.3658   -4.1704   -0.5037 C   0  0  0  0  0  0  0  0  0  0  0  0
    4.9504   -3.1594    1.1679 C   0  0  2  0  0  0  0  0  0  0  0  0
    5.7730   -3.0593    2.4329 C   0  0  0  0  0  0  0  0  0  0  0  0
    6.1335   -4.0750    1.3737 C   0  0  2  0  0  0  0  0  0  0  0  0
    7.3364   -3.9030    0.6361 C   0  0  0  0  0  0  0  0  0  0  0  0
    8.3341   -3.7478    0.0448 N   0  0  0  0  0  0  0  0  0  0  0  0
    5.2844   -5.2528    0.9219 C   0  0  1  0  0  0  0  0  0  0  0  0
    5.2164   -6.5640    1.7463 C   0  0  2  0  0  0  0  0  0  0  0  0
    3.8049   -6.8074    2.3496 C   0  0  1  0  0  0  0  0  0  0  0  0
    3.6621   -8.2558    2.9648 C   0  0  1  0  0  0  0  0  0  0  0  0
    4.9749   -9.0563    3.2117 C   0  0  1  0  0  0  0  0  0  0  0  0
    6.0573   -8.0763    3.7039 C   0  0  2  0  0  0  0  0  0  0  0  0
    7.2428   -8.7808    4.0156 O   0  0  0  0  0  0  0  0  0  0  0  0
    5.5543   -7.4189    5.0084 C   0  0  0  0  0  0  0  0  0  0  0  0
    4.6862   -8.2750    5.9498 C   0  0  1  0  0  0  0  0  0  0  0  0
    3.9823   -7.3171    6.9437 C   0  0  0  0  0  0  0  0  0  0  0  0
    3.7067   -9.2914    5.2343 C   0  0  2  0  0  0  0  0  0  0  0  0
    3.0393  -10.1742    6.3442 C   0  0  0  0  0  0  0  0  0  0  0  0
    4.0506  -11.0655    7.0971 C   0  0  0  0  0  0  0  0  0  0  0  0
    4.9255  -11.8991    6.1419 C   0  0  1  0  0  0  0  0  0  0  0  0
    4.2128  -13.0410    5.6868 O   0  0  0  0  0  0  0  0  0  0  0  0
    5.5170  -11.0695    4.9642 C   0  0  0  0  0  0  0  0  0  0  0  0
    4.4769  -10.1641    4.2204 C   0  0  2  0  0  0  0  0  0  0  0  0
    3.5360  -11.0929    3.3560 C   0  0  0  0  0  0  0  0  0  0  0  0
    2.0089  -10.8345    3.4341 C   0  0  0  0  0  0  0  0  0  0  0  0
    1.6389   -9.4268    3.7639 N   0  0  1  0  0  0  0  0  0  0  0  0
    0.3861   -9.2948    4.5407 C   0  0  0  0  0  0  0  0  0  0  0  0
   -0.8003   -9.1195    3.6165 C   0  0  0  0  0  0  0  0  0  0  0  0
   -0.9331   -7.9022    2.7172 C   0  0  0  0  0  0  0  0  0  0  0  0
   -1.8403   -8.0523    3.9030 C   0  0  0  0  0  0  0  0  0  0  0  0
    2.7629   -8.5601    4.2254 C   0  0  2  0  0  0  0  0  0  0  0  0
    6.4732   -7.0239    2.5988 C   0  0  0  0  0  0  0  0  0  0  0  0
    7.4637   -7.6375    1.5694 C   0  0  0  0  0  0  0  0  0  0  0  0
    7.2879   -5.9057    3.2978 C   0  0  0  0  0  0  0  0  0  0  0  0
    0.3479   -5.2546    4.7395 H   0  0  0  0  0  0  0  0  0  0  0  0
    1.1256   -3.9109    3.9177 H   0  0  0  0  0  0  0  0  0  0  0  0
    1.9545   -4.7482    5.2436 H   0  0  0  0  0  0  0  0  0  0  0  0
    3.7989   -5.1719    3.8278 H   0  0  0  0  0  0  0  0  0  0  0  0
    2.0374   -4.4854    1.5052 H   0  0  0  0  0  0  0  0  0  0  0  0
    2.9546   -3.4273    2.4791 H   0  0  0  0  0  0  0  0  0  0  0  0
    4.0571   -4.0437   -1.3417 H   0  0  0  0  0  0  0  0  0  0  0  0
    2.6618   -3.3417   -0.5326 H   0  0  0  0  0  0  0  0  0  0  0  0
    2.7847   -5.0608   -0.7086 H   0  0  0  0  0  0  0  0  0  0  0  0
    5.0317   -2.3879    0.4012 H   0  0  0  0  0  0  0  0  0  0  0  0
    6.3890   -2.1664    2.4978 H   0  0  0  0  0  0  0  0  0  0  0  0
    5.3780   -3.4313    3.3789 H   0  0  0  0  0  0  0  0  0  0  0  0
    5.5641   -5.4786   -0.1066 H   0  0  0  0  0  0  0  0  0  0  0  0
    5.1870   -7.3431    0.9824 H   0  0  0  0  0  0  0  0  0  0  0  0
    3.1626   -6.8762    1.4688 H   0  0  0  0  0  0  0  0  0  0  0  0
    3.2020   -8.7820    2.1260 H   0  0  0  0  0  0  0  0  0  0  0  0
    5.3122   -9.5224    2.2870 H   0  0  0  0  0  0  0  0  0  0  0  0
    7.4897   -9.2917    3.2684 H   0  0  0  0  0  0  0  0  0  0  0  0
    6.4324   -7.1191    5.5748 H   0  0  0  0  0  0  0  0  0  0  0  0
    5.0347   -6.4905    4.8164 H   0  0  0  0  0  0  0  0  0  0  0  0
    5.4138   -8.8186    6.5503 H   0  0  0  0  0  0  0  0  0  0  0  0
    3.2618   -6.6690    6.4450 H   0  0  0  0  0  0  0  0  0  0  0  0
    4.7232   -6.6637    7.4110 H   0  0  0  0  0  0  0  0  0  0  0  0
    3.4756   -7.8376    7.7578 H   0  0  0  0  0  0  0  0  0  0  0  0
    2.4675   -9.5776    7.0550 H   0  0  0  0  0  0  0  0  0  0  0  0
    2.3065  -10.8660    5.9514 H   0  0  0  0  0  0  0  0  0  0  0  0
    4.6961  -10.4517    7.7278 H   0  0  0  0  0  0  0  0  0  0  0  0
    3.5321  -11.7214    7.7946 H   0  0  0  0  0  0  0  0  0  0  0  0
    5.7539  -12.2979    6.7292 H   0  0  0  0  0  0  0  0  0  0  0  0
    3.5876  -13.3229    6.3406 H   0  0  0  0  0  0  0  0  0  0  0  0
    6.2963  -10.4544    5.3992 H   0  0  0  0  0  0  0  0  0  0  0  0
    6.0263  -11.7272    4.2571 H   0  0  0  0  0  0  0  0  0  0  0  0
    3.8159  -11.0005    2.3066 H   0  0  0  0  0  0  0  0  0  0  0  0
    3.7059  -12.1478    3.5416 H   0  0  0  0  0  0  0  0  0  0  0  0
    1.5495  -11.1090    2.4796 H   0  0  0  0  0  0  0  0  0  0  0  0
    1.5915  -11.5556    4.1391 H   0  0  0  0  0  0  0  0  0  0  0  0
    0.1891  -10.1612    5.1766 H   0  0  0  0  0  0  0  0  0  0  0  0
    0.4067   -8.4359    5.2125 H   0  0  0  0  0  0  0  0  0  0  0  0
   -1.1791  -10.0642    3.2048 H   0  0  0  0  0  0  0  0  0  0  0  0
   -0.1264   -7.1690    2.7576 H   0  0  0  0  0  0  0  0  0  0  0  0
   -1.3540   -8.0890    1.7304 H   0  0  0  0  0  0  0  0  0  0  0  0
   -2.8776   -8.2831    3.6789 H   0  0  0  0  0  0  0  0  0  0  0  0
   -1.6859   -7.3869    4.7548 H   0  0  0  0  0  0  0  0  0  0  0  0
    2.3916   -7.6549    4.6959 H   0  0  0  0  0  0  0  0  0  0  0  0
    8.4400   -7.8776    2.0011 H   0  0  0  0  0  0  0  0  0  0  0  0
    7.6609   -6.9266    0.7689 H   0  0  0  0  0  0  0  0  0  0  0  0
    7.0633   -8.5477    1.1142 H   0  0  0  0  0  0  0  0  0  0  0  0
    8.0389   -6.3062    3.9841 H   0  0  0  0  0  0  0  0  0  0  0  0
    6.6556   -5.2243    3.8668 H   0  0  0  0  0  0  0  0  0  0  0  0
    7.8755   -5.3410    2.5882 H   0  0  0  0  0  0  0  0  0  0  0  0
    1.4009   -9.0414    2.8549 H   0  0  0  0  0  0  0  0  0  0  0  0
  1  2  1  0
  1 40  1  0
  1 41  1  0
  1 42  1  0
  2  3  1  0
  3 14  1  0
  3  4  1  0
  3 43  1  1
  4  5  1  0
  4 44  1  0
  4 45  1  0
  5 12  1  0
  5  6  1  6
  5  7  1  0
  6 46  1  0
  6 47  1  0
  6 48  1  0
  7  9  1  0
  7  8  1  0
  7 49  1  6
  8  9  1  0
  8 50  1  0
  8 51  1  0
  9 10  1  6
  9 12  1  0
 10 11  3  0
 12 13  1  0
 12 52  1  6
 13 37  1  0
 13 14  1  0
 13 53  1  6
 14 15  1  0
 14 54  1  6
 15 36  1  0
 15 16  1  0
 15 55  1  6
 16 28  1  0
 16 17  1  0
 16 56  1  6
 17 18  1  1
 17 19  1  0
 17 37  1  0
 18 57  1  0
 19 20  1  0
 19 58  1  0
 19 59  1  0
 20 21  1  0
 20 22  1  0
 20 60  1  1
 21 61  1  0
 21 62  1  0
 21 63  1  0
 22 28  1  0
 22 36  1  0
 22 23  1  1
 23 24  1  0
 23 64  1  0
 23 65  1  0
 24 25  1  0
 24 66  1  0
 24 67  1  0
 25 26  1  0
 25 27  1  0
 25 68  1  1
 26 69  1  0
 28 27  1  1
 27 70  1  0
 27 71  1  0
 28 29  1  0
 29 30  1  0
 29 72  1  0
 29 73  1  0
 30 31  1  0
 30 74  1  0
 30 75  1  0
 31 32  1  0
 31 36  1  0
 31 90  1  6
 32 33  1  0
 32 76  1  0
 32 77  1  0
 33 35  1  0
 33 34  1  0
 33 78  1  0
 34 35  1  0
 34 79  1  0
 34 80  1  0
 35 81  1  0
 35 82  1  0
 36 83  1  1
 37 38  1  0
 37 39  1  0
 38 84  1  0
 38 85  1  0
 38 86  1  0
 39 87  1  0
 39 88  1  0
 39 89  1  0
M  CHG  1  31   1
M  END
>  <i_m_ct_stereo_status>  (121) 
1

>  <s_m_source_file>  (121) 
/var/tmp/pbs.5076255.sched01/tmp7c02qu8j/38qwqhi24o.sdf

>  <i_m_source_file_index>  (121) 
14

>  <i_lp_mmshare_version>  (121) 
48012

>  <i_f3d_flags>  (121) 
2

>  <s_epik_input>  (121) 
W0NIM11PW0NAQEhdMVtDSDJdW0NAQF0oW0NIM10pKFtDQEhdMltDQF0zKFtDSDJdMilDI04pW0NASF0zW0NAQEhdKEMoW0NIM10pKFtDSDNdKVtDQEBdNChbT0hdKVtDSDJdW0NASF01W0NIM10pW0NASF0xW0NASF0oW0NAQEhdNFtDQF02KFtDQF01NzgpW0NIMl1bQ0BIXShbT0hdKVtDSDJdW0NIMl03KVtDQEhdOE4oW0NIMl1bQ0gyXTYpW0NIMl1bQ0hdOVtDSDJdW0NIMl05

>  <s_epik_cmdline>  (121) 
J2VwaWtfcHl0aG9uJywgJy1waHQnLCAnMi4wJywgJy1waCcsICc3LjAnLCAnLXRuJywgJzgnLCAnLW1hJywgJzIwMCcsICctaW1hZScsICc8aW5maWxlLm1hZT4nLCAnLW9tYWUnLCAnPG91dGZpbGUubWFlPic=

>  <r_epik_Ionization_Penalty>  (121) 
0.000307374

>  <r_epik_Ionization_Penalty_Charging>  (121) 
0.00030694

>  <r_epik_Ionization_Penalty_Neutral>  (121) 
4.3393e-07

>  <r_epik_State_Penalty>  (121) 
0.000184801

>  <r_epik_Charging_Adjusted_Penalty>  (121) 
0.000491741

>  <i_epik_Tot_Q>  (121) 
1

>  <i_epik_Tot_abs_Q>  (121) 
1

>  <s_lp_Force_Field>  (121) 
OPLS3e

>  <r_lp_Energy>  (121) 
149.265

>  <b_lp_Chiralities_Consistent>  (121) 
0

>  <s_lp_Variant>  (121) 
36:0-1

>  <s_i_glide_gridfile>  (121) 
pfpi4k_grid

>  <i_i_glide_lignum>  (121) 
14

>  <i_i_glide_rotatable_bonds>  (121) 
6

>  <r_i_docking_score>  (121) 
-2.80747

>  <r_i_glide_ligand_efficiency>  (121) 
-0.0719865

>  <r_i_glide_ligand_efficiency_sa>  (121) 
-0.244121

>  <r_i_glide_ligand_efficiency_ln>  (121) 
-0.602002

>  <r_i_glide_gscore>  (121) 
-2.80747

>  <r_i_glide_lipo>  (121) 
-0.394437

>  <r_i_glide_hbond>  (121) 
-0.16

>  <r_i_glide_metal>  (121) 
-0

>  <r_i_glide_rewards>  (121) 
-0.186562

>  <r_i_glide_evdw>  (121) 
-24.7214

>  <r_i_glide_ecoul>  (121) 
-6.4136

>  <r_i_glide_erotb>  (121) 
0.143847

>  <r_i_glide_esite>  (121) 
-0.0122101

>  <r_i_glide_emodel>  (121) 
-35.7578

>  <r_i_glide_energy>  (121) 
-31.135

>  <r_i_glide_einternal>  (121) 
3.45013

>  <r_i_glide_intrahb_reward>  (121) 
-0

>  <i_i_glide_confnum>  (121) 
4

>  <i_i_glide_posenum>  (121) 
19

>  <r_i_glide_eff_state_penalty>  (121) 
0

>  <ligand_id>  (121) 
36

>  <original_smiles>  (121) 
COC1CC2(C)C3CC3(C#N)C2C2C1C1C3C(O)(CC(C)C45CCC(O)CC34CCN(CC3CC3)C15)C2(C)C

>  <smiles>  (121) 
[H]OC1([H])C([H])([H])C([H])([H])C23C([H])(C([H])([H])[H])C([H])([H])C4(O[H])C5([H])C([H])(C6([H])C([H])(OC([H])([H])[H])C([H])([H])C7(C([H])([H])[H])C8([H])C([H])([H])C8(C#N)C7([H])C6([H])C4(C([H])([H])[H])C([H])([H])[H])C2([H])[N+]([H])(C([H])([H])C2([H])C([H])([H])C2([H])[H])C([H])([H])C([H])([H])C53C1([H])[H]

$$$$
36:0:2
     RDKit          3D

 90 98  0  0  1  0  0  0  0  0999 V2000
    1.4850   -5.0260    3.9066 C   0  0  0  0  0  0  0  0  0  0  0  0
    2.1744   -5.9557    3.0753 O   0  0  0  0  0  0  0  0  0  0  0  0
    3.5266   -5.5993    2.7792 C   0  0  2  0  0  0  0  0  0  0  0  0
    3.4368   -4.4742    1.7036 C   0  0  0  0  0  0  0  0  0  0  0  0
    4.6179   -4.3652    0.7303 C   0  0  1  0  0  0  0  0  0  0  0  0
    4.1108   -4.2737   -0.6744 C   0  0  0  0  0  0  0  0  0  0  0  0
    5.3949   -3.1405    1.1125 C   0  0  2  0  0  0  0  0  0  0  0  0
    6.0401   -2.9800    2.4688 C   0  0  0  0  0  0  0  0  0  0  0  0
    6.5841   -3.9947    1.4712 C   0  0  2  0  0  0  0  0  0  0  0  0
    7.8658   -3.7829    0.8360 C   0  0  0  0  0  0  0  0  0  0  0  0
    8.8916   -3.5879    0.3421 N   0  0  0  0  0  0  0  0  0  0  0  0
    5.8579   -5.2301    0.9763 C   0  0  1  0  0  0  0  0  0  0  0  0
    5.7546   -6.5407    1.8096 C   0  0  2  0  0  0  0  0  0  0  0  0
    4.2960   -6.8457    2.2330 C   0  0  1  0  0  0  0  0  0  0  0  0
    4.1559   -8.2849    2.8740 C   0  0  1  0  0  0  0  0  0  0  0  0
    5.4661   -9.0126    3.2980 C   0  0  1  0  0  0  0  0  0  0  0  0
    6.4235   -7.9702    3.9000 C   0  0  2  0  0  0  0  0  0  0  0  0
    7.5955   -8.5965    4.3843 O   0  0  0  0  0  0  0  0  0  0  0  0
    5.7428   -7.3088    5.1149 C   0  0  0  0  0  0  0  0  0  0  0  0
    4.8058   -8.1921    5.9559 C   0  0  1  0  0  0  0  0  0  0  0  0
    3.9469   -7.2614    6.8426 C   0  0  0  0  0  0  0  0  0  0  0  0
    3.9767   -9.2755    5.1585 C   0  0  2  0  0  0  0  0  0  0  0  0
    3.2308  -10.1754    6.1998 C   0  0  0  0  0  0  0  0  0  0  0  0
    4.1866  -10.9991    7.0917 C   0  0  0  0  0  0  0  0  0  0  0  0
    5.2021  -11.8122    6.2677 C   0  0  1  0  0  0  0  0  0  0  0  0
    4.5815  -12.9835    5.7657 O   0  0  0  0  0  0  0  0  0  0  0  0
    5.8959  -10.9712    5.1555 C   0  0  0  0  0  0  0  0  0  0  0  0
    4.9061  -10.1288    4.2673 C   0  0  2  0  0  0  0  0  0  0  0  0
    4.1388  -11.1151    3.3218 C   0  0  0  0  0  0  0  0  0  0  0  0
    2.6028  -10.9369    3.2240 C   0  0  0  0  0  0  0  0  0  0  0  0
    2.1205   -9.5444    3.4626 N   0  0  1  0  0  0  0  0  0  0  0  0
    0.7701   -9.4777    4.0686 C   0  0  0  0  0  0  0  0  0  0  0  0
   -0.3173   -9.5228    3.0085 C   0  0  0  0  0  0  0  0  0  0  0  0
   -0.7876   -8.2431    2.3309 C   0  0  0  0  0  0  0  0  0  0  0  0
   -1.6957   -8.9602    3.2897 C   0  0  0  0  0  0  0  0  0  0  0  0
    3.1192   -8.6172    4.0206 C   0  0  2  0  0  0  0  0  0  0  0  0
    6.9180   -6.9249    2.8162 C   0  0  0  0  0  0  0  0  0  0  0  0
    8.0562   -7.5075    1.9364 C   0  0  0  0  0  0  0  0  0  0  0  0
    7.5964   -5.7627    3.5653 C   0  0  0  0  0  0  0  0  0  0  0  0
    0.5067   -5.4361    4.1617 H   0  0  0  0  0  0  0  0  0  0  0  0
    1.3175   -4.0649    3.4127 H   0  0  0  0  0  0  0  0  0  0  0  0
    2.0228   -4.8539    4.8420 H   0  0  0  0  0  0  0  0  0  0  0  0
    4.0231   -5.1957    3.6632 H   0  0  0  0  0  0  0  0  0  0  0  0
    2.5330   -4.6438    1.1252 H   0  0  0  0  0  0  0  0  0  0  0  0
    3.2575   -3.5176    2.1992 H   0  0  0  0  0  0  0  0  0  0  0  0
    4.8894   -4.1248   -1.4240 H   0  0  0  0  0  0  0  0  0  0  0  0
    3.3573   -3.5053   -0.8153 H   0  0  0  0  0  0  0  0  0  0  0  0
    3.6643   -5.2378   -0.8186 H   0  0  0  0  0  0  0  0  0  0  0  0
    5.5431   -2.3871    0.3341 H   0  0  0  0  0  0  0  0  0  0  0  0
    6.5666   -2.0375    2.5584 H   0  0  0  0  0  0  0  0  0  0  0  0
    5.5407   -3.3700    3.3687 H   0  0  0  0  0  0  0  0  0  0  0  0
    6.2668   -5.4835   -0.0047 H   0  0  0  0  0  0  0  0  0  0  0  0
    5.8584   -7.3295    1.0624 H   0  0  0  0  0  0  0  0  0  0  0  0
    3.7762   -6.9685    1.2817 H   0  0  0  0  0  0  0  0  0  0  0  0
    3.8325   -8.8517    1.9983 H   0  0  0  0  0  0  0  0  0  0  0  0
    5.9531   -9.4658    2.4367 H   0  0  0  0  0  0  0  0  0  0  0  0
    7.3618   -9.3395    4.9111 H   0  0  0  0  0  0  0  0  0  0  0  0
    6.5248   -6.9382    5.7769 H   0  0  0  0  0  0  0  0  0  0  0  0
    5.1960   -6.4215    4.8296 H   0  0  0  0  0  0  0  0  0  0  0  0
    5.4810   -8.6895    6.6481 H   0  0  0  0  0  0  0  0  0  0  0  0
    3.2580   -6.6631    6.2381 H   0  0  0  0  0  0  0  0  0  0  0  0
    4.5960   -6.5591    7.3754 H   0  0  0  0  0  0  0  0  0  0  0  0
    3.3706   -7.7962    7.5999 H   0  0  0  0  0  0  0  0  0  0  0  0
    2.5478   -9.6016    6.8215 H   0  0  0  0  0  0  0  0  0  0  0  0
    2.5826  -10.9155    5.7486 H   0  0  0  0  0  0  0  0  0  0  0  0
    4.7186  -10.3422    7.7799 H   0  0  0  0  0  0  0  0  0  0  0  0
    3.6103  -11.6692    7.7359 H   0  0  0  0  0  0  0  0  0  0  0  0
    5.9732  -12.1636    6.9544 H   0  0  0  0  0  0  0  0  0  0  0  0
    3.9363  -13.2894    6.3849 H   0  0  0  0  0  0  0  0  0  0  0  0
    6.5802  -10.3270    5.7018 H   0  0  0  0  0  0  0  0  0  0  0  0
    6.5208  -11.6173    4.5315 H   0  0  0  0  0  0  0  0  0  0  0  0
    4.5344  -11.0257    2.3116 H   0  0  0  0  0  0  0  0  0  0  0  0
    4.3377  -12.1587    3.5434 H   0  0  0  0  0  0  0  0  0  0  0  0
    2.3179  -11.2172    2.2163 H   0  0  0  0  0  0  0  0  0  0  0  0
    2.1217  -11.6679    3.8831 H   0  0  0  0  0  0  0  0  0  0  0  0
    0.5881  -10.3050    4.7604 H   0  0  0  0  0  0  0  0  0  0  0  0
    0.6301   -8.5490    4.6414 H   0  0  0  0  0  0  0  0  0  0  0  0
   -0.3204  -10.4431    2.3950 H   0  0  0  0  0  0  0  0  0  0  0  0
   -0.3332   -7.3032    2.6545 H   0  0  0  0  0  0  0  0  0  0  0  0
   -1.0504   -8.2993    1.2806 H   0  0  0  0  0  0  0  0  0  0  0  0
   -2.5447   -9.4938    2.8716 H   0  0  0  0  0  0  0  0  0  0  0  0
   -1.8563   -8.5149    4.2730 H   0  0  0  0  0  0  0  0  0  0  0  0
    2.6535   -7.7200    4.4239 H   0  0  0  0  0  0  0  0  0  0  0  0
    8.9667   -7.6973    2.5144 H   0  0  0  0  0  0  0  0  0  0  0  0
    8.3360   -6.8041    1.1525 H   0  0  0  0  0  0  0  0  0  0  0  0
    7.7666   -8.4478    1.4579 H   0  0  0  0  0  0  0  0  0  0  0  0
    8.2756   -6.1128    4.3484 H   0  0  0  0  0  0  0  0  0  0  0  0
    6.8690   -5.1019    4.0366 H   0  0  0  0  0  0  0  0  0  0  0  0
    8.2361   -5.1978    2.8957 H   0  0  0  0  0  0  0  0  0  0  0  0
    1.9761   -9.1870    2.5175 H   0  0  0  0  0  0  0  0  0  0  0  0
  1  2  1  0
  1 40  1  0
  1 41  1  0
  1 42  1  0
  2  3  1  0
  3 14  1  0
  3  4  1  0
  3 43  1  1
  4  5  1  0
  4 44  1  0
  4 45  1  0
  5 12  1  0
  5  6  1  6
  5  7  1  0
  6 46  1  0
  6 47  1  0
  6 48  1  0
  7  9  1  0
  7  8  1  0
  7 49  1  6
  8  9  1  0
  8 50  1  0
  8 51  1  0
  9 10  1  6
  9 12  1  0
 10 11  3  0
 12 13  1  0
 12 52  1  6
 13 37  1  0
 13 14  1  0
 13 53  1  6
 14 15  1  0
 14 54  1  6
 15 36  1  0
 15 16  1  0
 15 55  1  6
 16 28  1  0
 16 17  1  0
 16 56  1  6
 17 18  1  1
 17 19  1  0
 17 37  1  0
 18 57  1  0
 19 20  1  0
 19 58  1  0
 19 59  1  0
 20 21  1  0
 20 22  1  0
 20 60  1  1
 21 61  1  0
 21 62  1  0
 21 63  1  0
 22 28  1  0
 22 36  1  0
 22 23  1  1
 23 24  1  0
 23 64  1  0
 23 65  1  0
 24 25  1  0
 24 66  1  0
 24 67  1  0
 25 26  1  0
 25 27  1  0
 25 68  1  1
 26 69  1  0
 28 27  1  1
 27 70  1  0
 27 71  1  0
 28 29  1  0
 29 30  1  0
 29 72  1  0
 29 73  1  0
 30 31  1  0
 30 74  1  0
 30 75  1  0
 31 32  1  0
 31 36  1  0
 31 90  1  6
 32 33  1  0
 32 76  1  0
 32 77  1  0
 33 35  1  0
 33 34  1  0
 33 78  1  0
 34 35  1  0
 34 79  1  0
 34 80  1  0
 35 81  1  0
 35 82  1  0
 36 83  1  1
 37 38  1  0
 37 39  1  0
 38 84  1  0
 38 85  1  0
 38 86  1  0
 39 87  1  0
 39 88  1  0
 39 89  1  0
M  CHG  1  31   1
M  END
>  <i_m_ct_stereo_status>  (122) 
1

>  <s_m_source_file>  (122) 
/var/tmp/pbs.5076255.sched01/tmp7c02qu8j/38qwqhi24o.sdf

>  <i_m_source_file_index>  (122) 
14

>  <i_lp_mmshare_version>  (122) 
48012

>  <i_f3d_flags>  (122) 
2

>  <s_epik_input>  (122) 
W0NIM11PW0NAQEhdMVtDSDJdW0NAQF0oW0NIM10pKFtDQEhdMltDQF0zKFtDSDJdMilDI04pW0NASF0zW0NAQEhdKEMoW0NIM10pKFtDSDNdKVtDQEBdNChbT0hdKVtDSDJdW0NASF01W0NIM10pW0NASF0xW0NASF0oW0NAQEhdNFtDQF02KFtDQF01NzgpW0NIMl1bQ0BIXShbT0hdKVtDSDJdW0NIMl03KVtDQEhdOE4oW0NIMl1bQ0gyXTYpW0NIMl1bQ0hdOVtDSDJdW0NIMl05

>  <s_epik_cmdline>  (122) 
J2VwaWtfcHl0aG9uJywgJy1waHQnLCAnMi4wJywgJy1waCcsICc3LjAnLCAnLXRuJywgJzgnLCAnLW1hJywgJzIwMCcsICctaW1hZScsICc8aW5maWxlLm1hZT4nLCAnLW9tYWUnLCAnPG91dGZpbGUubWFlPic=

>  <r_epik_Ionization_Penalty>  (122) 
0.000307374

>  <r_epik_Ionization_Penalty_Charging>  (122) 
0.00030694

>  <r_epik_Ionization_Penalty_Neutral>  (122) 
4.3393e-07

>  <r_epik_State_Penalty>  (122) 
0.000184801

>  <r_epik_Charging_Adjusted_Penalty>  (122) 
0.000491741

>  <i_epik_Tot_Q>  (122) 
1

>  <i_epik_Tot_abs_Q>  (122) 
1

>  <s_lp_Force_Field>  (122) 
OPLS3e

>  <r_lp_Energy>  (122) 
149.265

>  <b_lp_Chiralities_Consistent>  (122) 
0

>  <s_lp_Variant>  (122) 
36:0-1

>  <s_i_glide_gridfile>  (122) 
pfpi4k_grid

>  <i_i_glide_lignum>  (122) 
14

>  <i_i_glide_rotatable_bonds>  (122) 
6

>  <r_i_docking_score>  (122) 
-2.45193

>  <r_i_glide_ligand_efficiency>  (122) 
-0.06287

>  <r_i_glide_ligand_efficiency_sa>  (122) 
-0.213206

>  <r_i_glide_ligand_efficiency_ln>  (122) 
-0.525764

>  <r_i_glide_gscore>  (122) 
-2.45193

>  <r_i_glide_lipo>  (122) 
-0.357762

>  <r_i_glide_hbond>  (122) 
-0.0841038

>  <r_i_glide_metal>  (122) 
-0

>  <r_i_glide_rewards>  (122) 
-0.186812

>  <r_i_glide_evdw>  (122) 
-20.3579

>  <r_i_glide_ecoul>  (122) 
-6.29045

>  <r_i_glide_erotb>  (122) 
0.143847

>  <r_i_glide_esite>  (122) 
-0.00564005

>  <r_i_glide_emodel>  (122) 
-31.131

>  <r_i_glide_energy>  (122) 
-26.6483

>  <r_i_glide_einternal>  (122) 
1.73885

>  <r_i_glide_intrahb_reward>  (122) 
-0

>  <i_i_glide_confnum>  (122) 
2

>  <i_i_glide_posenum>  (122) 
7

>  <r_i_glide_eff_state_penalty>  (122) 
0

>  <ligand_id>  (122) 
36

>  <original_smiles>  (122) 
COC1CC2(C)C3CC3(C#N)C2C2C1C1C3C(O)(CC(C)C45CCC(O)CC34CCN(CC3CC3)C15)C2(C)C

>  <smiles>  (122) 
[H]OC1([H])C([H])([H])C([H])([H])C23C([H])(C([H])([H])[H])C([H])([H])C4(O[H])C5([H])C([H])(C6([H])C([H])(OC([H])([H])[H])C([H])([H])C7(C([H])([H])[H])C8([H])C([H])([H])C8(C#N)C7([H])C6([H])C4(C([H])([H])[H])C([H])([H])[H])C2([H])[N+]([H])(C([H])([H])C2([H])C([H])([H])C2([H])[H])C([H])([H])C([H])([H])C53C1([H])[H]

$$$$
37:0:0
     RDKit          3D

 40 44  0  0  1  0  0  0  0  0999 V2000
    4.5568   -1.5737   -4.0276 C   0  0  0  0  0  0  0  0  0  0  0  0
    3.6716   -1.5204   -2.7945 C   0  0  0  0  0  0  0  0  0  0  0  0
    2.8514   -0.3132   -3.1408 C   0  0  0  0  0  0  0  0  0  0  0  0
    2.8698   -2.8511   -2.6115 C   0  0  1  0  0  0  0  0  0  0  0  0
    3.1641   -3.7956   -3.6203 O   0  0  0  0  0  0  0  0  0  0  0  0
    3.3410   -3.2517   -1.2073 C   0  0  2  0  0  0  0  0  0  0  0  0
    4.7163   -2.6431   -0.9218 C   0  0  1  0  0  0  0  0  0  0  0  0
    5.0821   -4.0390   -1.2781 C   0  0  1  0  0  0  0  0  0  0  0  0
    5.9859   -4.6574   -0.3180 O   0  0  0  0  0  0  0  0  0  0  0  0
    4.8500   -4.9296    0.5064 C   0  0  1  0  0  0  0  0  0  0  0  0
    4.9674   -3.9628    1.7407 C   0  0  0  0  0  0  0  0  0  0  0  0
    3.8042   -2.9015    1.7792 C   0  0  1  0  0  0  0  0  0  0  0  0
    4.0219   -1.3532    1.3380 C   0  0  0  0  0  0  0  0  0  0  0  0
    3.8249   -0.6978   -0.1282 C   0  0  0  0  0  0  0  0  0  0  0  0
    4.4775   -1.3319   -1.4493 C   0  0  2  0  0  0  0  0  0  0  0  0
    5.6685   -0.6598   -1.6167 O   0  0  0  0  0  0  0  0  0  0  0  0
    2.6201   -3.6304    1.4061 O   0  0  0  0  0  0  0  0  0  0  0  0
    2.6248   -4.6607    0.4367 C   0  0  0  0  0  0  0  0  0  0  0  0
    1.7691   -5.5160    0.4371 O   0  0  0  0  0  0  0  0  0  0  0  0
    3.7669   -4.6359   -0.6188 C   0  0  2  0  0  0  0  0  0  0  0  0
    3.9448   -1.8741   -4.8764 H   0  0  0  0  0  0  0  0  0  0  0  0
    5.3225   -2.3250   -3.8866 H   0  0  0  0  0  0  0  0  0  0  0  0
    5.0212   -0.5855   -4.2238 H   0  0  0  0  0  0  0  0  0  0  0  0
    2.1664   -0.1938   -2.3268 H   0  0  0  0  0  0  0  0  0  0  0  0
    2.2987   -0.4365   -4.0822 H   0  0  0  0  0  0  0  0  0  0  0  0
    3.4993    0.5432   -3.2281 H   0  0  0  0  0  0  0  0  0  0  0  0
    1.7775   -2.6777   -2.6073 H   0  0  0  0  0  0  0  0  0  0  0  0
    3.0423   -4.6599   -3.2570 H   0  0  0  0  0  0  0  0  0  0  0  0
    2.5838   -2.6835   -0.6553 H   0  0  0  0  0  0  0  0  0  0  0  0
    5.3552   -2.5278   -0.0779 H   0  0  0  0  0  0  0  0  0  0  0  0
    5.2206   -4.3253   -2.3034 H   0  0  0  0  0  0  0  0  0  0  0  0
    4.7947   -5.9843    0.7583 H   0  0  0  0  0  0  0  0  0  0  0  0
    4.8819   -4.5763    2.6419 H   0  0  0  0  0  0  0  0  0  0  0  0
    5.9462   -3.4969    1.7874 H   0  0  0  0  0  0  0  0  0  0  0  0
    3.6668   -2.7604    2.8509 H   0  0  0  0  0  0  0  0  0  0  0  0
    3.3359   -0.7767    1.9490 H   0  0  0  0  0  0  0  0  0  0  0  0
    5.0223   -1.0557    1.6816 H   0  0  0  0  0  0  0  0  0  0  0  0
    2.7455   -0.6305   -0.2579 H   0  0  0  0  0  0  0  0  0  0  0  0
    4.1707    0.3343   -0.0318 H   0  0  0  0  0  0  0  0  0  0  0  0
    5.4456    0.2601   -1.5519 H   0  0  0  0  0  0  0  0  0  0  0  0
  1  2  1  0
  1 21  1  0
  1 22  1  0
  1 23  1  0
  2 15  1  0
  2  3  1  0
  2  4  1  0
  3 24  1  0
  3 25  1  0
  3 26  1  0
  4  5  1  0
  4  6  1  0
  4 27  1  1
  5 28  1  0
  6 20  1  0
  6  7  1  0
  6 29  1  1
  7 15  1  0
  7  8  1  0
  7 30  1  1
  8 20  1  0
  8  9  1  0
  8 31  1  6
  9 10  1  0
 10 20  1  0
 10 11  1  0
 10 32  1  1
 11 12  1  0
 11 33  1  0
 11 34  1  0
 12 13  1  0
 12 17  1  0
 12 35  1  1
 13 14  1  0
 13 36  1  0
 13 37  1  0
 14 15  1  0
 14 38  1  0
 14 39  1  0
 15 16  1  6
 16 40  1  0
 17 18  1  0
 18 19  2  0
 20 18  1  6
M  END
>  <i_m_ct_stereo_status>  (123) 
1

>  <s_m_source_file>  (123) 
/var/tmp/pbs.5076255.sched01/tmp7c02qu8j/38qwqhi24o.sdf

>  <i_m_source_file_index>  (123) 
15

>  <i_lp_mmshare_version>  (123) 
48012

>  <i_f3d_flags>  (123) 
0

>  <s_epik_input>  (123) 
W09IXVtDQEBIXTFDKFtDSDNdKShbQ0gzXSlbQ0BAXTIoW09IXSlbQ0gyXVtDSDJdW0NAQEhdKE9DMz1PKVtDSDJdW0NAQEhdNE9bQ0BASF01W0NAQEhdMltDQEBIXTFDMzQ1

>  <s_epik_cmdline>  (123) 
J2VwaWtfcHl0aG9uJywgJy1waHQnLCAnMi4wJywgJy1waCcsICc3LjAnLCAnLXRuJywgJzgnLCAnLW1hJywgJzIwMCcsICctaW1hZScsICc8aW5maWxlLm1hZT4nLCAnLW9tYWUnLCAnPG91dGZpbGUubWFlPic=

>  <r_lp_tautomer_probability>  (123) 
1

>  <r_epik_Ionization_Penalty>  (123) 
3.58263e-07

>  <r_epik_Ionization_Penalty_Charging>  (123) 
0

>  <r_epik_Ionization_Penalty_Neutral>  (123) 
3.58263e-07

>  <r_epik_State_Penalty>  (123) 
-0

>  <r_epik_Charging_Adjusted_Penalty>  (123) 
0

>  <i_epik_Tot_Q>  (123) 
0

>  <i_epik_Tot_abs_Q>  (123) 
0

>  <s_epik_Chemistry_Notes>  (123) 
This compound has an ester and may undergo hydrolysis at high or low pH.

>  <s_lp_Force_Field>  (123) 
OPLS3e

>  <r_lp_Energy>  (123) 
191.208

>  <b_lp_Chiralities_Consistent>  (123) 
1

>  <s_lp_Variant>  (123) 
37:0-1

>  <s_i_glide_gridfile>  (123) 
pfpi4k_grid

>  <i_i_glide_lignum>  (123) 
15

>  <i_i_glide_rotatable_bonds>  (123) 
2

>  <r_i_docking_score>  (123) 
-4.43108

>  <r_i_glide_ligand_efficiency>  (123) 
-0.221554

>  <r_i_glide_ligand_efficiency_sa>  (123) 
-0.60139

>  <r_i_glide_ligand_efficiency_ln>  (123) 
-1.10895

>  <r_i_glide_gscore>  (123) 
-4.43108

>  <r_i_glide_lipo>  (123) 
-0.170396

>  <r_i_glide_hbond>  (123) 
-0.735639

>  <r_i_glide_metal>  (123) 
-0

>  <r_i_glide_rewards>  (123) 
-1.49784

>  <r_i_glide_evdw>  (123) 
1.95638

>  <r_i_glide_ecoul>  (123) 
-13.9164

>  <r_i_glide_erotb>  (123) 
0

>  <r_i_glide_esite>  (123) 
-0.0375575

>  <r_i_glide_emodel>  (123) 
-13.7505

>  <r_i_glide_energy>  (123) 
-11.96

>  <r_i_glide_einternal>  (123) 
1.80654

>  <r_i_glide_intrahb_reward>  (123) 
-0

>  <i_i_glide_confnum>  (123) 
1

>  <i_i_glide_posenum>  (123) 
31

>  <r_i_glide_eff_state_penalty>  (123) 
0

>  <ligand_id>  (123) 
37

>  <original_smiles>  (123) 
CC1(C)C(O)C2C3C4OC5CC(CCC31O)OC(=O)C542

>  <smiles>  (123) 
[H]OC1([H])C2([H])C3([H])C4([H])OC5([H])C([H])([H])C([H])(OC(=O)C542)C([H])([H])C([H])([H])C3(O[H])C1(C([H])([H])[H])C([H])([H])[H]

$$$$
37:0:1
     RDKit          3D

 40 44  0  0  1  0  0  0  0  0999 V2000
    4.7296   -1.6739   -3.7483 C   0  0  0  0  0  0  0  0  0  0  0  0
    3.7556   -1.5835   -2.6161 C   0  0  0  0  0  0  0  0  0  0  0  0
    2.9188   -0.3766   -2.9990 C   0  0  0  0  0  0  0  0  0  0  0  0
    2.9676   -2.8978   -2.5206 C   0  0  1  0  0  0  0  0  0  0  0  0
    3.2435   -3.8237   -3.5519 O   0  0  0  0  0  0  0  0  0  0  0  0
    3.3409   -3.3537   -1.1078 C   0  0  2  0  0  0  0  0  0  0  0  0
    4.6947   -2.7576   -0.7093 C   0  0  1  0  0  0  0  0  0  0  0  0
    5.0433   -4.1612   -1.0771 C   0  0  1  0  0  0  0  0  0  0  0  0
    5.8574   -4.8201   -0.0894 O   0  0  0  0  0  0  0  0  0  0  0  0
    4.6702   -5.0721    0.6898 C   0  0  1  0  0  0  0  0  0  0  0  0
    4.6444   -4.1214    1.9467 C   0  0  0  0  0  0  0  0  0  0  0  0
    3.4800   -3.0676    1.8941 C   0  0  1  0  0  0  0  0  0  0  0  0
    3.7161   -1.5032    1.5025 C   0  0  0  0  0  0  0  0  0  0  0  0
    3.7273   -0.7956    0.0405 C   0  0  0  0  0  0  0  0  0  0  0  0
    4.5154   -1.4214   -1.2229 C   0  0  2  0  0  0  0  0  0  0  0  0
    5.7973   -0.8574   -1.2653 O   0  0  0  0  0  0  0  0  0  0  0  0
    2.3374   -3.7837    1.4049 O   0  0  0  0  0  0  0  0  0  0  0  0
    2.4131   -4.7378    0.3926 C   0  0  0  0  0  0  0  0  0  0  0  0
    1.4125   -5.4820    0.1976 O   0  0  0  0  0  0  0  0  0  0  0  0
    3.6688   -4.7775   -0.4999 C   0  0  2  0  0  0  0  0  0  0  0  0
    4.2895   -1.8305   -4.7172 H   0  0  0  0  0  0  0  0  0  0  0  0
    5.5155   -2.4039   -3.5553 H   0  0  0  0  0  0  0  0  0  0  0  0
    5.1211   -0.6790   -3.7765 H   0  0  0  0  0  0  0  0  0  0  0  0
    2.1212   -0.2746   -2.3091 H   0  0  0  0  0  0  0  0  0  0  0  0
    2.5412   -0.4202   -4.0305 H   0  0  0  0  0  0  0  0  0  0  0  0
    3.5219    0.5243   -2.9106 H   0  0  0  0  0  0  0  0  0  0  0  0
    1.9010   -2.6813   -2.5936 H   0  0  0  0  0  0  0  0  0  0  0  0
    2.8284   -4.6553   -3.3101 H   0  0  0  0  0  0  0  0  0  0  0  0
    2.5595   -2.7568   -0.6196 H   0  0  0  0  0  0  0  0  0  0  0  0
    5.2337   -2.6837    0.2194 H   0  0  0  0  0  0  0  0  0  0  0  0
    5.2815   -4.3882   -2.1183 H   0  0  0  0  0  0  0  0  0  0  0  0
    4.6126   -6.1221    0.9595 H   0  0  0  0  0  0  0  0  0  0  0  0
    4.4699   -4.7513    2.8213 H   0  0  0  0  0  0  0  0  0  0  0  0
    5.6121   -3.6443    2.1167 H   0  0  0  0  0  0  0  0  0  0  0  0
    3.2143   -2.9630    2.9484 H   0  0  0  0  0  0  0  0  0  0  0  0
    2.9531   -0.9528    2.0558 H   0  0  0  0  0  0  0  0  0  0  0  0
    4.6559   -1.2262    1.9804 H   0  0  0  0  0  0  0  0  0  0  0  0
    2.6850   -0.6687   -0.2326 H   0  0  0  0  0  0  0  0  0  0  0  0
    4.0664    0.2331    0.1829 H   0  0  0  0  0  0  0  0  0  0  0  0
    6.2192   -1.0253   -0.4387 H   0  0  0  0  0  0  0  0  0  0  0  0
  1  2  1  0
  1 21  1  0
  1 22  1  0
  1 23  1  0
  2 15  1  0
  2  3  1  0
  2  4  1  0
  3 24  1  0
  3 25  1  0
  3 26  1  0
  4  5  1  0
  4  6  1  0
  4 27  1  1
  5 28  1  0
  6 20  1  0
  6  7  1  0
  6 29  1  1
  7 15  1  0
  7  8  1  0
  7 30  1  1
  8 20  1  0
  8  9  1  0
  8 31  1  6
  9 10  1  0
 10 20  1  0
 10 11  1  0
 10 32  1  1
 11 12  1  0
 11 33  1  0
 11 34  1  0
 12 13  1  0
 12 17  1  0
 12 35  1  1
 13 14  1  0
 13 36  1  0
 13 37  1  0
 14 15  1  0
 14 38  1  0
 14 39  1  0
 15 16  1  6
 16 40  1  0
 17 18  1  0
 18 19  2  0
 20 18  1  6
M  END
>  <i_m_ct_stereo_status>  (124) 
1

>  <s_m_source_file>  (124) 
/var/tmp/pbs.5076255.sched01/tmp7c02qu8j/38qwqhi24o.sdf

>  <i_m_source_file_index>  (124) 
15

>  <i_lp_mmshare_version>  (124) 
48012

>  <i_f3d_flags>  (124) 
0

>  <s_epik_input>  (124) 
W09IXVtDQEBIXTFDKFtDSDNdKShbQ0gzXSlbQ0BAXTIoW09IXSlbQ0gyXVtDSDJdW0NAQEhdKE9DMz1PKVtDSDJdW0NAQEhdNE9bQ0BASF01W0NAQEhdMltDQEBIXTFDMzQ1

>  <s_epik_cmdline>  (124) 
J2VwaWtfcHl0aG9uJywgJy1waHQnLCAnMi4wJywgJy1waCcsICc3LjAnLCAnLXRuJywgJzgnLCAnLW1hJywgJzIwMCcsICctaW1hZScsICc8aW5maWxlLm1hZT4nLCAnLW9tYWUnLCAnPG91dGZpbGUubWFlPic=

>  <r_lp_tautomer_probability>  (124) 
1

>  <r_epik_Ionization_Penalty>  (124) 
3.58263e-07

>  <r_epik_Ionization_Penalty_Charging>  (124) 
0

>  <r_epik_Ionization_Penalty_Neutral>  (124) 
3.58263e-07

>  <r_epik_State_Penalty>  (124) 
-0

>  <r_epik_Charging_Adjusted_Penalty>  (124) 
0

>  <i_epik_Tot_Q>  (124) 
0

>  <i_epik_Tot_abs_Q>  (124) 
0

>  <s_epik_Chemistry_Notes>  (124) 
This compound has an ester and may undergo hydrolysis at high or low pH.

>  <s_lp_Force_Field>  (124) 
OPLS3e

>  <r_lp_Energy>  (124) 
191.208

>  <b_lp_Chiralities_Consistent>  (124) 
1

>  <s_lp_Variant>  (124) 
37:0-1

>  <s_i_glide_gridfile>  (124) 
pfpi4k_grid

>  <i_i_glide_lignum>  (124) 
15

>  <i_i_glide_rotatable_bonds>  (124) 
2

>  <r_i_docking_score>  (124) 
-3.46853

>  <r_i_glide_ligand_efficiency>  (124) 
-0.173427

>  <r_i_glide_ligand_efficiency_sa>  (124) 
-0.470752

>  <r_i_glide_ligand_efficiency_ln>  (124) 
-0.86806

>  <r_i_glide_gscore>  (124) 
-3.46853

>  <r_i_glide_lipo>  (124) 
-0.199747

>  <r_i_glide_hbond>  (124) 
-0.488591

>  <r_i_glide_metal>  (124) 
-0

>  <r_i_glide_rewards>  (124) 
-1.49784

>  <r_i_glide_evdw>  (124) 
8.35655

>  <r_i_glide_ecoul>  (124) 
-11.011

>  <r_i_glide_erotb>  (124) 
0

>  <r_i_glide_esite>  (124) 
-0.0485345

>  <r_i_glide_emodel>  (124) 
-4.85195

>  <r_i_glide_energy>  (124) 
-2.65441

>  <r_i_glide_einternal>  (124) 
0.608456

>  <r_i_glide_intrahb_reward>  (124) 
-0

>  <i_i_glide_confnum>  (124) 
2

>  <i_i_glide_posenum>  (124) 
13

>  <r_i_glide_eff_state_penalty>  (124) 
0

>  <ligand_id>  (124) 
37

>  <original_smiles>  (124) 
CC1(C)C(O)C2C3C4OC5CC(CCC31O)OC(=O)C542

>  <smiles>  (124) 
[H]OC1([H])C2([H])C3([H])C4([H])OC5([H])C([H])([H])C([H])(OC(=O)C542)C([H])([H])C([H])([H])C3(O[H])C1(C([H])([H])[H])C([H])([H])[H]

$$$$
37:0:2
     RDKit          3D

 40 44  0  0  1  0  0  0  0  0999 V2000
    4.9695   -1.1181   -2.4940 C   0  0  0  0  0  0  0  0  0  0  0  0
    4.0115   -2.0875   -1.8008 C   0  0  0  0  0  0  0  0  0  0  0  0
    2.6661   -1.8709   -2.5115 C   0  0  0  0  0  0  0  0  0  0  0  0
    4.4719   -3.5635   -1.9771 C   0  0  1  0  0  0  0  0  0  0  0  0
    5.5658   -3.7850   -2.8290 O   0  0  0  0  0  0  0  0  0  0  0  0
    4.6669   -4.0057   -0.5422 C   0  0  2  0  0  0  0  0  0  0  0  0
    4.9884   -2.7868    0.3158 C   0  0  1  0  0  0  0  0  0  0  0  0
    6.3055   -3.4266    0.1002 C   0  0  1  0  0  0  0  0  0  0  0  0
    7.0874   -3.5819    1.2846 O   0  0  0  0  0  0  0  0  0  0  0  0
    6.3170   -4.7517    1.6117 C   0  0  1  0  0  0  0  0  0  0  0  0
    5.3305   -4.4128    2.7896 C   0  0  0  0  0  0  0  0  0  0  0  0
    3.8173   -4.4503    2.3435 C   0  0  1  0  0  0  0  0  0  0  0  0
    2.9249   -3.1265    2.0383 C   0  0  0  0  0  0  0  0  0  0  0  0
    2.7712   -2.3004    0.6455 C   0  0  0  0  0  0  0  0  0  0  0  0
    4.0190   -1.8436   -0.2302 C   0  0  2  0  0  0  0  0  0  0  0  0
    4.3623   -0.5326    0.1595 O   0  0  0  0  0  0  0  0  0  0  0  0
    3.6837   -5.5882    1.4923 O   0  0  0  0  0  0  0  0  0  0  0  0
    4.6505   -5.9668    0.5702 C   0  0  0  0  0  0  0  0  0  0  0  0
    4.6105   -7.1047    0.0773 O   0  0  0  0  0  0  0  0  0  0  0  0
    5.7440   -4.9378    0.1451 C   0  0  2  0  0  0  0  0  0  0  0  0
    4.9985   -1.3408   -3.5577 H   0  0  0  0  0  0  0  0  0  0  0  0
    5.9753   -1.2297   -2.1070 H   0  0  0  0  0  0  0  0  0  0  0  0
    4.6612   -0.0771   -2.3853 H   0  0  0  0  0  0  0  0  0  0  0  0
    1.9110   -2.5815   -2.1696 H   0  0  0  0  0  0  0  0  0  0  0  0
    2.7357   -1.9703   -3.5962 H   0  0  0  0  0  0  0  0  0  0  0  0
    2.3122   -0.8506   -2.3368 H   0  0  0  0  0  0  0  0  0  0  0  0
    3.6620   -4.1268   -2.4322 H   0  0  0  0  0  0  0  0  0  0  0  0
    5.7107   -4.7123   -2.8791 H   0  0  0  0  0  0  0  0  0  0  0  0
    3.6224   -4.2773   -0.3776 H   0  0  0  0  0  0  0  0  0  0  0  0
    5.0587   -2.5886    1.3710 H   0  0  0  0  0  0  0  0  0  0  0  0
    6.9079   -3.1598   -0.7760 H   0  0  0  0  0  0  0  0  0  0  0  0
    6.9875   -5.5865    1.8511 H   0  0  0  0  0  0  0  0  0  0  0  0
    5.4529   -5.1692    3.5626 H   0  0  0  0  0  0  0  0  0  0  0  0
    5.5604   -3.4670    3.2729 H   0  0  0  0  0  0  0  0  0  0  0  0
    3.3203   -4.8115    3.2455 H   0  0  0  0  0  0  0  0  0  0  0  0
    1.9052   -3.4090    2.2922 H   0  0  0  0  0  0  0  0  0  0  0  0
    3.2019   -2.3969    2.8020 H   0  0  0  0  0  0  0  0  0  0  0  0
    2.0957   -2.8789    0.0207 H   0  0  0  0  0  0  0  0  0  0  0  0
    2.2039   -1.4014    0.8773 H   0  0  0  0  0  0  0  0  0  0  0  0
    3.6260    0.0163   -0.0295 H   0  0  0  0  0  0  0  0  0  0  0  0
  1  2  1  0
  1 21  1  0
  1 22  1  0
  1 23  1  0
  2 15  1  0
  2  3  1  0
  2  4  1  0
  3 24  1  0
  3 25  1  0
  3 26  1  0
  4  5  1  0
  4  6  1  0
  4 27  1  6
  5 28  1  0
  6 20  1  0
  6  7  1  0
  6 29  1  1
  7 15  1  0
  7  8  1  0
  7 30  1  1
  8 20  1  0
  8  9  1  0
  8 31  1  6
  9 10  1  0
 10 20  1  0
 10 11  1  0
 10 32  1  1
 11 12  1  0
 11 33  1  0
 11 34  1  0
 12 13  1  0
 12 17  1  0
 12 35  1  1
 13 14  1  0
 13 36  1  0
 13 37  1  0
 14 15  1  0
 14 38  1  0
 14 39  1  0
 15 16  1  6
 16 40  1  0
 17 18  1  0
 18 19  2  0
 20 18  1  6
M  END
>  <i_m_ct_stereo_status>  (125) 
1

>  <s_m_source_file>  (125) 
/var/tmp/pbs.5076255.sched01/tmp7c02qu8j/38qwqhi24o.sdf

>  <i_m_source_file_index>  (125) 
15

>  <i_lp_mmshare_version>  (125) 
48012

>  <i_f3d_flags>  (125) 
0

>  <s_epik_input>  (125) 
W09IXVtDQEBIXTFDKFtDSDNdKShbQ0gzXSlbQ0BAXTIoW09IXSlbQ0gyXVtDSDJdW0NAQEhdKE9DMz1PKVtDSDJdW0NAQEhdNE9bQ0BASF01W0NAQEhdMltDQEBIXTFDMzQ1

>  <s_epik_cmdline>  (125) 
J2VwaWtfcHl0aG9uJywgJy1waHQnLCAnMi4wJywgJy1waCcsICc3LjAnLCAnLXRuJywgJzgnLCAnLW1hJywgJzIwMCcsICctaW1hZScsICc8aW5maWxlLm1hZT4nLCAnLW9tYWUnLCAnPG91dGZpbGUubWFlPic=

>  <r_lp_tautomer_probability>  (125) 
1

>  <r_epik_Ionization_Penalty>  (125) 
3.58263e-07

>  <r_epik_Ionization_Penalty_Charging>  (125) 
0

>  <r_epik_Ionization_Penalty_Neutral>  (125) 
3.58263e-07

>  <r_epik_State_Penalty>  (125) 
-0

>  <r_epik_Charging_Adjusted_Penalty>  (125) 
0

>  <i_epik_Tot_Q>  (125) 
0

>  <i_epik_Tot_abs_Q>  (125) 
0

>  <s_epik_Chemistry_Notes>  (125) 
This compound has an ester and may undergo hydrolysis at high or low pH.

>  <s_lp_Force_Field>  (125) 
OPLS3e

>  <r_lp_Energy>  (125) 
191.208

>  <b_lp_Chiralities_Consistent>  (125) 
1

>  <s_lp_Variant>  (125) 
37:0-1

>  <s_i_glide_gridfile>  (125) 
pfpi4k_grid

>  <i_i_glide_lignum>  (125) 
15

>  <i_i_glide_rotatable_bonds>  (125) 
2

>  <r_i_docking_score>  (125) 
-3.21915

>  <r_i_glide_ligand_efficiency>  (125) 
-0.160958

>  <r_i_glide_ligand_efficiency_sa>  (125) 
-0.436906

>  <r_i_glide_ligand_efficiency_ln>  (125) 
-0.805647

>  <r_i_glide_gscore>  (125) 
-3.21915

>  <r_i_glide_lipo>  (125) 
-0.296938

>  <r_i_glide_hbond>  (125) 
0

>  <r_i_glide_metal>  (125) 
-0

>  <r_i_glide_rewards>  (125) 
-1.65177

>  <r_i_glide_evdw>  (125) 
-16.1698

>  <r_i_glide_ecoul>  (125) 
-3.07966

>  <r_i_glide_erotb>  (125) 
0

>  <r_i_glide_esite>  (125) 
0

>  <r_i_glide_emodel>  (125) 
-21.7868

>  <r_i_glide_energy>  (125) 
-19.2495

>  <r_i_glide_einternal>  (125) 
0.402662

>  <r_i_glide_intrahb_reward>  (125) 
-0

>  <i_i_glide_confnum>  (125) 
1

>  <i_i_glide_posenum>  (125) 
38

>  <r_i_glide_eff_state_penalty>  (125) 
0

>  <ligand_id>  (125) 
37

>  <original_smiles>  (125) 
CC1(C)C(O)C2C3C4OC5CC(CCC31O)OC(=O)C542

>  <smiles>  (125) 
[H]OC1([H])C2([H])C3([H])C4([H])OC5([H])C([H])([H])C([H])(OC(=O)C542)C([H])([H])C([H])([H])C3(O[H])C1(C([H])([H])[H])C([H])([H])[H]

$$$$
39:0:0
     RDKit          3D

 74 80  0  0  1  0  0  0  0  0999 V2000
    3.7441   -0.2469    1.2472 C   0  0  0  0  0  0  0  0  0  0  0  0
    2.9316   -1.0980    2.2446 C   0  0  2  0  0  0  0  0  0  0  0  0
    1.4513   -0.6216    2.2985 C   0  0  0  0  0  0  0  0  0  0  0  0
    1.1927    0.5226    3.3022 C   0  0  0  0  0  0  0  0  0  0  0  0
    1.9400    0.3728    4.6543 C   0  0  2  0  0  0  0  0  0  0  0  0
    3.4046    0.1517    4.3760 C   0  0  0  0  0  0  0  0  0  0  0  0
    3.6126   -1.1779    3.6542 C   0  0  1  0  0  0  0  0  0  0  0  0
    3.3340   -2.4887    4.5042 C   0  0  2  0  0  0  0  0  0  0  0  0
    4.4882   -3.4651    3.9856 C   0  0  0  0  0  0  0  0  0  0  0  0
    4.1091   -4.9138    3.9952 C   0  0  0  0  0  0  0  0  0  0  0  0
    4.7817   -6.1141    4.3428 C   0  0  0  0  0  0  0  0  0  0  0  0
    3.9901   -7.1672    4.2043 N   0  0  0  0  0  0  0  0  0  0  0  0
    2.7920   -6.6786    3.7817 N   0  0  0  0  0  0  0  0  0  0  0  0
    1.7188   -7.5602    3.5174 C   0  0  0  0  0  0  0  0  0  0  0  0
    1.9676   -8.7907    2.8721 C   0  0  0  0  0  0  0  0  0  0  0  0
    0.9057   -9.6652    2.5828 C   0  0  0  0  0  0  0  0  0  0  0  0
   -0.4136   -9.3130    2.9256 C   0  0  0  0  0  0  0  0  0  0  0  0
   -0.6668   -8.0942    3.5791 C   0  0  0  0  0  0  0  0  0  0  0  0
    0.3984   -7.2345    3.8956 C   0  0  0  0  0  0  0  0  0  0  0  0
    2.8631   -5.3036    3.6584 C   0  0  0  0  0  0  0  0  0  0  0  0
    1.8351   -4.3107    3.2623 C   0  0  0  0  0  0  0  0  0  0  0  0
    1.9089   -3.0971    4.2070 C   0  0  0  0  0  0  0  0  0  0  0  0
    0.7223   -2.7230    4.7441 C   0  0  0  0  0  0  0  0  0  0  0  0
    0.2936   -1.5955    5.6857 C   0  0  1  0  0  0  0  0  0  0  0  0
   -1.0783   -1.1406    5.1156 C   0  0  0  0  0  0  0  0  0  0  0  0
   -2.1456   -1.4126    5.6782 O   0  0  0  0  0  0  0  0  0  0  0  0
    0.1388   -2.2034    7.1211 C   0  0  1  0  0  0  0  0  0  0  0  0
   -0.4028   -3.6430    7.2579 C   0  0  0  0  0  0  0  0  0  0  0  0
    1.4831   -1.9572    7.8216 C   0  0  0  0  0  0  0  0  0  0  0  0
    2.4209   -1.2739    6.7696 C   0  0  1  0  0  0  0  0  0  0  0  0
    3.5021   -2.2754    6.0874 C   0  0  0  0  0  0  0  0  0  0  0  0
    3.4808   -3.6757    6.7880 C   0  0  0  0  0  0  0  0  0  0  0  0
    4.9513   -1.8025    6.4571 C   0  0  0  0  0  0  0  0  0  0  0  0
    1.3637   -0.4487    5.8975 C   0  0  1  0  0  0  0  0  0  0  0  0
    0.8094    0.7082    6.8187 C   0  0  0  0  0  0  0  0  0  0  0  0
   -0.3533    0.7870    7.2200 O   0  0  0  0  0  0  0  0  0  0  0  0
    3.7463    0.8137    1.5048 H   0  0  0  0  0  0  0  0  0  0  0  0
    3.3269   -0.3321    0.2418 H   0  0  0  0  0  0  0  0  0  0  0  0
    4.7801   -0.5826    1.1893 H   0  0  0  0  0  0  0  0  0  0  0  0
    2.9445   -2.0866    1.7922 H   0  0  0  0  0  0  0  0  0  0  0  0
    1.1463   -0.2832    1.3069 H   0  0  0  0  0  0  0  0  0  0  0  0
    0.7876   -1.4569    2.5026 H   0  0  0  0  0  0  0  0  0  0  0  0
    1.5744    1.4274    2.8199 H   0  0  0  0  0  0  0  0  0  0  0  0
    0.1356    0.7424    3.4222 H   0  0  0  0  0  0  0  0  0  0  0  0
    1.9788    1.4191    4.9512 H   0  0  0  0  0  0  0  0  0  0  0  0
    3.7687    0.9575    3.7367 H   0  0  0  0  0  0  0  0  0  0  0  0
    3.9815    0.2921    5.2832 H   0  0  0  0  0  0  0  0  0  0  0  0
    4.6879   -1.1612    3.4628 H   0  0  0  0  0  0  0  0  0  0  0  0
    4.6735   -3.2419    2.9328 H   0  0  0  0  0  0  0  0  0  0  0  0
    5.4567   -3.3005    4.4490 H   0  0  0  0  0  0  0  0  0  0  0  0
    5.7897   -6.2474    4.7111 H   0  0  0  0  0  0  0  0  0  0  0  0
    2.9754   -9.0651    2.5980 H   0  0  0  0  0  0  0  0  0  0  0  0
    1.1029  -10.6079    2.0904 H   0  0  0  0  0  0  0  0  0  0  0  0
   -1.2264   -9.9896    2.7107 H   0  0  0  0  0  0  0  0  0  0  0  0
   -1.6764   -7.8320    3.8622 H   0  0  0  0  0  0  0  0  0  0  0  0
    0.1896   -6.3305    4.4442 H   0  0  0  0  0  0  0  0  0  0  0  0
    2.0481   -3.9934    2.2443 H   0  0  0  0  0  0  0  0  0  0  0  0
    0.8396   -4.7396    3.2252 H   0  0  0  0  0  0  0  0  0  0  0  0
   -0.1251   -3.3197    4.4451 H   0  0  0  0  0  0  0  0  0  0  0  0
   -1.0702   -0.6350    4.1584 H   0  0  0  0  0  0  0  0  0  0  0  0
   -0.5857   -1.6147    7.6775 H   0  0  0  0  0  0  0  0  0  0  0  0
    0.2653   -4.3907    6.8274 H   0  0  0  0  0  0  0  0  0  0  0  0
   -1.3753   -3.7380    6.7734 H   0  0  0  0  0  0  0  0  0  0  0  0
   -0.5446   -3.8969    8.3108 H   0  0  0  0  0  0  0  0  0  0  0  0
    1.3271   -1.2580    8.6429 H   0  0  0  0  0  0  0  0  0  0  0  0
    1.8359   -2.8388    8.3478 H   0  0  0  0  0  0  0  0  0  0  0  0
    3.0023   -0.5403    7.3300 H   0  0  0  0  0  0  0  0  0  0  0  0
    3.6781   -3.5968    7.8579 H   0  0  0  0  0  0  0  0  0  0  0  0
    4.2776   -4.3363    6.4561 H   0  0  0  0  0  0  0  0  0  0  0  0
    2.5490   -4.2201    6.6385 H   0  0  0  0  0  0  0  0  0  0  0  0
    5.0008   -1.3850    7.4617 H   0  0  0  0  0  0  0  0  0  0  0  0
    5.3970   -1.0849    5.7737 H   0  0  0  0  0  0  0  0  0  0  0  0
    5.6661   -2.6260    6.4714 H   0  0  0  0  0  0  0  0  0  0  0  0
    1.5444    1.4730    7.0765 H   0  0  0  0  0  0  0  0  0  0  0  0
  1  2  1  0
  1 37  1  0
  1 38  1  0
  1 39  1  0
  2  7  1  0
  2  3  1  0
  2 40  1  6
  3  4  1  0
  3 41  1  0
  3 42  1  0
  4  5  1  0
  4 43  1  0
  4 44  1  0
  5 34  1  0
  5  6  1  0
  5 45  1  1
  6  7  1  0
  6 46  1  0
  6 47  1  0
  7  8  1  0
  7 48  1  6
  8 22  1  0
  8 31  1  0
  8  9  1  6
  9 10  1  0
  9 49  1  0
  9 50  1  0
 10 20  2  0
 10 11  1  0
 11 12  2  0
 11 51  1  0
 12 13  1  0
 13 14  1  0
 13 20  1  0
 14 19  1  0
 14 15  2  0
 15 16  1  0
 15 52  1  0
 16 17  2  0
 16 53  1  0
 17 18  1  0
 17 54  1  0
 18 19  2  0
 18 55  1  0
 19 56  1  0
 20 21  1  0
 21 22  1  0
 21 57  1  0
 21 58  1  0
 22 23  2  0
 23 24  1  0
 23 59  1  0
 24 34  1  0
 24 25  1  6
 24 27  1  0
 25 26  2  0
 25 60  1  0
 27 28  1  0
 27 29  1  0
 27 61  1  1
 28 62  1  0
 28 63  1  0
 28 64  1  0
 29 30  1  0
 29 65  1  0
 29 66  1  0
 30 31  1  0
 30 34  1  0
 30 67  1  1
 31 32  1  0
 31 33  1  0
 32 68  1  0
 32 69  1  0
 32 70  1  0
 33 71  1  0
 33 72  1  0
 33 73  1  0
 34 35  1  1
 35 36  2  0
 35 74  1  0
M  END
>  <i_m_ct_stereo_status>  (126) 
1

>  <s_m_source_file>  (126) 
/var/tmp/pbs.5076255.sched01/tmp7c02qu8j/38qwqhi24o.sdf

>  <i_m_source_file_index>  (126) 
17

>  <i_lp_mmshare_version>  (126) 
48012

>  <i_f3d_flags>  (126) 
0

>  <s_epik_input>  (126) 
W0NAQF0xMjNbQ0BIXTRbQ0BIXShbQ0gzXSlbQ0gyXVtDSDJdW0NASF0oW0NIMl00KVtDQEBdNShbQ0hdPU8pW0NAXShbQ0hdPU8pKFtDQEBIXShbQ0gzXSlbQ0gyXVtDQEhdNUMzKFtDSDNdKVtDSDNdKVtDSF09QzJbQ0gyXWM2YyhbQ0gyXTEpW2NIXW5uNi1jN1tjSF1bY0hdW2NIXVtjSF1bY0hdNw==

>  <s_epik_cmdline>  (126) 
J2VwaWtfcHl0aG9uJywgJy1waHQnLCAnMi4wJywgJy1waCcsICc3LjAnLCAnLXRuJywgJzgnLCAnLW1hJywgJzIwMCcsICctaW1hZScsICc8aW5maWxlLm1hZT4nLCAnLW9tYWUnLCAnPG91dGZpbGUubWFlPic=

>  <r_lp_tautomer_probability>  (126) 
1

>  <r_epik_Ionization_Penalty>  (126) 
0.000252414

>  <r_epik_Ionization_Penalty_Charging>  (126) 
0

>  <r_epik_Ionization_Penalty_Neutral>  (126) 
0.000252414

>  <r_epik_State_Penalty>  (126) 
-0

>  <r_epik_Charging_Adjusted_Penalty>  (126) 
0

>  <i_epik_Tot_Q>  (126) 
0

>  <i_epik_Tot_abs_Q>  (126) 
0

>  <s_lp_Force_Field>  (126) 
OPLS3e

>  <r_lp_Energy>  (126) 
130.356

>  <b_lp_Chiralities_Consistent>  (126) 
1

>  <s_lp_Variant>  (126) 
39:0-1

>  <s_i_glide_gridfile>  (126) 
pfpi4k_grid

>  <i_i_glide_lignum>  (126) 
17

>  <i_i_glide_rotatable_bonds>  (126) 
3

>  <r_i_docking_score>  (126) 
-2.35834

>  <r_i_glide_ligand_efficiency>  (126) 
-0.0655093

>  <r_i_glide_ligand_efficiency_sa>  (126) 
-0.216307

>  <r_i_glide_ligand_efficiency_ln>  (126) 
-0.514525

>  <r_i_glide_gscore>  (126) 
-2.35834

>  <r_i_glide_lipo>  (126) 
-0.135169

>  <r_i_glide_hbond>  (126) 
-0.016835

>  <r_i_glide_metal>  (126) 
-0

>  <r_i_glide_rewards>  (126) 
-0.118252

>  <r_i_glide_evdw>  (126) 
-29.5259

>  <r_i_glide_ecoul>  (126) 
-4.38068

>  <r_i_glide_erotb>  (126) 
0.0871196

>  <r_i_glide_esite>  (126) 
-0.0418024

>  <r_i_glide_emodel>  (126) 
-37.1614

>  <r_i_glide_energy>  (126) 
-33.9066

>  <r_i_glide_einternal>  (126) 
2.67112

>  <r_i_glide_intrahb_reward>  (126) 
-0

>  <i_i_glide_confnum>  (126) 
1

>  <i_i_glide_posenum>  (126) 
18

>  <r_i_glide_eff_state_penalty>  (126) 
0

>  <ligand_id>  (126) 
39

>  <original_smiles>  (126) 
CC1CCC2CC1C13Cc4cnn(-c5ccccc5)c4CC1=CC1(C=O)C(C)CC(C3(C)C)C21C=O

>  <smiles>  (126) 
[H]C(=O)C12C([H])=C3C([H])([H])c4c(c([H])nn4-c4c([H])c([H])c([H])c([H])c4[H])C([H])([H])C34C3([H])C([H])([H])C([H])(C([H])([H])C([H])([H])C3([H])C([H])([H])[H])C1(C([H])=O)C([H])(C([H])([H])C2([H])C([H])([H])[H])C4(C([H])([H])[H])C([H])([H])[H]

$$$$
39:0:1
     RDKit          3D

 74 80  0  0  1  0  0  0  0  0999 V2000
    3.8841   -0.2471    1.0714 C   0  0  0  0  0  0  0  0  0  0  0  0
    3.0503   -0.9839    2.1386 C   0  0  2  0  0  0  0  0  0  0  0  0
    1.6407   -0.3386    2.2788 C   0  0  0  0  0  0  0  0  0  0  0  0
    1.5838    0.8409    3.2747 C   0  0  0  0  0  0  0  0  0  0  0  0
    2.4020    0.6240    4.5769 C   0  0  2  0  0  0  0  0  0  0  0  0
    3.8080    0.2332    4.2059 C   0  0  0  0  0  0  0  0  0  0  0  0
    3.8124   -1.1210    3.5013 C   0  0  1  0  0  0  0  0  0  0  0  0
    3.4457   -2.3809    4.3962 C   0  0  2  0  0  0  0  0  0  0  0  0
    4.4430   -3.4903    3.8210 C   0  0  0  0  0  0  0  0  0  0  0  0
    3.9021   -4.8838    3.8838 C   0  0  0  0  0  0  0  0  0  0  0  0
    4.4588   -6.1514    4.2122 C   0  0  0  0  0  0  0  0  0  0  0  0
    3.5443   -7.1066    4.1485 N   0  0  0  0  0  0  0  0  0  0  0  0
    2.3825   -6.4906    3.7989 N   0  0  0  0  0  0  0  0  0  0  0  0
    1.2003   -7.2509    3.6367 C   0  0  0  0  0  0  0  0  0  0  0  0
   -0.0493   -6.7468    4.0615 C   0  0  0  0  0  0  0  0  0  0  0  0
   -1.2263   -7.4840    3.8488 C   0  0  0  0  0  0  0  0  0  0  0  0
   -1.1587   -8.7579    3.2584 C   0  0  0  0  0  0  0  0  0  0  0  0
    0.0890   -9.2896    2.8778 C   0  0  0  0  0  0  0  0  0  0  0  0
    1.2620   -8.5359    3.0569 C   0  0  0  0  0  0  0  0  0  0  0  0
    2.6009   -5.1329    3.6375 C   0  0  0  0  0  0  0  0  0  0  0  0
    1.6726   -4.0304    3.2850 C   0  0  0  0  0  0  0  0  0  0  0  0
    1.9440   -2.8258    4.2029 C   0  0  0  0  0  0  0  0  0  0  0  0
    0.8467   -2.3140    4.8102 C   0  0  0  0  0  0  0  0  0  0  0  0
    0.6150   -1.1321    5.7552 C   0  0  1  0  0  0  0  0  0  0  0  0
   -0.7420   -0.5302    5.2867 C   0  0  0  0  0  0  0  0  0  0  0  0
   -1.7808   -0.6708    5.9379 O   0  0  0  0  0  0  0  0  0  0  0  0
    0.4829   -1.6814    7.2156 C   0  0  1  0  0  0  0  0  0  0  0  0
   -0.2004   -3.0550    7.4131 C   0  0  0  0  0  0  0  0  0  0  0  0
    1.8926   -1.5981    7.8169 C   0  0  0  0  0  0  0  0  0  0  0  0
    2.8349   -1.0461    6.6909 C   0  0  1  0  0  0  0  0  0  0  0  0
    3.7440   -2.1721    5.9604 C   0  0  0  0  0  0  0  0  0  0  0  0
    3.6107   -3.5509    6.6888 C   0  0  0  0  0  0  0  0  0  0  0  0
    5.2587   -1.8610    6.2254 C   0  0  0  0  0  0  0  0  0  0  0  0
    1.8264   -0.1237    5.8644 C   0  0  1  0  0  0  0  0  0  0  0  0
    1.4303    1.0770    6.7947 C   0  0  0  0  0  0  0  0  0  0  0  0
    0.5370    1.8700    6.4976 O   0  0  0  0  0  0  0  0  0  0  0  0
    4.0168    0.8108    1.3050 H   0  0  0  0  0  0  0  0  0  0  0  0
    3.3971   -0.2996    0.0958 H   0  0  0  0  0  0  0  0  0  0  0  0
    4.8722   -0.6950    0.9574 H   0  0  0  0  0  0  0  0  0  0  0  0
    2.9195   -1.9729    1.7066 H   0  0  0  0  0  0  0  0  0  0  0  0
    1.3030    0.0152    1.3014 H   0  0  0  0  0  0  0  0  0  0  0  0
    0.9014   -1.0892    2.5426 H   0  0  0  0  0  0  0  0  0  0  0  0
    2.0276    1.6914    2.7507 H   0  0  0  0  0  0  0  0  0  0  0  0
    0.5686    1.1785    3.4621 H   0  0  0  0  0  0  0  0  0  0  0  0
    2.5836    1.6626    4.8597 H   0  0  0  0  0  0  0  0  0  0  0  0
    4.2150    0.9850    3.5290 H   0  0  0  0  0  0  0  0  0  0  0  0
    4.4531    0.3177    5.0740 H   0  0  0  0  0  0  0  0  0  0  0  0
    4.8668   -1.2286    3.2409 H   0  0  0  0  0  0  0  0  0  0  0  0
    4.5802   -3.3020    2.7521 H   0  0  0  0  0  0  0  0  0  0  0  0
    5.4545   -3.4306    4.2149 H   0  0  0  0  0  0  0  0  0  0  0  0
    5.4665   -6.3912    4.5130 H   0  0  0  0  0  0  0  0  0  0  0  0
   -0.1196   -5.7995    4.5699 H   0  0  0  0  0  0  0  0  0  0  0  0
   -2.1762   -7.0806    4.1648 H   0  0  0  0  0  0  0  0  0  0  0  0
   -2.0556   -9.3474    3.1351 H   0  0  0  0  0  0  0  0  0  0  0  0
    0.1435  -10.2789    2.4384 H   0  0  0  0  0  0  0  0  0  0  0  0
    2.2113   -8.9513    2.7531 H   0  0  0  0  0  0  0  0  0  0  0  0
    1.8605   -3.7478    2.2509 H   0  0  0  0  0  0  0  0  0  0  0  0
    0.6317   -4.3340    3.3089 H   0  0  0  0  0  0  0  0  0  0  0  0
   -0.0830   -2.8086    4.5790 H   0  0  0  0  0  0  0  0  0  0  0  0
   -0.7430   -0.0180    4.3316 H   0  0  0  0  0  0  0  0  0  0  0  0
   -0.1146   -0.9819    7.8002 H   0  0  0  0  0  0  0  0  0  0  0  0
    0.3545   -3.8734    6.9542 H   0  0  0  0  0  0  0  0  0  0  0  0
   -1.2040   -3.0603    6.9884 H   0  0  0  0  0  0  0  0  0  0  0  0
   -0.2982   -3.2902    8.4742 H   0  0  0  0  0  0  0  0  0  0  0  0
    1.8786   -0.8837    8.6420 H   0  0  0  0  0  0  0  0  0  0  0  0
    2.1698   -2.5140    8.3285 H   0  0  0  0  0  0  0  0  0  0  0  0
    3.5335   -0.3787    7.1976 H   0  0  0  0  0  0  0  0  0  0  0  0
    3.8843   -3.4818    7.7422 H   0  0  0  0  0  0  0  0  0  0  0  0
    4.3037   -4.3023    6.3182 H   0  0  0  0  0  0  0  0  0  0  0  0
    2.6147   -3.9866    6.6104 H   0  0  0  0  0  0  0  0  0  0  0  0
    5.4232   -1.4379    7.2158 H   0  0  0  0  0  0  0  0  0  0  0  0
    5.7333   -1.2050    5.5002 H   0  0  0  0  0  0  0  0  0  0  0  0
    5.8774   -2.7586    6.2077 H   0  0  0  0  0  0  0  0  0  0  0  0
    2.0119    1.1917    7.7081 H   0  0  0  0  0  0  0  0  0  0  0  0
  1  2  1  0
  1 37  1  0
  1 38  1  0
  1 39  1  0
  2  7  1  0
  2  3  1  0
  2 40  1  6
  3  4  1  0
  3 41  1  0
  3 42  1  0
  4  5  1  0
  4 43  1  0
  4 44  1  0
  5 34  1  0
  5  6  1  0
  5 45  1  1
  6  7  1  0
  6 46  1  0
  6 47  1  0
  7  8  1  0
  7 48  1  6
  8 22  1  0
  8 31  1  0
  8  9  1  6
  9 10  1  0
  9 49  1  0
  9 50  1  0
 10 20  2  0
 10 11  1  0
 11 12  2  0
 11 51  1  0
 12 13  1  0
 13 14  1  0
 13 20  1  0
 14 19  1  0
 14 15  2  0
 15 16  1  0
 15 52  1  0
 16 17  2  0
 16 53  1  0
 17 18  1  0
 17 54  1  0
 18 19  2  0
 18 55  1  0
 19 56  1  0
 20 21  1  0
 21 22  1  0
 21 57  1  0
 21 58  1  0
 22 23  2  0
 23 24  1  0
 23 59  1  0
 24 34  1  0
 24 25  1  6
 24 27  1  0
 25 26  2  0
 25 60  1  0
 27 28  1  0
 27 29  1  0
 27 61  1  1
 28 62  1  0
 28 63  1  0
 28 64  1  0
 29 30  1  0
 29 65  1  0
 29 66  1  0
 30 31  1  0
 30 34  1  0
 30 67  1  1
 31 32  1  0
 31 33  1  0
 32 68  1  0
 32 69  1  0
 32 70  1  0
 33 71  1  0
 33 72  1  0
 33 73  1  0
 34 35  1  1
 35 36  2  0
 35 74  1  0
M  END
>  <i_m_ct_stereo_status>  (127) 
1

>  <s_m_source_file>  (127) 
/var/tmp/pbs.5076255.sched01/tmp7c02qu8j/38qwqhi24o.sdf

>  <i_m_source_file_index>  (127) 
17

>  <i_lp_mmshare_version>  (127) 
48012

>  <i_f3d_flags>  (127) 
0

>  <s_epik_input>  (127) 
W0NAQF0xMjNbQ0BIXTRbQ0BIXShbQ0gzXSlbQ0gyXVtDSDJdW0NASF0oW0NIMl00KVtDQEBdNShbQ0hdPU8pW0NAXShbQ0hdPU8pKFtDQEBIXShbQ0gzXSlbQ0gyXVtDQEhdNUMzKFtDSDNdKVtDSDNdKVtDSF09QzJbQ0gyXWM2YyhbQ0gyXTEpW2NIXW5uNi1jN1tjSF1bY0hdW2NIXVtjSF1bY0hdNw==

>  <s_epik_cmdline>  (127) 
J2VwaWtfcHl0aG9uJywgJy1waHQnLCAnMi4wJywgJy1waCcsICc3LjAnLCAnLXRuJywgJzgnLCAnLW1hJywgJzIwMCcsICctaW1hZScsICc8aW5maWxlLm1hZT4nLCAnLW9tYWUnLCAnPG91dGZpbGUubWFlPic=

>  <r_lp_tautomer_probability>  (127) 
1

>  <r_epik_Ionization_Penalty>  (127) 
0.000252414

>  <r_epik_Ionization_Penalty_Charging>  (127) 
0

>  <r_epik_Ionization_Penalty_Neutral>  (127) 
0.000252414

>  <r_epik_State_Penalty>  (127) 
-0

>  <r_epik_Charging_Adjusted_Penalty>  (127) 
0

>  <i_epik_Tot_Q>  (127) 
0

>  <i_epik_Tot_abs_Q>  (127) 
0

>  <s_lp_Force_Field>  (127) 
OPLS3e

>  <r_lp_Energy>  (127) 
130.356

>  <b_lp_Chiralities_Consistent>  (127) 
1

>  <s_lp_Variant>  (127) 
39:0-1

>  <s_i_glide_gridfile>  (127) 
pfpi4k_grid

>  <i_i_glide_lignum>  (127) 
17

>  <i_i_glide_rotatable_bonds>  (127) 
3

>  <r_i_docking_score>  (127) 
-2.33584

>  <r_i_glide_ligand_efficiency>  (127) 
-0.0648844

>  <r_i_glide_ligand_efficiency_sa>  (127) 
-0.214244

>  <r_i_glide_ligand_efficiency_ln>  (127) 
-0.509617

>  <r_i_glide_gscore>  (127) 
-2.33584

>  <r_i_glide_lipo>  (127) 
-0.0878239

>  <r_i_glide_hbond>  (127) 
-0.105715

>  <r_i_glide_metal>  (127) 
-0

>  <r_i_glide_rewards>  (127) 
-0.118252

>  <r_i_glide_evdw>  (127) 
-29.3714

>  <r_i_glide_ecoul>  (127) 
-4.08234

>  <r_i_glide_erotb>  (127) 
0.0871196

>  <r_i_glide_esite>  (127) 
-0.0302443

>  <r_i_glide_emodel>  (127) 
-37.6047

>  <r_i_glide_energy>  (127) 
-33.4538

>  <r_i_glide_einternal>  (127) 
0.97263

>  <r_i_glide_intrahb_reward>  (127) 
-0

>  <i_i_glide_confnum>  (127) 
6

>  <i_i_glide_posenum>  (127) 
29

>  <r_i_glide_eff_state_penalty>  (127) 
0

>  <ligand_id>  (127) 
39

>  <original_smiles>  (127) 
CC1CCC2CC1C13Cc4cnn(-c5ccccc5)c4CC1=CC1(C=O)C(C)CC(C3(C)C)C21C=O

>  <smiles>  (127) 
[H]C(=O)C12C([H])=C3C([H])([H])c4c(c([H])nn4-c4c([H])c([H])c([H])c([H])c4[H])C([H])([H])C34C3([H])C([H])([H])C([H])(C([H])([H])C([H])([H])C3([H])C([H])([H])[H])C1(C([H])=O)C([H])(C([H])([H])C2([H])C([H])([H])[H])C4(C([H])([H])[H])C([H])([H])[H]

$$$$
39:0:2
     RDKit          3D

 74 80  0  0  1  0  0  0  0  0999 V2000
    3.7704   -0.2113    1.2479 C   0  0  0  0  0  0  0  0  0  0  0  0
    2.9397   -1.0571    2.2362 C   0  0  2  0  0  0  0  0  0  0  0  0
    1.4701   -0.5517    2.2987 C   0  0  0  0  0  0  0  0  0  0  0  0
    1.2361    0.5881    3.3129 C   0  0  0  0  0  0  0  0  0  0  0  0
    1.9807    0.4069    4.6622 C   0  0  2  0  0  0  0  0  0  0  0  0
    3.4401    0.1588    4.3807 C   0  0  0  0  0  0  0  0  0  0  0  0
    3.6180   -1.1676    3.6450 C   0  0  1  0  0  0  0  0  0  0  0  0
    3.3147   -2.4830    4.4809 C   0  0  2  0  0  0  0  0  0  0  0  0
    4.4491   -3.4740    3.9466 C   0  0  0  0  0  0  0  0  0  0  0  0
    4.0451   -4.9137    3.9336 C   0  0  0  0  0  0  0  0  0  0  0  0
    4.6886   -6.1325    4.2804 C   0  0  0  0  0  0  0  0  0  0  0  0
    3.8662   -7.1651    4.1593 N   0  0  0  0  0  0  0  0  0  0  0  0
    2.6934   -6.6508    3.7065 N   0  0  0  0  0  0  0  0  0  0  0  0
    1.5888   -7.4960    3.4463 C   0  0  0  0  0  0  0  0  0  0  0  0
    0.7387   -7.2297    2.3576 C   0  0  0  0  0  0  0  0  0  0  0  0
   -0.3563   -8.0667    2.0829 C   0  0  0  0  0  0  0  0  0  0  0  0
   -0.5915   -9.1960    2.8855 C   0  0  0  0  0  0  0  0  0  0  0  0
    0.2570   -9.4760    3.9713 C   0  0  0  0  0  0  0  0  0  0  0  0
    1.3469   -8.6294    4.2561 C   0  0  0  0  0  0  0  0  0  0  0  0
    2.7962   -5.2774    3.5956 C   0  0  0  0  0  0  0  0  0  0  0  0
    1.7708   -4.2725    3.2436 C   0  0  0  0  0  0  0  0  0  0  0  0
    1.8758   -3.0605    4.1852 C   0  0  0  0  0  0  0  0  0  0  0  0
    0.6982   -2.6617    4.7211 C   0  0  0  0  0  0  0  0  0  0  0  0
    0.2935   -1.5351    5.6724 C   0  0  1  0  0  0  0  0  0  0  0  0
   -1.0716   -1.0480    5.1088 C   0  0  0  0  0  0  0  0  0  0  0  0
   -2.1384   -1.2807    5.6798 O   0  0  0  0  0  0  0  0  0  0  0  0
    0.1272   -2.1568    7.1015 C   0  0  1  0  0  0  0  0  0  0  0  0
   -0.4464   -3.5855    7.2232 C   0  0  0  0  0  0  0  0  0  0  0  0
    1.4760   -1.9467    7.8042 C   0  0  0  0  0  0  0  0  0  0  0  0
    2.4271   -1.2723    6.7590 C   0  0  1  0  0  0  0  0  0  0  0  0
    3.4874   -2.2888    6.0656 C   0  0  0  0  0  0  0  0  0  0  0  0
    3.4367   -3.6961    6.7503 C   0  0  0  0  0  0  0  0  0  0  0  0
    4.9462   -1.8509    6.4391 C   0  0  0  0  0  0  0  0  0  0  0  0
    1.3873   -0.4149    5.8974 C   0  0  1  0  0  0  0  0  0  0  0  0
    0.8577    0.7435    6.8308 C   0  0  0  0  0  0  0  0  0  0  0  0
   -0.3015    0.8406    7.2384 O   0  0  0  0  0  0  0  0  0  0  0  0
    3.7948    0.8456    1.5179 H   0  0  0  0  0  0  0  0  0  0  0  0
    3.3521   -0.2753    0.2417 H   0  0  0  0  0  0  0  0  0  0  0  0
    4.7994   -0.5681    1.1861 H   0  0  0  0  0  0  0  0  0  0  0  0
    2.9304   -2.0416    1.7731 H   0  0  0  0  0  0  0  0  0  0  0  0
    1.1705   -0.1973    1.3121 H   0  0  0  0  0  0  0  0  0  0  0  0
    0.7890   -1.3754    2.4901 H   0  0  0  0  0  0  0  0  0  0  0  0
    1.6312    1.4926    2.8403 H   0  0  0  0  0  0  0  0  0  0  0  0
    0.1837    0.8267    3.4369 H   0  0  0  0  0  0  0  0  0  0  0  0
    2.0416    1.4491    4.9708 H   0  0  0  0  0  0  0  0  0  0  0  0
    3.8207    0.9640    3.7506 H   0  0  0  0  0  0  0  0  0  0  0  0
    4.0196    0.2766    5.2886 H   0  0  0  0  0  0  0  0  0  0  0  0
    4.6929   -1.1704    3.4525 H   0  0  0  0  0  0  0  0  0  0  0  0
    4.6370   -3.2410    2.8971 H   0  0  0  0  0  0  0  0  0  0  0  0
    5.4191   -3.3350    4.4125 H   0  0  0  0  0  0  0  0  0  0  0  0
    5.6904   -6.2906    4.6512 H   0  0  0  0  0  0  0  0  0  0  0  0
    0.9438   -6.3972    1.7059 H   0  0  0  0  0  0  0  0  0  0  0  0
   -0.9870   -7.8651    1.2321 H   0  0  0  0  0  0  0  0  0  0  0  0
   -1.4165   -9.8565    2.6641 H   0  0  0  0  0  0  0  0  0  0  0  0
    0.0803  -10.3538    4.5821 H   0  0  0  0  0  0  0  0  0  0  0  0
    1.9954   -8.8588    5.0851 H   0  0  0  0  0  0  0  0  0  0  0  0
    1.9467   -3.9484    2.2202 H   0  0  0  0  0  0  0  0  0  0  0  0
    0.7772   -4.7120    3.2718 H   0  0  0  0  0  0  0  0  0  0  0  0
   -0.1650   -3.2363    4.4165 H   0  0  0  0  0  0  0  0  0  0  0  0
   -1.0510   -0.5500    4.1448 H   0  0  0  0  0  0  0  0  0  0  0  0
   -0.5808   -1.5594    7.6681 H   0  0  0  0  0  0  0  0  0  0  0  0
    0.2063   -4.3412    6.7839 H   0  0  0  0  0  0  0  0  0  0  0  0
   -1.4210   -3.6542    6.7382 H   0  0  0  0  0  0  0  0  0  0  0  0
   -0.5928   -3.8498    8.2732 H   0  0  0  0  0  0  0  0  0  0  0  0
    1.3347   -1.2542    8.6343 H   0  0  0  0  0  0  0  0  0  0  0  0
    1.8088   -2.8418    8.3200 H   0  0  0  0  0  0  0  0  0  0  0  0
    3.0242   -0.5581    7.3281 H   0  0  0  0  0  0  0  0  0  0  0  0
    3.6355   -3.6337    7.8212 H   0  0  0  0  0  0  0  0  0  0  0  0
    4.2189   -4.3700    6.4102 H   0  0  0  0  0  0  0  0  0  0  0  0
    2.4937   -4.2194    6.5959 H   0  0  0  0  0  0  0  0  0  0  0  0
    5.0054   -1.4458    7.4481 H   0  0  0  0  0  0  0  0  0  0  0  0
    5.4066   -1.1352    5.7639 H   0  0  0  0  0  0  0  0  0  0  0  0
    5.6438   -2.6889    6.4442 H   0  0  0  0  0  0  0  0  0  0  0  0
    1.6069    1.4932    7.0938 H   0  0  0  0  0  0  0  0  0  0  0  0
  1  2  1  0
  1 37  1  0
  1 38  1  0
  1 39  1  0
  2  7  1  0
  2  3  1  0
  2 40  1  6
  3  4  1  0
  3 41  1  0
  3 42  1  0
  4  5  1  0
  4 43  1  0
  4 44  1  0
  5 34  1  0
  5  6  1  0
  5 45  1  1
  6  7  1  0
  6 46  1  0
  6 47  1  0
  7  8  1  0
  7 48  1  6
  8 22  1  0
  8 31  1  0
  8  9  1  6
  9 10  1  0
  9 49  1  0
  9 50  1  0
 10 20  2  0
 10 11  1  0
 11 12  2  0
 11 51  1  0
 12 13  1  0
 13 14  1  0
 13 20  1  0
 14 19  1  0
 14 15  2  0
 15 16  1  0
 15 52  1  0
 16 17  2  0
 16 53  1  0
 17 18  1  0
 17 54  1  0
 18 19  2  0
 18 55  1  0
 19 56  1  0
 20 21  1  0
 21 22  1  0
 21 57  1  0
 21 58  1  0
 22 23  2  0
 23 24  1  0
 23 59  1  0
 24 34  1  0
 24 25  1  6
 24 27  1  0
 25 26  2  0
 25 60  1  0
 27 28  1  0
 27 29  1  0
 27 61  1  1
 28 62  1  0
 28 63  1  0
 28 64  1  0
 29 30  1  0
 29 65  1  0
 29 66  1  0
 30 31  1  0
 30 34  1  0
 30 67  1  1
 31 32  1  0
 31 33  1  0
 32 68  1  0
 32 69  1  0
 32 70  1  0
 33 71  1  0
 33 72  1  0
 33 73  1  0
 34 35  1  1
 35 36  2  0
 35 74  1  0
M  END
>  <i_m_ct_stereo_status>  (128) 
1

>  <s_m_source_file>  (128) 
/var/tmp/pbs.5076255.sched01/tmp7c02qu8j/38qwqhi24o.sdf

>  <i_m_source_file_index>  (128) 
17

>  <i_lp_mmshare_version>  (128) 
48012

>  <i_f3d_flags>  (128) 
0

>  <s_epik_input>  (128) 
W0NAQF0xMjNbQ0BIXTRbQ0BIXShbQ0gzXSlbQ0gyXVtDSDJdW0NASF0oW0NIMl00KVtDQEBdNShbQ0hdPU8pW0NAXShbQ0hdPU8pKFtDQEBIXShbQ0gzXSlbQ0gyXVtDQEhdNUMzKFtDSDNdKVtDSDNdKVtDSF09QzJbQ0gyXWM2YyhbQ0gyXTEpW2NIXW5uNi1jN1tjSF1bY0hdW2NIXVtjSF1bY0hdNw==

>  <s_epik_cmdline>  (128) 
J2VwaWtfcHl0aG9uJywgJy1waHQnLCAnMi4wJywgJy1waCcsICc3LjAnLCAnLXRuJywgJzgnLCAnLW1hJywgJzIwMCcsICctaW1hZScsICc8aW5maWxlLm1hZT4nLCAnLW9tYWUnLCAnPG91dGZpbGUubWFlPic=

>  <r_lp_tautomer_probability>  (128) 
1

>  <r_epik_Ionization_Penalty>  (128) 
0.000252414

>  <r_epik_Ionization_Penalty_Charging>  (128) 
0

>  <r_epik_Ionization_Penalty_Neutral>  (128) 
0.000252414

>  <r_epik_State_Penalty>  (128) 
-0

>  <r_epik_Charging_Adjusted_Penalty>  (128) 
0

>  <i_epik_Tot_Q>  (128) 
0

>  <i_epik_Tot_abs_Q>  (128) 
0

>  <s_lp_Force_Field>  (128) 
OPLS3e

>  <r_lp_Energy>  (128) 
130.356

>  <b_lp_Chiralities_Consistent>  (128) 
1

>  <s_lp_Variant>  (128) 
39:0-1

>  <s_i_glide_gridfile>  (128) 
pfpi4k_grid

>  <i_i_glide_lignum>  (128) 
17

>  <i_i_glide_rotatable_bonds>  (128) 
3

>  <r_i_docking_score>  (128) 
-2.31788

>  <r_i_glide_ligand_efficiency>  (128) 
-0.0643855

>  <r_i_glide_ligand_efficiency_sa>  (128) 
-0.212596

>  <r_i_glide_ligand_efficiency_ln>  (128) 
-0.505698

>  <r_i_glide_gscore>  (128) 
-2.31788

>  <r_i_glide_lipo>  (128) 
-0.0664173

>  <r_i_glide_hbond>  (128) 
-0.0259242

>  <r_i_glide_metal>  (128) 
-0

>  <r_i_glide_rewards>  (128) 
-0.118252

>  <r_i_glide_evdw>  (128) 
-29.8295

>  <r_i_glide_ecoul>  (128) 
-4.41343

>  <r_i_glide_erotb>  (128) 
0.0871196

>  <r_i_glide_esite>  (128) 
-0.0409127

>  <r_i_glide_emodel>  (128) 
-37.5822

>  <r_i_glide_energy>  (128) 
-34.243

>  <r_i_glide_einternal>  (128) 
2.29205

>  <r_i_glide_intrahb_reward>  (128) 
-0

>  <i_i_glide_confnum>  (128) 
3

>  <i_i_glide_posenum>  (128) 
32

>  <r_i_glide_eff_state_penalty>  (128) 
0

>  <ligand_id>  (128) 
39

>  <original_smiles>  (128) 
CC1CCC2CC1C13Cc4cnn(-c5ccccc5)c4CC1=CC1(C=O)C(C)CC(C3(C)C)C21C=O

>  <smiles>  (128) 
[H]C(=O)C12C([H])=C3C([H])([H])c4c(c([H])nn4-c4c([H])c([H])c([H])c([H])c4[H])C([H])([H])C34C3([H])C([H])([H])C([H])(C([H])([H])C([H])([H])C3([H])C([H])([H])[H])C1(C([H])=O)C([H])(C([H])([H])C2([H])C([H])([H])[H])C4(C([H])([H])[H])C([H])([H])[H]

$$$$
40:1:0
     RDKit          3D

 55 57  0  0  1  0  0  0  0  0999 V2000
    0.3183   -8.0094    3.8378 C   0  0  0  0  0  0  0  0  0  0  0  0
   -0.3203   -7.6848    2.5655 N   0  0  0  0  0  0  0  0  0  0  0  0
   -1.1611   -8.8234    2.2075 C   0  0  0  0  0  0  0  0  0  0  0  0
    0.6616   -7.4561    1.5061 C   0  0  0  0  0  0  0  0  0  0  0  0
    1.5195   -6.2194    1.8119 C   0  0  0  0  0  0  0  0  0  0  0  0
    2.4566   -5.8057    0.6752 C   0  0  0  0  0  0  0  0  0  0  0  0
    3.1542   -4.5611    1.0611 N   0  0  0  0  0  0  0  0  0  0  0  0
    4.2349   -4.1110    0.1624 C   0  0  2  0  0  0  0  0  0  0  0  0
    5.5327   -3.8502    0.9793 C   0  0  1  0  0  0  0  0  0  0  0  0
    5.9749   -5.1130    1.7509 C   0  0  0  0  0  0  0  0  0  0  0  0
    6.6519   -3.4504   -0.0121 C   0  0  0  0  0  0  0  0  0  0  0  0
    6.2404   -2.1853   -0.7886 C   0  0  2  0  0  0  0  0  0  0  0  0
    6.0227   -1.0318    0.2059 C   0  0  0  0  0  0  0  0  0  0  0  0
    4.8932   -1.3963    1.1913 C   0  0  2  0  0  0  0  0  0  0  0  0
    4.6477   -0.2481    2.1740 C   0  0  0  0  0  0  0  0  0  0  0  0
    5.3067   -2.6702    1.9578 C   0  0  0  0  0  0  0  0  0  0  0  0
    3.5965   -1.6711    0.3914 C   0  0  0  0  0  0  0  0  0  0  0  0
    3.8048   -2.8332   -0.6098 C   0  0  2  0  0  0  0  0  0  0  0  0
    2.5188   -3.0762   -1.4278 C   0  0  0  0  0  0  0  0  0  0  0  0
    4.9439   -2.4493   -1.5805 C   0  0  0  0  0  0  0  0  0  0  0  0
    0.9199   -7.1797    4.2145 H   0  0  0  0  0  0  0  0  0  0  0  0
    0.9610   -8.8872    3.7401 H   0  0  0  0  0  0  0  0  0  0  0  0
   -0.4449   -8.2360    4.5866 H   0  0  0  0  0  0  0  0  0  0  0  0
   -1.7072   -8.6445    1.2791 H   0  0  0  0  0  0  0  0  0  0  0  0
   -1.9056   -8.9997    2.9864 H   0  0  0  0  0  0  0  0  0  0  0  0
   -0.5752   -9.7403    2.0811 H   0  0  0  0  0  0  0  0  0  0  0  0
    1.2860   -8.3391    1.3517 H   0  0  0  0  0  0  0  0  0  0  0  0
    0.1201   -7.3040    0.5719 H   0  0  0  0  0  0  0  0  0  0  0  0
    0.8646   -5.3887    2.0755 H   0  0  0  0  0  0  0  0  0  0  0  0
    2.1503   -6.4037    2.6823 H   0  0  0  0  0  0  0  0  0  0  0  0
    3.1966   -6.5948    0.5210 H   0  0  0  0  0  0  0  0  0  0  0  0
    1.9208   -5.6586   -0.2676 H   0  0  0  0  0  0  0  0  0  0  0  0
    2.4935   -3.8029    1.1374 H   0  0  0  0  0  0  0  0  0  0  0  0
    4.4470   -4.9007   -0.5595 H   0  0  0  0  0  0  0  0  0  0  0  0
    6.9319   -4.9656    2.2531 H   0  0  0  0  0  0  0  0  0  0  0  0
    6.0926   -5.9704    1.0866 H   0  0  0  0  0  0  0  0  0  0  0  0
    5.2626   -5.4017    2.5242 H   0  0  0  0  0  0  0  0  0  0  0  0
    7.5908   -3.2649    0.5153 H   0  0  0  0  0  0  0  0  0  0  0  0
    6.8494   -4.2525   -0.7181 H   0  0  0  0  0  0  0  0  0  0  0  0
    7.0317   -1.9234   -1.4926 H   0  0  0  0  0  0  0  0  0  0  0  0
    6.9502   -0.8227    0.7441 H   0  0  0  0  0  0  0  0  0  0  0  0
    5.7616   -0.1250   -0.3353 H   0  0  0  0  0  0  0  0  0  0  0  0
    3.8580   -0.4830    2.8887 H   0  0  0  0  0  0  0  0  0  0  0  0
    4.3284    0.6431    1.6344 H   0  0  0  0  0  0  0  0  0  0  0  0
    5.5448   -0.0006    2.7465 H   0  0  0  0  0  0  0  0  0  0  0  0
    4.5536   -2.9127    2.7072 H   0  0  0  0  0  0  0  0  0  0  0  0
    6.2214   -2.4726    2.5164 H   0  0  0  0  0  0  0  0  0  0  0  0
    2.7808   -1.8891    1.0820 H   0  0  0  0  0  0  0  0  0  0  0  0
    3.2898   -0.7701   -0.1450 H   0  0  0  0  0  0  0  0  0  0  0  0
    2.2436   -2.2197   -2.0406 H   0  0  0  0  0  0  0  0  0  0  0  0
    1.6601   -3.2918   -0.7919 H   0  0  0  0  0  0  0  0  0  0  0  0
    2.6317   -3.9079   -2.1181 H   0  0  0  0  0  0  0  0  0  0  0  0
    4.6743   -1.5567   -2.1485 H   0  0  0  0  0  0  0  0  0  0  0  0
    5.1159   -3.2427   -2.3093 H   0  0  0  0  0  0  0  0  0  0  0  0
    3.5609   -4.6914    1.9741 H   0  0  0  0  0  0  0  0  0  0  0  0
  1  2  1  0
  1 21  1  0
  1 22  1  0
  1 23  1  0
  2  3  1  0
  2  4  1  0
  3 24  1  0
  3 25  1  0
  3 26  1  0
  4  5  1  0
  4 27  1  0
  4 28  1  0
  5  6  1  0
  5 29  1  0
  5 30  1  0
  6  7  1  0
  6 31  1  0
  6 32  1  0
  7  8  1  0
  7 33  1  0
  7 55  1  0
  8 18  1  0
  8  9  1  0
  8 34  1  6
  9 16  1  0
  9 10  1  1
  9 11  1  0
 10 35  1  0
 10 36  1  0
 10 37  1  0
 11 12  1  0
 11 38  1  0
 11 39  1  0
 12 20  1  0
 12 13  1  0
 12 40  1  6
 13 14  1  0
 13 41  1  0
 13 42  1  0
 14 15  1  1
 14 16  1  0
 14 17  1  0
 15 43  1  0
 15 44  1  0
 15 45  1  0
 16 46  1  0
 16 47  1  0
 17 18  1  0
 17 48  1  0
 17 49  1  0
 18 19  1  6
 18 20  1  0
 19 50  1  0
 19 51  1  0
 19 52  1  0
 20 53  1  0
 20 54  1  0
M  CHG  1   7   1
M  END
>  <i_m_ct_stereo_status>  (129) 
1

>  <s_m_source_file>  (129) 
/var/tmp/pbs.5076255.sched01/tmp7c02qu8j/38qwqhi24o.sdf

>  <i_m_source_file_index>  (129) 
19

>  <i_lp_mmshare_version>  (129) 
48012

>  <i_f3d_flags>  (129) 
0

>  <s_epik_input>  (129) 
W0NIM11OKFtDSDNdKVtDSDJdW0NIMl1bQ0gyXVtOSF1bQ0BIXShbQ0BAXTEyW0NIM10pW0NAQF0zKFtDSDNdKVtDSDJdW0NAQF0oW0NIM10pKFtDSDJdMilbQ0gyXVtDQEBIXShbQ0gyXTEpW0NIMl0z

>  <s_epik_cmdline>  (129) 
J2VwaWtfcHl0aG9uJywgJy1waHQnLCAnMi4wJywgJy1waCcsICc3LjAnLCAnLXRuJywgJzgnLCAnLW1hJywgJzIwMCcsICctaW1hZScsICc8aW5maWxlLm1hZT4nLCAnLW9tYWUnLCAnPG91dGZpbGUubWFlPic=

>  <r_epik_Ionization_Penalty>  (129) 
2.38359

>  <r_epik_Ionization_Penalty_Charging>  (129) 
6.22348e-05

>  <r_epik_Ionization_Penalty_Neutral>  (129) 
2.38353

>  <r_epik_State_Penalty>  (129) 
2.54019

>  <r_epik_Charging_Adjusted_Penalty>  (129) 
2.54025

>  <i_epik_Tot_Q>  (129) 
1

>  <i_epik_Tot_abs_Q>  (129) 
1

>  <s_lp_Force_Field>  (129) 
OPLS3e

>  <r_lp_Energy>  (129) 
26.638

>  <b_lp_Chiralities_Consistent>  (129) 
1

>  <s_lp_Variant>  (129) 
40:0-2

>  <s_i_glide_gridfile>  (129) 
pfpi4k_grid

>  <i_i_glide_lignum>  (129) 
19

>  <i_i_glide_rotatable_bonds>  (129) 
5

>  <r_i_docking_score>  (129) 
-2.70525

>  <r_i_glide_ligand_efficiency>  (129) 
-0.135263

>  <r_i_glide_ligand_efficiency_sa>  (129) 
-0.36716

>  <r_i_glide_ligand_efficiency_ln>  (129) 
-0.677036

>  <r_i_glide_gscore>  (129) 
-2.70525

>  <r_i_glide_lipo>  (129) 
-0.565883

>  <r_i_glide_hbond>  (129) 
0

>  <r_i_glide_metal>  (129) 
-0

>  <r_i_glide_rewards>  (129) 
-1.50352

>  <r_i_glide_evdw>  (129) 
-20.3411

>  <r_i_glide_ecoul>  (129) 
-3.58941

>  <r_i_glide_erotb>  (129) 
0.924008

>  <r_i_glide_esite>  (129) 
-0.00439323

>  <r_i_glide_emodel>  (129) 
-27.6814

>  <r_i_glide_energy>  (129) 
-23.9305

>  <r_i_glide_einternal>  (129) 
0.441228

>  <r_i_glide_intrahb_reward>  (129) 
-0

>  <i_i_glide_confnum>  (129) 
1

>  <i_i_glide_posenum>  (129) 
1

>  <r_i_glide_eff_state_penalty>  (129) 
0

>  <ligand_id>  (129) 
40

>  <original_smiles>  (129) 
CN(C)CCCNC1C2(C)CC3CC(C)(C2)CC1(C)C3

>  <smiles>  (129) 
[H]C([H])([H])N(C([H])([H])[H])C([H])([H])C([H])([H])C([H])([H])[N+]([H])([H])C1([H])C2(C([H])([H])[H])C([H])([H])C3([H])C([H])([H])C(C([H])([H])[H])(C2([H])[H])C([H])([H])C1(C([H])([H])[H])C3([H])[H]

$$$$
40:1:1
     RDKit          3D

 55 57  0  0  1  0  0  0  0  0999 V2000
   -6.5110    5.4466    2.0653 C   0  0  0  0  0  0  0  0  0  0  0  0
   -5.2198    6.1234    2.0783 N   0  0  0  0  0  0  0  0  0  0  0  0
   -5.3538    7.4703    1.5523 C   0  0  0  0  0  0  0  0  0  0  0  0
   -4.2225    5.3753    1.3587 C   0  0  0  0  0  0  0  0  0  0  0  0
   -3.8053    4.0714    2.0747 C   0  0  0  0  0  0  0  0  0  0  0  0
   -2.4065    4.1540    2.6871 C   0  0  0  0  0  0  0  0  0  0  0  0
   -1.8557    2.7993    2.8875 N   0  0  0  0  0  0  0  0  0  0  0  0
   -0.5855    2.6951    3.6403 C   0  0  2  0  0  0  0  0  0  0  0  0
    0.2395    1.4835    3.1379 C   0  0  1  0  0  0  0  0  0  0  0  0
    0.5427    1.5922    1.6309 C   0  0  0  0  0  0  0  0  0  0  0  0
    1.5831    1.4504    3.9009 C   0  0  0  0  0  0  0  0  0  0  0  0
    1.3182    1.3104    5.4139 C   0  0  2  0  0  0  0  0  0  0  0  0
    0.5592   -0.0019    5.6876 C   0  0  0  0  0  0  0  0  0  0  0  0
   -0.7939    0.0207    4.9434 C   0  0  2  0  0  0  0  0  0  0  0  0
   -1.5720   -1.2732    5.2116 C   0  0  0  0  0  0  0  0  0  0  0  0
   -0.5200    0.1650    3.4293 C   0  0  0  0  0  0  0  0  0  0  0  0
   -1.6230    1.2341    5.4222 C   0  0  0  0  0  0  0  0  0  0  0  0
   -0.8676    2.5602    5.1619 C   0  0  2  0  0  0  0  0  0  0  0  0
   -1.6837    3.7385    5.7186 C   0  0  0  0  0  0  0  0  0  0  0  0
    0.4883    2.5124    5.9044 C   0  0  0  0  0  0  0  0  0  0  0  0
   -6.4520    4.4374    2.4799 H   0  0  0  0  0  0  0  0  0  0  0  0
   -6.8838    5.3786    1.0443 H   0  0  0  0  0  0  0  0  0  0  0  0
   -7.2237    6.0106    2.6651 H   0  0  0  0  0  0  0  0  0  0  0  0
   -4.4052    8.0133    1.6065 H   0  0  0  0  0  0  0  0  0  0  0  0
   -6.0853    8.0225    2.1409 H   0  0  0  0  0  0  0  0  0  0  0  0
   -5.6886    7.4629    0.5154 H   0  0  0  0  0  0  0  0  0  0  0  0
   -4.6151    5.1667    0.3622 H   0  0  0  0  0  0  0  0  0  0  0  0
   -3.3583    6.0305    1.2137 H   0  0  0  0  0  0  0  0  0  0  0  0
   -4.4872    3.7698    2.8639 H   0  0  0  0  0  0  0  0  0  0  0  0
   -3.8644    3.2594    1.3416 H   0  0  0  0  0  0  0  0  0  0  0  0
   -1.7127    4.7075    2.0644 H   0  0  0  0  0  0  0  0  0  0  0  0
   -2.4614    4.6860    3.6179 H   0  0  0  0  0  0  0  0  0  0  0  0
   -2.5518    2.2134    3.3313 H   0  0  0  0  0  0  0  0  0  0  0  0
   -0.0155    3.5979    3.4346 H   0  0  0  0  0  0  0  0  0  0  0  0
    1.1758    0.7736    1.2737 H   0  0  0  0  0  0  0  0  0  0  0  0
    1.0598    2.5170    1.4010 H   0  0  0  0  0  0  0  0  0  0  0  0
   -0.3581    1.5651    1.0191 H   0  0  0  0  0  0  0  0  0  0  0  0
    2.2039    0.6180    3.5564 H   0  0  0  0  0  0  0  0  0  0  0  0
    2.1606    2.3582    3.7058 H   0  0  0  0  0  0  0  0  0  0  0  0
    2.2710    1.2865    5.9452 H   0  0  0  0  0  0  0  0  0  0  0  0
    1.1571   -0.8507    5.3550 H   0  0  0  0  0  0  0  0  0  0  0  0
    0.4068   -0.1208    6.7597 H   0  0  0  0  0  0  0  0  0  0  0  0
   -2.5428   -1.2589    4.7167 H   0  0  0  0  0  0  0  0  0  0  0  0
   -1.7574   -1.4140    6.2738 H   0  0  0  0  0  0  0  0  0  0  0  0
   -1.0300   -2.1521    4.8608 H   0  0  0  0  0  0  0  0  0  0  0  0
   -1.4593    0.1438    2.8772 H   0  0  0  0  0  0  0  0  0  0  0  0
    0.0663   -0.6869    3.0733 H   0  0  0  0  0  0  0  0  0  0  0  0
   -2.5760    1.2380    4.8969 H   0  0  0  0  0  0  0  0  0  0  0  0
   -1.8603    1.1368    6.4838 H   0  0  0  0  0  0  0  0  0  0  0  0
   -1.7549    3.7102    6.8086 H   0  0  0  0  0  0  0  0  0  0  0  0
   -2.6847    3.7818    5.2967 H   0  0  0  0  0  0  0  0  0  0  0  0
   -1.2214    4.6901    5.4756 H   0  0  0  0  0  0  0  0  0  0  0  0
    0.3378    2.4267    6.9825 H   0  0  0  0  0  0  0  0  0  0  0  0
    1.0528    3.4332    5.7395 H   0  0  0  0  0  0  0  0  0  0  0  0
   -1.6798    2.3947    1.9689 H   0  0  0  0  0  0  0  0  0  0  0  0
  1  2  1  0
  1 21  1  0
  1 22  1  0
  1 23  1  0
  2  3  1  0
  2  4  1  0
  3 24  1  0
  3 25  1  0
  3 26  1  0
  4  5  1  0
  4 27  1  0
  4 28  1  0
  5  6  1  0
  5 29  1  0
  5 30  1  0
  6  7  1  0
  6 31  1  0
  6 32  1  0
  7  8  1  0
  7 33  1  0
  7 55  1  0
  8 18  1  0
  8  9  1  0
  8 34  1  1
  9 16  1  0
  9 10  1  6
  9 11  1  0
 10 35  1  0
 10 36  1  0
 10 37  1  0
 11 12  1  0
 11 38  1  0
 11 39  1  0
 12 20  1  0
 12 13  1  0
 12 40  1  1
 13 14  1  0
 13 41  1  0
 13 42  1  0
 14 15  1  6
 14 16  1  0
 14 17  1  0
 15 43  1  0
 15 44  1  0
 15 45  1  0
 16 46  1  0
 16 47  1  0
 17 18  1  0
 17 48  1  0
 17 49  1  0
 18 19  1  1
 18 20  1  0
 19 50  1  0
 19 51  1  0
 19 52  1  0
 20 53  1  0
 20 54  1  0
M  CHG  1   7   1
M  END
>  <i_m_ct_stereo_status>  (130) 
1

>  <s_m_source_file>  (130) 
/var/tmp/pbs.5076255.sched01/tmp7c02qu8j/38qwqhi24o.sdf

>  <i_m_source_file_index>  (130) 
19

>  <i_lp_mmshare_version>  (130) 
48012

>  <i_f3d_flags>  (130) 
0

>  <s_epik_input>  (130) 
W0NIM11OKFtDSDNdKVtDSDJdW0NIMl1bQ0gyXVtOSF1bQ0BIXShbQ0BAXTEyW0NIM10pW0NAQF0zKFtDSDNdKVtDSDJdW0NAQF0oW0NIM10pKFtDSDJdMilbQ0gyXVtDQEBIXShbQ0gyXTEpW0NIMl0z

>  <s_epik_cmdline>  (130) 
J2VwaWtfcHl0aG9uJywgJy1waHQnLCAnMi4wJywgJy1waCcsICc3LjAnLCAnLXRuJywgJzgnLCAnLW1hJywgJzIwMCcsICctaW1hZScsICc8aW5maWxlLm1hZT4nLCAnLW9tYWUnLCAnPG91dGZpbGUubWFlPic=

>  <r_epik_Ionization_Penalty>  (130) 
2.38359

>  <r_epik_Ionization_Penalty_Charging>  (130) 
6.22348e-05

>  <r_epik_Ionization_Penalty_Neutral>  (130) 
2.38353

>  <r_epik_State_Penalty>  (130) 
2.54019

>  <r_epik_Charging_Adjusted_Penalty>  (130) 
2.54025

>  <i_epik_Tot_Q>  (130) 
1

>  <i_epik_Tot_abs_Q>  (130) 
1

>  <s_lp_Force_Field>  (130) 
OPLS3e

>  <r_lp_Energy>  (130) 
26.638

>  <b_lp_Chiralities_Consistent>  (130) 
1

>  <s_lp_Variant>  (130) 
40:0-2

>  <s_i_glide_gridfile>  (130) 
pfpi4k_grid

>  <i_i_glide_lignum>  (130) 
19

>  <i_i_glide_rotatable_bonds>  (130) 
5

>  <r_i_docking_score>  (130) 
-2.2605

>  <r_i_glide_ligand_efficiency>  (130) 
-0.113025

>  <r_i_glide_ligand_efficiency_sa>  (130) 
-0.306798

>  <r_i_glide_ligand_efficiency_ln>  (130) 
-0.56573

>  <r_i_glide_gscore>  (130) 
-2.2605

>  <r_i_glide_lipo>  (130) 
-0.323761

>  <r_i_glide_hbond>  (130) 
0

>  <r_i_glide_metal>  (130) 
-0

>  <r_i_glide_rewards>  (130) 
-1.50352

>  <r_i_glide_evdw>  (130) 
-17.5152

>  <r_i_glide_ecoul>  (130) 
-2.85851

>  <r_i_glide_erotb>  (130) 
0.924008

>  <r_i_glide_esite>  (130) 
-0.0526969

>  <r_i_glide_emodel>  (130) 
-19.727

>  <r_i_glide_energy>  (130) 
-20.3737

>  <r_i_glide_einternal>  (130) 
6.62777

>  <r_i_glide_intrahb_reward>  (130) 
-0

>  <i_i_glide_confnum>  (130) 
2

>  <i_i_glide_posenum>  (130) 
25

>  <r_i_glide_eff_state_penalty>  (130) 
0

>  <ligand_id>  (130) 
40

>  <original_smiles>  (130) 
CN(C)CCCNC1C2(C)CC3CC(C)(C2)CC1(C)C3

>  <smiles>  (130) 
[H]C([H])([H])N(C([H])([H])[H])C([H])([H])C([H])([H])C([H])([H])[N+]([H])([H])C1([H])C2(C([H])([H])[H])C([H])([H])C3([H])C([H])([H])C(C([H])([H])[H])(C2([H])[H])C([H])([H])C1(C([H])([H])[H])C3([H])[H]

$$$$
41:0:0
     RDKit          3D

 25 27  0  0  1  0  0  0  0  0999 V2000
    5.8944   -6.5855    2.1013 C   0  0  0  0  0  0  0  0  0  0  0  0
    6.8700   -5.6392    1.4880 C   0  0  0  0  0  0  0  0  0  0  0  0
    8.1611   -5.7112    1.9410 O   0  0  0  0  0  0  0  0  0  0  0  0
    8.9585   -4.7616    1.2652 N   0  0  0  0  0  0  0  0  0  0  0  0
    8.1291   -4.1532    0.4430 C   0  0  0  0  0  0  0  0  0  0  0  0
    8.4297   -3.1206   -0.4612 N   0  0  0  0  0  0  0  0  0  0  0  0
    7.4922   -2.6701   -1.1742 N   0  0  0  0  0  0  0  0  0  0  0  0
    6.1243   -3.1440   -1.1495 N   0  0  0  0  0  0  0  0  0  0  0  0
    5.2028   -2.5318   -2.0243 C   0  0  0  0  0  0  0  0  0  0  0  0
    4.5668   -3.2762   -3.0407 C   0  0  0  0  0  0  0  0  0  0  0  0
    3.6827   -2.6333   -3.9332 C   0  0  0  0  0  0  0  0  0  0  0  0
    3.4680   -1.2417   -3.8313 C   0  0  0  0  0  0  0  0  0  0  0  0
    2.6495   -0.6022   -4.7021 F   0  0  0  0  0  0  0  0  0  0  0  0
    4.1171   -0.5024   -2.8272 C   0  0  0  0  0  0  0  0  0  0  0  0
    4.9769   -1.1460   -1.9229 C   0  0  0  0  0  0  0  0  0  0  0  0
    5.7316   -4.1370   -0.2997 C   0  0  0  0  0  0  0  0  0  0  0  0
    4.5944   -4.5890   -0.2030 O   0  0  0  0  0  0  0  0  0  0  0  0
    6.8337   -4.6585    0.5412 C   0  0  0  0  0  0  0  0  0  0  0  0
    4.8915   -6.4828    1.6938 H   0  0  0  0  0  0  0  0  0  0  0  0
    5.8471   -6.4184    3.1739 H   0  0  0  0  0  0  0  0  0  0  0  0
    6.2246   -7.6092    1.9459 H   0  0  0  0  0  0  0  0  0  0  0  0
    4.7663   -4.3295   -3.1471 H   0  0  0  0  0  0  0  0  0  0  0  0
    3.1979   -3.2035   -4.7103 H   0  0  0  0  0  0  0  0  0  0  0  0
    3.9512    0.5600   -2.7466 H   0  0  0  0  0  0  0  0  0  0  0  0
    5.4673   -0.5723   -1.1524 H   0  0  0  0  0  0  0  0  0  0  0  0
  1  2  1  0
  1 19  1  0
  1 20  1  0
  1 21  1  0
  2 18  2  0
  2  3  1  0
  3  4  1  0
  4  5  2  0
  5 18  1  0
  5  6  1  0
  6  7  2  0
  7  8  1  0
  8  9  1  0
  8 16  1  0
  9 15  1  0
  9 10  2  0
 10 11  1  0
 10 22  1  0
 11 12  2  0
 11 23  1  0
 12 13  1  0
 12 14  1  0
 14 15  2  0
 14 24  1  0
 15 25  1  0
 16 17  2  0
 16 18  1  0
M  END
>  <i_m_ct_stereo_status>  (131) 
1

>  <s_m_source_file>  (131) 
/var/tmp/pbs.5076255.sched01/tmp7c02qu8j/38qwqhi24o.sdf

>  <i_m_source_file_index>  (131) 
20

>  <i_lp_mmshare_version>  (131) 
48012

>  <i_f3d_flags>  (131) 
0

>  <s_epik_input>  (131) 
bjFvYyhbQ0gzXSljKGMxMiljKD1PKW4obm4yKS1jM1tjSF1bY0hdYyhGKVtjSF1bY0hdMw==

>  <s_epik_cmdline>  (131) 
J2VwaWtfcHl0aG9uJywgJy1waHQnLCAnMi4wJywgJy1waCcsICc3LjAnLCAnLXRuJywgJzgnLCAnLW1hJywgJzIwMCcsICctaW1hZScsICc8aW5maWxlLm1hZT4nLCAnLW9tYWUnLCAnPG91dGZpbGUubWFlPic=

>  <r_lp_tautomer_probability>  (131) 
1

>  <r_epik_Ionization_Penalty>  (131) 
2.38082e-11

>  <r_epik_Ionization_Penalty_Charging>  (131) 
7.94612e-14

>  <r_epik_Ionization_Penalty_Neutral>  (131) 
2.37288e-11

>  <r_epik_State_Penalty>  (131) 
-0

>  <r_epik_Charging_Adjusted_Penalty>  (131) 
7.94612e-14

>  <i_epik_Tot_Q>  (131) 
0

>  <i_epik_Tot_abs_Q>  (131) 
0

>  <s_lp_Force_Field>  (131) 
OPLS3e

>  <r_lp_Energy>  (131) 
28.1605

>  <b_lp_Chiralities_Consistent>  (131) 
1

>  <s_lp_Variant>  (131) 
41:0-1

>  <s_i_glide_gridfile>  (131) 
pfpi4k_grid

>  <i_i_glide_lignum>  (131) 
20

>  <i_i_glide_rotatable_bonds>  (131) 
1

>  <r_i_docking_score>  (131) 
-4.15248

>  <r_i_glide_ligand_efficiency>  (131) 
-0.230693

>  <r_i_glide_ligand_efficiency_sa>  (131) 
-0.604588

>  <r_i_glide_ligand_efficiency_ln>  (131) 
-1.06737

>  <r_i_glide_gscore>  (131) 
-4.15248

>  <r_i_glide_lipo>  (131) 
-0.868013

>  <r_i_glide_hbond>  (131) 
0

>  <r_i_glide_metal>  (131) 
-0

>  <r_i_glide_rewards>  (131) 
-2.24691

>  <r_i_glide_evdw>  (131) 
-28.0569

>  <r_i_glide_ecoul>  (131) 
1.14265

>  <r_i_glide_erotb>  (131) 
0.287448

>  <r_i_glide_esite>  (131) 
-0.0935637

>  <r_i_glide_emodel>  (131) 
-33.7394

>  <r_i_glide_energy>  (131) 
-26.9143

>  <r_i_glide_einternal>  (131) 
0.0810259

>  <r_i_glide_intrahb_reward>  (131) 
-0

>  <i_i_glide_confnum>  (131) 
2

>  <i_i_glide_posenum>  (131) 
18

>  <r_i_glide_eff_state_penalty>  (131) 
0

>  <ligand_id>  (131) 
41

>  <original_smiles>  (131) 
Cc1onc2nnn(-c3ccc(F)cc3)c(=O)c12

>  <smiles>  (131) 
[H]c1c([H])c(-n2nnc3noc(C([H])([H])[H])c3c2=O)c([H])c([H])c1F

$$$$
41:0:1
     RDKit          3D

 25 27  0  0  1  0  0  0  0  0999 V2000
    1.0358  -11.3765    3.2951 C   0  0  0  0  0  0  0  0  0  0  0  0
    0.5425  -10.0318    2.8952 C   0  0  0  0  0  0  0  0  0  0  0  0
   -0.8156   -9.8442    2.8810 O   0  0  0  0  0  0  0  0  0  0  0  0
   -1.1442   -8.5227    2.4991 N   0  0  0  0  0  0  0  0  0  0  0  0
    0.0289   -7.9701    2.2722 C   0  0  0  0  0  0  0  0  0  0  0  0
    0.2798   -6.6560    1.8286 N   0  0  0  0  0  0  0  0  0  0  0  0
    1.4835   -6.3115    1.6683 N   0  0  0  0  0  0  0  0  0  0  0  0
    2.6604   -7.1378    1.8970 N   0  0  0  0  0  0  0  0  0  0  0  0
    3.9465   -6.5783    1.6643 C   0  0  0  0  0  0  0  0  0  0  0  0
    4.9487   -6.5963    2.6641 C   0  0  0  0  0  0  0  0  0  0  0  0
    6.1995   -5.9861    2.4212 C   0  0  0  0  0  0  0  0  0  0  0  0
    6.4380   -5.3362    1.1893 C   0  0  0  0  0  0  0  0  0  0  0  0
    7.6484   -4.7643    0.9447 F   0  0  0  0  0  0  0  0  0  0  0  0
    5.4213   -5.2824    0.2063 C   0  0  0  0  0  0  0  0  0  0  0  0
    4.1756   -5.9003    0.4474 C   0  0  0  0  0  0  0  0  0  0  0  0
    2.5062   -8.4346    2.3095 C   0  0  0  0  0  0  0  0  0  0  0  0
    3.4110   -9.2324    2.5071 O   0  0  0  0  0  0  0  0  0  0  0  0
    1.0948   -8.8376    2.5078 C   0  0  0  0  0  0  0  0  0  0  0  0
    2.1198  -11.4499    3.2699 H   0  0  0  0  0  0  0  0  0  0  0  0
    0.6239  -12.1261    2.6253 H   0  0  0  0  0  0  0  0  0  0  0  0
    0.6895  -11.6016    4.3003 H   0  0  0  0  0  0  0  0  0  0  0  0
    4.7506   -7.0691    3.6128 H   0  0  0  0  0  0  0  0  0  0  0  0
    6.9604   -6.0276    3.1858 H   0  0  0  0  0  0  0  0  0  0  0  0
    5.5873   -4.7868   -0.7418 H   0  0  0  0  0  0  0  0  0  0  0  0
    3.4009   -5.8554   -0.3092 H   0  0  0  0  0  0  0  0  0  0  0  0
  1  2  1  0
  1 19  1  0
  1 20  1  0
  1 21  1  0
  2 18  2  0
  2  3  1  0
  3  4  1  0
  4  5  2  0
  5 18  1  0
  5  6  1  0
  6  7  2  0
  7  8  1  0
  8  9  1  0
  8 16  1  0
  9 15  1  0
  9 10  2  0
 10 11  1  0
 10 22  1  0
 11 12  2  0
 11 23  1  0
 12 13  1  0
 12 14  1  0
 14 15  2  0
 14 24  1  0
 15 25  1  0
 16 17  2  0
 16 18  1  0
M  END
>  <i_m_ct_stereo_status>  (132) 
1

>  <s_m_source_file>  (132) 
/var/tmp/pbs.5076255.sched01/tmp7c02qu8j/38qwqhi24o.sdf

>  <i_m_source_file_index>  (132) 
20

>  <i_lp_mmshare_version>  (132) 
48012

>  <i_f3d_flags>  (132) 
0

>  <s_epik_input>  (132) 
bjFvYyhbQ0gzXSljKGMxMiljKD1PKW4obm4yKS1jM1tjSF1bY0hdYyhGKVtjSF1bY0hdMw==

>  <s_epik_cmdline>  (132) 
J2VwaWtfcHl0aG9uJywgJy1waHQnLCAnMi4wJywgJy1waCcsICc3LjAnLCAnLXRuJywgJzgnLCAnLW1hJywgJzIwMCcsICctaW1hZScsICc8aW5maWxlLm1hZT4nLCAnLW9tYWUnLCAnPG91dGZpbGUubWFlPic=

>  <r_lp_tautomer_probability>  (132) 
1

>  <r_epik_Ionization_Penalty>  (132) 
2.38082e-11

>  <r_epik_Ionization_Penalty_Charging>  (132) 
7.94612e-14

>  <r_epik_Ionization_Penalty_Neutral>  (132) 
2.37288e-11

>  <r_epik_State_Penalty>  (132) 
-0

>  <r_epik_Charging_Adjusted_Penalty>  (132) 
7.94612e-14

>  <i_epik_Tot_Q>  (132) 
0

>  <i_epik_Tot_abs_Q>  (132) 
0

>  <s_lp_Force_Field>  (132) 
OPLS3e

>  <r_lp_Energy>  (132) 
28.1605

>  <b_lp_Chiralities_Consistent>  (132) 
1

>  <s_lp_Variant>  (132) 
41:0-1

>  <s_i_glide_gridfile>  (132) 
pfpi4k_grid

>  <i_i_glide_lignum>  (132) 
20

>  <i_i_glide_rotatable_bonds>  (132) 
1

>  <r_i_docking_score>  (132) 
-3.7643

>  <r_i_glide_ligand_efficiency>  (132) 
-0.209128

>  <r_i_glide_ligand_efficiency_sa>  (132) 
-0.548069

>  <r_i_glide_ligand_efficiency_ln>  (132) 
-0.967593

>  <r_i_glide_gscore>  (132) 
-3.7643

>  <r_i_glide_lipo>  (132) 
-0.62482

>  <r_i_glide_hbond>  (132) 
0

>  <r_i_glide_metal>  (132) 
-0

>  <r_i_glide_rewards>  (132) 
-1.91058

>  <r_i_glide_evdw>  (132) 
-23.6716

>  <r_i_glide_ecoul>  (132) 
-0.582415

>  <r_i_glide_erotb>  (132) 
0.287448

>  <r_i_glide_esite>  (132) 
-0.245406

>  <r_i_glide_emodel>  (132) 
-30.4166

>  <r_i_glide_energy>  (132) 
-24.254

>  <r_i_glide_einternal>  (132) 
0.128842

>  <r_i_glide_intrahb_reward>  (132) 
-0

>  <i_i_glide_confnum>  (132) 
6

>  <i_i_glide_posenum>  (132) 
24

>  <r_i_glide_eff_state_penalty>  (132) 
0

>  <ligand_id>  (132) 
41

>  <original_smiles>  (132) 
Cc1onc2nnn(-c3ccc(F)cc3)c(=O)c12

>  <smiles>  (132) 
[H]c1c([H])c(-n2nnc3noc(C([H])([H])[H])c3c2=O)c([H])c([H])c1F

$$$$
41:0:2
     RDKit          3D

 25 27  0  0  1  0  0  0  0  0999 V2000
    4.5650   -2.1042    4.2224 C   0  0  0  0  0  0  0  0  0  0  0  0
    4.8901   -3.1733    3.2364 C   0  0  0  0  0  0  0  0  0  0  0  0
    5.4028   -4.3362    3.7473 O   0  0  0  0  0  0  0  0  0  0  0  0
    5.6606   -5.2477    2.7012 N   0  0  0  0  0  0  0  0  0  0  0  0
    5.2973   -4.6136    1.6053 C   0  0  0  0  0  0  0  0  0  0  0  0
    5.3493   -5.0865    0.2817 N   0  0  0  0  0  0  0  0  0  0  0  0
    4.9499   -4.3170   -0.6303 N   0  0  0  0  0  0  0  0  0  0  0  0
    4.4452   -2.9726   -0.4412 N   0  0  0  0  0  0  0  0  0  0  0  0
    4.0502   -2.2540   -1.5868 C   0  0  0  0  0  0  0  0  0  0  0  0
    4.5928   -0.9838   -1.8674 C   0  0  0  0  0  0  0  0  0  0  0  0
    4.2129   -0.2956   -3.0331 C   0  0  0  0  0  0  0  0  0  0  0  0
    3.3065   -0.8857   -3.9370 C   0  0  0  0  0  0  0  0  0  0  0  0
    2.9420   -0.2148   -5.0549 F   0  0  0  0  0  0  0  0  0  0  0  0
    2.7788   -2.1697   -3.6674 C   0  0  0  0  0  0  0  0  0  0  0  0
    3.1530   -2.8520   -2.4992 C   0  0  0  0  0  0  0  0  0  0  0  0
    4.3477   -2.4296    0.8082 C   0  0  0  0  0  0  0  0  0  0  0  0
    3.9249   -1.3062    1.0763 O   0  0  0  0  0  0  0  0  0  0  0  0
    4.8160   -3.3303    1.8867 C   0  0  0  0  0  0  0  0  0  0  0  0
    4.1661   -1.2068    3.7538 H   0  0  0  0  0  0  0  0  0  0  0  0
    5.4569   -1.8315    4.7817 H   0  0  0  0  0  0  0  0  0  0  0  0
    3.8345   -2.4731    4.9392 H   0  0  0  0  0  0  0  0  0  0  0  0
    5.2955   -0.5313   -1.1856 H   0  0  0  0  0  0  0  0  0  0  0  0
    4.6011    0.6973   -3.2143 H   0  0  0  0  0  0  0  0  0  0  0  0
    2.0646   -2.6383   -4.3327 H   0  0  0  0  0  0  0  0  0  0  0  0
    2.7509   -3.8336   -2.2946 H   0  0  0  0  0  0  0  0  0  0  0  0
  1  2  1  0
  1 19  1  0
  1 20  1  0
  1 21  1  0
  2 18  2  0
  2  3  1  0
  3  4  1  0
  4  5  2  0
  5 18  1  0
  5  6  1  0
  6  7  2  0
  7  8  1  0
  8  9  1  0
  8 16  1  0
  9 15  1  0
  9 10  2  0
 10 11  1  0
 10 22  1  0
 11 12  2  0
 11 23  1  0
 12 13  1  0
 12 14  1  0
 14 15  2  0
 14 24  1  0
 15 25  1  0
 16 17  2  0
 16 18  1  0
M  END
>  <i_m_ct_stereo_status>  (133) 
1

>  <s_m_source_file>  (133) 
/var/tmp/pbs.5076255.sched01/tmp7c02qu8j/38qwqhi24o.sdf

>  <i_m_source_file_index>  (133) 
20

>  <i_lp_mmshare_version>  (133) 
48012

>  <i_f3d_flags>  (133) 
0

>  <s_epik_input>  (133) 
bjFvYyhbQ0gzXSljKGMxMiljKD1PKW4obm4yKS1jM1tjSF1bY0hdYyhGKVtjSF1bY0hdMw==

>  <s_epik_cmdline>  (133) 
J2VwaWtfcHl0aG9uJywgJy1waHQnLCAnMi4wJywgJy1waCcsICc3LjAnLCAnLXRuJywgJzgnLCAnLW1hJywgJzIwMCcsICctaW1hZScsICc8aW5maWxlLm1hZT4nLCAnLW9tYWUnLCAnPG91dGZpbGUubWFlPic=

>  <r_lp_tautomer_probability>  (133) 
1

>  <r_epik_Ionization_Penalty>  (133) 
2.38082e-11

>  <r_epik_Ionization_Penalty_Charging>  (133) 
7.94612e-14

>  <r_epik_Ionization_Penalty_Neutral>  (133) 
2.37288e-11

>  <r_epik_State_Penalty>  (133) 
-0

>  <r_epik_Charging_Adjusted_Penalty>  (133) 
7.94612e-14

>  <i_epik_Tot_Q>  (133) 
0

>  <i_epik_Tot_abs_Q>  (133) 
0

>  <s_lp_Force_Field>  (133) 
OPLS3e

>  <r_lp_Energy>  (133) 
28.1605

>  <b_lp_Chiralities_Consistent>  (133) 
1

>  <s_lp_Variant>  (133) 
41:0-1

>  <s_i_glide_gridfile>  (133) 
pfpi4k_grid

>  <i_i_glide_lignum>  (133) 
20

>  <i_i_glide_rotatable_bonds>  (133) 
1

>  <r_i_docking_score>  (133) 
-3.60787

>  <r_i_glide_ligand_efficiency>  (133) 
-0.200437

>  <r_i_glide_ligand_efficiency_sa>  (133) 
-0.525294

>  <r_i_glide_ligand_efficiency_ln>  (133) 
-0.927383

>  <r_i_glide_gscore>  (133) 
-3.60787

>  <r_i_glide_lipo>  (133) 
-0.71071

>  <r_i_glide_hbond>  (133) 
0

>  <r_i_glide_metal>  (133) 
-0

>  <r_i_glide_rewards>  (133) 
-1.94508

>  <r_i_glide_evdw>  (133) 
-22.1963

>  <r_i_glide_ecoul>  (133) 
-0.864708

>  <r_i_glide_erotb>  (133) 
0.287448

>  <r_i_glide_esite>  (133) 
0

>  <r_i_glide_emodel>  (133) 
-28.9905

>  <r_i_glide_energy>  (133) 
-23.061

>  <r_i_glide_einternal>  (133) 
0.102283

>  <r_i_glide_intrahb_reward>  (133) 
-0

>  <i_i_glide_confnum>  (133) 
4

>  <i_i_glide_posenum>  (133) 
13

>  <r_i_glide_eff_state_penalty>  (133) 
0

>  <ligand_id>  (133) 
41

>  <original_smiles>  (133) 
Cc1onc2nnn(-c3ccc(F)cc3)c(=O)c12

>  <smiles>  (133) 
[H]c1c([H])c(-n2nnc3noc(C([H])([H])[H])c3c2=O)c([H])c([H])c1F

$$$$
42:0:0
     RDKit          3D

 76 81  0  0  1  0  0  0  0  0999 V2000
   -0.1716   -3.5763    6.1595 C   0  0  0  0  0  0  0  0  0  0  0  0
    1.2780   -3.5858    5.6195 C   0  0  0  0  0  0  0  0  0  0  0  0
    1.2868   -2.8545    4.2628 C   0  0  0  0  0  0  0  0  0  0  0  0
    2.1491   -2.7352    6.5642 C   0  0  0  0  0  0  0  0  0  0  0  0
    1.6714   -1.9498    7.3828 O   0  0  0  0  0  0  0  0  0  0  0  0
    3.6518   -2.9000    6.4195 C   0  0  0  0  0  0  0  0  0  0  0  0
    3.9954   -4.3665    6.6627 C   0  0  0  0  0  0  0  0  0  0  0  0
    3.3427   -5.3649    5.6565 C   0  0  1  0  0  0  0  0  0  0  0  0
    3.5438   -6.7510    6.3443 C   0  0  0  0  0  0  0  0  0  0  0  0
    1.7943   -5.0842    5.5805 C   0  0  2  0  0  0  0  0  0  0  0  0
    1.1120   -5.9716    4.5052 C   0  0  0  0  0  0  0  0  0  0  0  0
    1.7858   -5.9524    3.1262 C   0  0  0  0  0  0  0  0  0  0  0  0
    1.0866   -5.8507    2.1133 O   0  0  0  0  0  0  0  0  0  0  0  0
    3.3162   -6.1575    3.0780 C   0  0  2  0  0  0  0  0  0  0  0  0
    3.5290   -7.4928    3.5129 O   0  0  0  0  0  0  0  0  0  0  0  0
    4.0057   -5.3073    4.2109 C   0  0  2  0  0  0  0  0  0  0  0  0
    5.5275   -5.6122    4.2132 C   0  0  0  0  0  0  0  0  0  0  0  0
    6.2240   -5.2930    2.8884 C   0  0  1  0  0  0  0  0  0  0  0  0
    7.5257   -5.8556    2.9215 O   0  0  0  0  0  0  0  0  0  0  0  0
    5.5164   -5.6998    1.5809 C   0  0  2  0  0  0  0  0  0  0  0  0
    5.7724   -4.6917    0.4147 C   0  0  2  0  0  0  0  0  0  0  0  0
    6.1324   -3.3334    0.7500 O   0  0  0  0  0  0  0  0  0  0  0  0
    5.2292   -2.2337    0.9966 C   0  0  0  0  0  0  0  0  0  0  0  0
    5.2898   -1.8977    2.4944 C   0  0  0  0  0  0  0  0  0  0  0  0
    5.9569   -1.0791    0.2789 C   0  0  0  0  0  0  0  0  0  0  0  0
    3.7515   -2.3848    0.4863 C   0  0  1  0  0  0  0  0  0  0  0  0
    3.0159   -1.2355    0.8616 O   0  0  0  0  0  0  0  0  0  0  0  0
    3.6566   -2.4648   -1.0408 C   0  0  0  0  0  0  0  0  0  0  0  0
    4.3825   -3.7057   -1.5542 C   0  0  0  0  0  0  0  0  0  0  0  0
    4.5531   -4.8025   -0.4764 C   0  0  2  0  0  0  0  0  0  0  0  0
    3.4225   -4.9869    0.5545 C   0  0  2  0  0  0  0  0  0  0  0  0
    2.9887   -3.5965    1.0761 C   0  0  0  0  0  0  0  0  0  0  0  0
    3.9873   -6.0311    1.6041 C   0  0  2  0  0  0  0  0  0  0  0  0
    3.8318   -7.4249    0.9045 C   0  0  0  0  0  0  0  0  0  0  0  0
   -0.8406   -4.1087    5.4964 H   0  0  0  0  0  0  0  0  0  0  0  0
   -0.5629   -2.5632    6.2573 H   0  0  0  0  0  0  0  0  0  0  0  0
   -0.2417   -4.0509    7.1401 H   0  0  0  0  0  0  0  0  0  0  0  0
    0.7659   -3.4002    3.4786 H   0  0  0  0  0  0  0  0  0  0  0  0
    2.3002   -2.6417    3.9300 H   0  0  0  0  0  0  0  0  0  0  0  0
    0.7885   -1.8881    4.3483 H   0  0  0  0  0  0  0  0  0  0  0  0
    3.9777   -2.5684    5.4353 H   0  0  0  0  0  0  0  0  0  0  0  0
    4.1442   -2.2697    7.1553 H   0  0  0  0  0  0  0  0  0  0  0  0
    5.0767   -4.4856    6.7298 H   0  0  0  0  0  0  0  0  0  0  0  0
    3.6450   -4.5996    7.6722 H   0  0  0  0  0  0  0  0  0  0  0  0
    2.9748   -7.5548    5.8778 H   0  0  0  0  0  0  0  0  0  0  0  0
    3.2067   -6.7363    7.3841 H   0  0  0  0  0  0  0  0  0  0  0  0
    4.5927   -7.0536    6.3678 H   0  0  0  0  0  0  0  0  0  0  0  0
    1.4174   -5.4927    6.5197 H   0  0  0  0  0  0  0  0  0  0  0  0
    1.1060   -7.0091    4.8373 H   0  0  0  0  0  0  0  0  0  0  0  0
    0.0693   -5.6932    4.3820 H   0  0  0  0  0  0  0  0  0  0  0  0
    4.4543   -7.6672    3.5017 H   0  0  0  0  0  0  0  0  0  0  0  0
    3.9074   -4.2737    3.9280 H   0  0  0  0  0  0  0  0  0  0  0  0
    6.0430   -4.9999    4.9508 H   0  0  0  0  0  0  0  0  0  0  0  0
    5.7298   -6.6478    4.4916 H   0  0  0  0  0  0  0  0  0  0  0  0
    6.3491   -4.2223    2.8842 H   0  0  0  0  0  0  0  0  0  0  0  0
    7.4604   -6.8011    2.9330 H   0  0  0  0  0  0  0  0  0  0  0  0
    6.0074   -6.6216    1.2639 H   0  0  0  0  0  0  0  0  0  0  0  0
    6.6346   -5.0560   -0.1462 H   0  0  0  0  0  0  0  0  0  0  0  0
    4.8155   -0.9462    2.7198 H   0  0  0  0  0  0  0  0  0  0  0  0
    6.3205   -1.8249    2.8206 H   0  0  0  0  0  0  0  0  0  0  0  0
    4.8133   -2.6461    3.1061 H   0  0  0  0  0  0  0  0  0  0  0  0
    5.4062   -0.1437    0.3578 H   0  0  0  0  0  0  0  0  0  0  0  0
    6.1157   -1.2939   -0.7761 H   0  0  0  0  0  0  0  0  0  0  0  0
    6.9433   -0.9141    0.7126 H   0  0  0  0  0  0  0  0  0  0  0  0
    2.2650   -1.1446    0.2757 H   0  0  0  0  0  0  0  0  0  0  0  0
    2.6056   -2.5371   -1.3289 H   0  0  0  0  0  0  0  0  0  0  0  0
    4.0307   -1.5681   -1.5363 H   0  0  0  0  0  0  0  0  0  0  0  0
    3.8056   -4.0991   -2.3922 H   0  0  0  0  0  0  0  0  0  0  0  0
    5.3599   -3.4467   -1.9737 H   0  0  0  0  0  0  0  0  0  0  0  0
    4.6832   -5.7131   -1.0511 H   0  0  0  0  0  0  0  0  0  0  0  0
    2.5736   -5.4245    0.0297 H   0  0  0  0  0  0  0  0  0  0  0  0
    3.0184   -3.5484    2.1515 H   0  0  0  0  0  0  0  0  0  0  0  0
    1.9364   -3.4917    0.8125 H   0  0  0  0  0  0  0  0  0  0  0  0
    4.2063   -7.4574   -0.1140 H   0  0  0  0  0  0  0  0  0  0  0  0
    2.7922   -7.7426    0.8918 H   0  0  0  0  0  0  0  0  0  0  0  0
    4.4013   -8.2155    1.3934 H   0  0  0  0  0  0  0  0  0  0  0  0
  1  2  1  0
  1 35  1  0
  1 36  1  0
  1 37  1  0
  2 10  1  0
  2  3  1  0
  2  4  1  0
  3 38  1  0
  3 39  1  0
  3 40  1  0
  4  5  2  0
  4  6  1  0
  6  7  1  0
  6 41  1  0
  6 42  1  0
  7  8  1  0
  7 43  1  0
  7 44  1  0
  8 16  1  0
  8  9  1  1
  8 10  1  0
  9 45  1  0
  9 46  1  0
  9 47  1  0
 10 11  1  0
 10 48  1  1
 11 12  1  0
 11 49  1  0
 11 50  1  0
 12 13  2  0
 12 14  1  0
 14 33  1  0
 14 15  1  1
 14 16  1  0
 15 51  1  0
 16 17  1  0
 16 52  1  6
 17 18  1  0
 17 53  1  0
 17 54  1  0
 18 19  1  0
 18 20  1  0
 18 55  1  6
 19 56  1  0
 20 33  1  0
 20 21  1  0
 20 57  1  6
 21 30  1  0
 21 22  1  0
 21 58  1  6
 22 23  1  0
 23 24  1  0
 23 25  1  0
 23 26  1  0
 24 59  1  0
 24 60  1  0
 24 61  1  0
 25 62  1  0
 25 63  1  0
 25 64  1  0
 26 32  1  0
 26 27  1  1
 26 28  1  0
 27 65  1  0
 28 29  1  0
 28 66  1  0
 28 67  1  0
 29 30  1  0
 29 68  1  0
 29 69  1  0
 30 31  1  0
 30 70  1  6
 31 32  1  0
 31 33  1  0
 31 71  1  6
 32 72  1  0
 32 73  1  0
 33 34  1  6
 34 74  1  0
 34 75  1  0
 34 76  1  0
M  END
>  <i_m_ct_stereo_status>  (134) 
1

>  <s_m_source_file>  (134) 
/var/tmp/pbs.5076255.sched01/tmp7c02qu8j/38qwqhi24o.sdf

>  <i_m_source_file_index>  (134) 
21

>  <i_lp_mmshare_version>  (134) 
48012

>  <i_f3d_flags>  (134) 
0

>  <s_epik_input>  (134) 
W0NIMl0xW0NIMl1DKD1PKUMoW0NIM10pKFtDSDNdKVtDQEhdKFtDQF0xMltDSDNdKVtDSDJdQyg9TylbQ0BdMyhbT0hdKVtDQEBIXTJbQ0gyXVtDQEBIXShbT0hdKVtDQEBIXTRbQ0BIXTVbQ0BIXTZbQ0BASF0oW0NAXTM0W0NIM10pW0NIMl1bQ0BAXShbT0hdKShDKE81KShbQ0gzXSlbQ0gzXSlbQ0gyXVtDSDJdNg==

>  <s_epik_cmdline>  (134) 
J2VwaWtfcHl0aG9uJywgJy1waHQnLCAnMi4wJywgJy1waCcsICc3LjAnLCAnLXRuJywgJzgnLCAnLW1hJywgJzIwMCcsICctaW1hZScsICc8aW5maWxlLm1hZT4nLCAnLW9tYWUnLCAnPG91dGZpbGUubWFlPic=

>  <r_lp_tautomer_probability>  (134) 
1

>  <r_epik_Ionization_Penalty>  (134) 
6.08451e-07

>  <r_epik_Ionization_Penalty_Charging>  (134) 
0

>  <r_epik_Ionization_Penalty_Neutral>  (134) 
6.08451e-07

>  <r_epik_State_Penalty>  (134) 
-0

>  <r_epik_Charging_Adjusted_Penalty>  (134) 
0

>  <i_epik_Tot_Q>  (134) 
0

>  <i_epik_Tot_abs_Q>  (134) 
0

>  <s_lp_Force_Field>  (134) 
OPLS3e

>  <r_lp_Energy>  (134) 
100.77

>  <b_lp_Chiralities_Consistent>  (134) 
1

>  <s_lp_Variant>  (134) 
42:0-1

>  <s_i_glide_gridfile>  (134) 
pfpi4k_grid

>  <i_i_glide_lignum>  (134) 
21

>  <i_i_glide_rotatable_bonds>  (134) 
3

>  <r_i_docking_score>  (134) 
-2.88666

>  <r_i_glide_ligand_efficiency>  (134) 
-0.0849019

>  <r_i_glide_ligand_efficiency_sa>  (134) 
-0.275049

>  <r_i_glide_ligand_efficiency_ln>  (134) 
-0.637745

>  <r_i_glide_gscore>  (134) 
-2.88666

>  <r_i_glide_lipo>  (134) 
-0.534712

>  <r_i_glide_hbond>  (134) 
-0.232252

>  <r_i_glide_metal>  (134) 
-0

>  <r_i_glide_rewards>  (134) 
-0.172981

>  <r_i_glide_evdw>  (134) 
-23.5327

>  <r_i_glide_ecoul>  (134) 
-5.04691

>  <r_i_glide_erotb>  (134) 
0

>  <r_i_glide_esite>  (134) 
-0.0130496

>  <r_i_glide_emodel>  (134) 
-33.0943

>  <r_i_glide_energy>  (134) 
-28.5796

>  <r_i_glide_einternal>  (134) 
0.406946

>  <r_i_glide_intrahb_reward>  (134) 
-0

>  <i_i_glide_confnum>  (134) 
1

>  <i_i_glide_posenum>  (134) 
26

>  <r_i_glide_eff_state_penalty>  (134) 
0

>  <ligand_id>  (134) 
42

>  <original_smiles>  (134) 
CC1(C)C(=O)CCC2(C)C1CC(=O)C1(O)C2CC(O)C2C3OC(C)(C)C4(O)CCC3C(C4)C21C

>  <smiles>  (134) 
[H]OC1([H])C([H])([H])C2([H])C(O[H])(C(=O)C([H])([H])C3([H])C(C([H])([H])[H])(C([H])([H])[H])C(=O)C([H])([H])C([H])([H])C23C([H])([H])[H])C2(C([H])([H])[H])C1([H])C1([H])OC(C([H])([H])[H])(C([H])([H])[H])C3(O[H])C([H])([H])C([H])([H])C1([H])C2([H])C3([H])[H]

$$$$
42:0:1
     RDKit          3D

 76 81  0  0  1  0  0  0  0  0999 V2000
    3.0518   -1.1170   -2.5878 C   0  0  0  0  0  0  0  0  0  0  0  0
    3.7509   -2.2156   -1.7384 C   0  0  0  0  0  0  0  0  0  0  0  0
    2.7286   -3.2813   -1.2771 C   0  0  0  0  0  0  0  0  0  0  0  0
    4.6479   -2.9489   -2.7179 C   0  0  0  0  0  0  0  0  0  0  0  0
    4.4926   -2.9052   -3.9361 O   0  0  0  0  0  0  0  0  0  0  0  0
    5.7300   -3.7973   -2.1399 C   0  0  0  0  0  0  0  0  0  0  0  0
    6.6341   -2.9717   -1.2442 C   0  0  0  0  0  0  0  0  0  0  0  0
    5.9003   -2.3335   -0.0358 C   0  0  1  0  0  0  0  0  0  0  0  0
    6.9085   -1.2874    0.4997 C   0  0  0  0  0  0  0  0  0  0  0  0
    4.6278   -1.5702   -0.5810 C   0  0  2  0  0  0  0  0  0  0  0  0
    3.7870   -0.9897    0.5789 C   0  0  0  0  0  0  0  0  0  0  0  0
    3.4735   -1.9767    1.7123 C   0  0  0  0  0  0  0  0  0  0  0  0
    2.3403   -1.9866    2.2021 O   0  0  0  0  0  0  0  0  0  0  0  0
    4.6374   -2.8449    2.2684 C   0  0  2  0  0  0  0  0  0  0  0  0
    5.4854   -1.9134    2.9157 O   0  0  0  0  0  0  0  0  0  0  0  0
    5.5055   -3.4095    1.0736 C   0  0  2  0  0  0  0  0  0  0  0  0
    6.7081   -4.2130    1.5993 C   0  0  0  0  0  0  0  0  0  0  0  0
    6.3615   -5.3539    2.5482 C   0  0  1  0  0  0  0  0  0  0  0  0
    7.5182   -5.8171    3.2028 O   0  0  0  0  0  0  0  0  0  0  0  0
    5.2190   -5.1207    3.5728 C   0  0  2  0  0  0  0  0  0  0  0  0
    4.3549   -6.4016    3.8328 C   0  0  2  0  0  0  0  0  0  0  0  0
    4.3420   -7.4180    2.8176 O   0  0  0  0  0  0  0  0  0  0  0  0
    3.4693   -7.4680    1.6730 C   0  0  0  0  0  0  0  0  0  0  0  0
    4.3563   -7.1150    0.4707 C   0  0  0  0  0  0  0  0  0  0  0  0
    3.1927   -8.9894    1.5839 C   0  0  0  0  0  0  0  0  0  0  0  0
    2.1380   -6.6158    1.7635 C   0  0  1  0  0  0  0  0  0  0  0  0
    1.3426   -6.6825    0.6050 O   0  0  0  0  0  0  0  0  0  0  0  0
    1.1898   -7.1122    2.8561 C   0  0  0  0  0  0  0  0  0  0  0  0
    1.8214   -6.9258    4.2283 C   0  0  0  0  0  0  0  0  0  0  0  0
    2.9736   -5.8969    4.2307 C   0  0  2  0  0  0  0  0  0  0  0  0
    2.8346   -4.6616    3.3241 C   0  0  2  0  0  0  0  0  0  0  0  0
    2.3668   -5.1065    1.9303 C   0  0  0  0  0  0  0  0  0  0  0  0
    4.2209   -3.9154    3.4074 C   0  0  2  0  0  0  0  0  0  0  0  0
    4.1465   -3.1449    4.7852 C   0  0  0  0  0  0  0  0  0  0  0  0
    2.3169   -0.5701   -2.0325 H   0  0  0  0  0  0  0  0  0  0  0  0
    2.5061   -1.5441   -3.4328 H   0  0  0  0  0  0  0  0  0  0  0  0
    3.7746   -0.3692   -2.9590 H   0  0  0  0  0  0  0  0  0  0  0  0
    2.0823   -2.9197   -0.4798 H   0  0  0  0  0  0  0  0  0  0  0  0
    3.2080   -4.1953   -0.9291 H   0  0  0  0  0  0  0  0  0  0  0  0
    2.0787   -3.5953   -2.0981 H   0  0  0  0  0  0  0  0  0  0  0  0
    5.2908   -4.6454   -1.6057 H   0  0  0  0  0  0  0  0  0  0  0  0
    6.2921   -4.1753   -2.9958 H   0  0  0  0  0  0  0  0  0  0  0  0
    7.4880   -3.5762   -0.9586 H   0  0  0  0  0  0  0  0  0  0  0  0
    7.0630   -2.2063   -1.8825 H   0  0  0  0  0  0  0  0  0  0  0  0
    6.4812   -0.6146    1.2289 H   0  0  0  0  0  0  0  0  0  0  0  0
    7.2401   -0.6310   -0.3112 H   0  0  0  0  0  0  0  0  0  0  0  0
    7.7984   -1.7438    0.9166 H   0  0  0  0  0  0  0  0  0  0  0  0
    5.0504   -0.6959   -1.0799 H   0  0  0  0  0  0  0  0  0  0  0  0
    4.3290   -0.1538    1.0156 H   0  0  0  0  0  0  0  0  0  0  0  0
    2.8536   -0.5812    0.1927 H   0  0  0  0  0  0  0  0  0  0  0  0
    4.9978   -1.4984    3.6136 H   0  0  0  0  0  0  0  0  0  0  0  0
    4.8677   -4.1073    0.5614 H   0  0  0  0  0  0  0  0  0  0  0  0
    7.2618   -4.6482    0.7904 H   0  0  0  0  0  0  0  0  0  0  0  0
    7.4115   -3.4971    2.0756 H   0  0  0  0  0  0  0  0  0  0  0  0
    6.1230   -6.1917    1.9244 H   0  0  0  0  0  0  0  0  0  0  0  0
    7.9182   -5.1004    3.6737 H   0  0  0  0  0  0  0  0  0  0  0  0
    5.7128   -4.9335    4.5292 H   0  0  0  0  0  0  0  0  0  0  0  0
    4.7711   -6.9221    4.6946 H   0  0  0  0  0  0  0  0  0  0  0  0
    3.8696   -7.3176   -0.4612 H   0  0  0  0  0  0  0  0  0  0  0  0
    5.2857   -7.6894    0.4915 H   0  0  0  0  0  0  0  0  0  0  0  0
    4.6123   -6.0733    0.3945 H   0  0  0  0  0  0  0  0  0  0  0  0
    2.5154   -9.2561    0.7726 H   0  0  0  0  0  0  0  0  0  0  0  0
    2.7682   -9.3769    2.5091 H   0  0  0  0  0  0  0  0  0  0  0  0
    4.1145   -9.5537    1.4202 H   0  0  0  0  0  0  0  0  0  0  0  0
    1.2002   -7.6055    0.4404 H   0  0  0  0  0  0  0  0  0  0  0  0
    0.2708   -6.5299    2.8035 H   0  0  0  0  0  0  0  0  0  0  0  0
    0.8875   -8.1506    2.7018 H   0  0  0  0  0  0  0  0  0  0  0  0
    1.0330   -6.6178    4.9137 H   0  0  0  0  0  0  0  0  0  0  0  0
    2.1956   -7.8813    4.5905 H   0  0  0  0  0  0  0  0  0  0  0  0
    3.0365   -5.5890    5.2660 H   0  0  0  0  0  0  0  0  0  0  0  0
    2.0473   -4.0267    3.7347 H   0  0  0  0  0  0  0  0  0  0  0  0
    2.9755   -4.7302    1.1275 H   0  0  0  0  0  0  0  0  0  0  0  0
    1.4088   -4.6174    1.7994 H   0  0  0  0  0  0  0  0  0  0  0  0
    3.7790   -3.7334    5.6194 H   0  0  0  0  0  0  0  0  0  0  0  0
    3.4897   -2.2753    4.7248 H   0  0  0  0  0  0  0  0  0  0  0  0
    5.1232   -2.7988    5.1279 H   0  0  0  0  0  0  0  0  0  0  0  0
  1  2  1  0
  1 35  1  0
  1 36  1  0
  1 37  1  0
  2 10  1  0
  2  3  1  0
  2  4  1  0
  3 38  1  0
  3 39  1  0
  3 40  1  0
  4  5  2  0
  4  6  1  0
  6  7  1  0
  6 41  1  0
  6 42  1  0
  7  8  1  0
  7 43  1  0
  7 44  1  0
  8 16  1  0
  8  9  1  1
  8 10  1  0
  9 45  1  0
  9 46  1  0
  9 47  1  0
 10 11  1  0
 10 48  1  6
 11 12  1  0
 11 49  1  0
 11 50  1  0
 12 13  2  0
 12 14  1  0
 14 33  1  0
 14 15  1  1
 14 16  1  0
 15 51  1  0
 16 17  1  0
 16 52  1  6
 17 18  1  0
 17 53  1  0
 17 54  1  0
 18 19  1  0
 18 20  1  0
 18 55  1  6
 19 56  1  0
 20 33  1  0
 20 21  1  0
 20 57  1  1
 21 30  1  0
 21 22  1  0
 21 58  1  1
 22 23  1  0
 23 24  1  0
 23 25  1  0
 23 26  1  0
 24 59  1  0
 24 60  1  0
 24 61  1  0
 25 62  1  0
 25 63  1  0
 25 64  1  0
 26 32  1  0
 26 27  1  6
 26 28  1  0
 27 65  1  0
 28 29  1  0
 28 66  1  0
 28 67  1  0
 29 30  1  0
 29 68  1  0
 29 69  1  0
 30 31  1  0
 30 70  1  1
 31 32  1  0
 31 33  1  0
 31 71  1  1
 32 72  1  0
 32 73  1  0
 33 34  1  1
 34 74  1  0
 34 75  1  0
 34 76  1  0
M  END
>  <i_m_ct_stereo_status>  (135) 
1

>  <s_m_source_file>  (135) 
/var/tmp/pbs.5076255.sched01/tmp7c02qu8j/38qwqhi24o.sdf

>  <i_m_source_file_index>  (135) 
21

>  <i_lp_mmshare_version>  (135) 
48012

>  <i_f3d_flags>  (135) 
0

>  <s_epik_input>  (135) 
W0NIMl0xW0NIMl1DKD1PKUMoW0NIM10pKFtDSDNdKVtDQEhdKFtDQF0xMltDSDNdKVtDSDJdQyg9TylbQ0BdMyhbT0hdKVtDQEBIXTJbQ0gyXVtDQEBIXShbT0hdKVtDQEBIXTRbQ0BIXTVbQ0BIXTZbQ0BASF0oW0NAXTM0W0NIM10pW0NIMl1bQ0BAXShbT0hdKShDKE81KShbQ0gzXSlbQ0gzXSlbQ0gyXVtDSDJdNg==

>  <s_epik_cmdline>  (135) 
J2VwaWtfcHl0aG9uJywgJy1waHQnLCAnMi4wJywgJy1waCcsICc3LjAnLCAnLXRuJywgJzgnLCAnLW1hJywgJzIwMCcsICctaW1hZScsICc8aW5maWxlLm1hZT4nLCAnLW9tYWUnLCAnPG91dGZpbGUubWFlPic=

>  <r_lp_tautomer_probability>  (135) 
1

>  <r_epik_Ionization_Penalty>  (135) 
6.08451e-07

>  <r_epik_Ionization_Penalty_Charging>  (135) 
0

>  <r_epik_Ionization_Penalty_Neutral>  (135) 
6.08451e-07

>  <r_epik_State_Penalty>  (135) 
-0

>  <r_epik_Charging_Adjusted_Penalty>  (135) 
0

>  <i_epik_Tot_Q>  (135) 
0

>  <i_epik_Tot_abs_Q>  (135) 
0

>  <s_lp_Force_Field>  (135) 
OPLS3e

>  <r_lp_Energy>  (135) 
100.77

>  <b_lp_Chiralities_Consistent>  (135) 
1

>  <s_lp_Variant>  (135) 
42:0-1

>  <s_i_glide_gridfile>  (135) 
pfpi4k_grid

>  <i_i_glide_lignum>  (135) 
21

>  <i_i_glide_rotatable_bonds>  (135) 
3

>  <r_i_docking_score>  (135) 
-2.68141

>  <r_i_glide_ligand_efficiency>  (135) 
-0.078865

>  <r_i_glide_ligand_efficiency_sa>  (135) 
-0.255492

>  <r_i_glide_ligand_efficiency_ln>  (135) 
-0.592399

>  <r_i_glide_gscore>  (135) 
-2.68141

>  <r_i_glide_lipo>  (135) 
-0.562259

>  <r_i_glide_hbond>  (135) 
-0.101256

>  <r_i_glide_metal>  (135) 
-0

>  <r_i_glide_rewards>  (135) 
-0.30864

>  <r_i_glide_evdw>  (135) 
-23.382

>  <r_i_glide_ecoul>  (135) 
-3.52978

>  <r_i_glide_erotb>  (135) 
0

>  <r_i_glide_esite>  (135) 
-0.0106875

>  <r_i_glide_emodel>  (135) 
-29.1579

>  <r_i_glide_energy>  (135) 
-26.9118

>  <r_i_glide_einternal>  (135) 
1.8247

>  <r_i_glide_intrahb_reward>  (135) 
-0

>  <i_i_glide_confnum>  (135) 
2

>  <i_i_glide_posenum>  (135) 
31

>  <r_i_glide_eff_state_penalty>  (135) 
0

>  <ligand_id>  (135) 
42

>  <original_smiles>  (135) 
CC1(C)C(=O)CCC2(C)C1CC(=O)C1(O)C2CC(O)C2C3OC(C)(C)C4(O)CCC3C(C4)C21C

>  <smiles>  (135) 
[H]OC1([H])C([H])([H])C2([H])C(O[H])(C(=O)C([H])([H])C3([H])C(C([H])([H])[H])(C([H])([H])[H])C(=O)C([H])([H])C([H])([H])C23C([H])([H])[H])C2(C([H])([H])[H])C1([H])C1([H])OC(C([H])([H])[H])(C([H])([H])[H])C3(O[H])C([H])([H])C([H])([H])C1([H])C2([H])C3([H])[H]

$$$$
42:0:2
     RDKit          3D

 76 81  0  0  1  0  0  0  0  0999 V2000
    3.0781   -1.0562   -2.5629 C   0  0  0  0  0  0  0  0  0  0  0  0
    3.7798   -2.1558   -1.7217 C   0  0  0  0  0  0  0  0  0  0  0  0
    2.7466   -3.2046   -1.2617 C   0  0  0  0  0  0  0  0  0  0  0  0
    4.6823   -2.8981   -2.6998 C   0  0  0  0  0  0  0  0  0  0  0  0
    4.5550   -2.8196   -3.9238 O   0  0  0  0  0  0  0  0  0  0  0  0
    5.7399   -3.7817   -2.1053 C   0  0  0  0  0  0  0  0  0  0  0  0
    6.6363   -2.9406   -1.2170 C   0  0  0  0  0  0  0  0  0  0  0  0
    5.8888   -2.3063   -0.0095 C   0  0  1  0  0  0  0  0  0  0  0  0
    6.9049   -1.2694    0.5168 C   0  0  0  0  0  0  0  0  0  0  0  0
    4.6376   -1.5119   -0.5510 C   0  0  2  0  0  0  0  0  0  0  0  0
    3.7962   -0.9342    0.6161 C   0  0  0  0  0  0  0  0  0  0  0  0
    3.4772   -1.9330    1.7340 C   0  0  0  0  0  0  0  0  0  0  0  0
    2.3461   -1.9357    2.2345 O   0  0  0  0  0  0  0  0  0  0  0  0
    4.6296   -2.8093    2.2880 C   0  0  2  0  0  0  0  0  0  0  0  0
    5.4753   -1.8811    2.9463 O   0  0  0  0  0  0  0  0  0  0  0  0
    5.4821   -3.3671    1.0888 C   0  0  2  0  0  0  0  0  0  0  0  0
    6.6871   -4.1879    1.5881 C   0  0  0  0  0  0  0  0  0  0  0  0
    6.3384   -5.3416    2.5423 C   0  0  1  0  0  0  0  0  0  0  0  0
    7.5151   -5.8223    3.1730 O   0  0  0  0  0  0  0  0  0  0  0  0
    5.2057   -5.0974    3.5768 C   0  0  2  0  0  0  0  0  0  0  0  0
    4.3393   -6.3767    3.8200 C   0  0  2  0  0  0  0  0  0  0  0  0
    4.3294   -7.3743    2.7853 O   0  0  0  0  0  0  0  0  0  0  0  0
    3.4611   -7.4155    1.6438 C   0  0  0  0  0  0  0  0  0  0  0  0
    4.3471   -7.0414    0.4500 C   0  0  0  0  0  0  0  0  0  0  0  0
    3.1836   -8.9363    1.5403 C   0  0  0  0  0  0  0  0  0  0  0  0
    2.1361   -6.5639    1.7289 C   0  0  1  0  0  0  0  0  0  0  0  0
    1.3706   -6.6243    0.5196 O   0  0  0  0  0  0  0  0  0  0  0  0
    1.1797   -7.0681    2.8118 C   0  0  0  0  0  0  0  0  0  0  0  0
    1.8023   -6.9000    4.1900 C   0  0  0  0  0  0  0  0  0  0  0  0
    2.9582   -5.8744    4.2139 C   0  0  2  0  0  0  0  0  0  0  0  0
    2.8294   -4.6325    3.3196 C   0  0  2  0  0  0  0  0  0  0  0  0
    2.3727   -5.0629    1.9229 C   0  0  0  0  0  0  0  0  0  0  0  0
    4.2131   -3.8862    3.4168 C   0  0  2  0  0  0  0  0  0  0  0  0
    4.1366   -3.1295    4.8033 C   0  0  0  0  0  0  0  0  0  0  0  0
    2.3379   -0.5101   -2.0026 H   0  0  0  0  0  0  0  0  0  0  0  0
    2.5310   -1.4765   -3.4176 H   0  0  0  0  0  0  0  0  0  0  0  0
    3.7947   -0.3031   -2.9098 H   0  0  0  0  0  0  0  0  0  0  0  0
    2.1094   -2.8374   -0.4613 H   0  0  0  0  0  0  0  0  0  0  0  0
    3.2178   -4.1249   -0.9216 H   0  0  0  0  0  0  0  0  0  0  0  0
    2.0986   -3.4984   -2.0905 H   0  0  0  0  0  0  0  0  0  0  0  0
    5.2912   -4.6155   -1.5663 H   0  0  0  0  0  0  0  0  0  0  0  0
    6.2990   -4.1972   -2.9354 H   0  0  0  0  0  0  0  0  0  0  0  0
    7.5103   -3.5151   -0.9294 H   0  0  0  0  0  0  0  0  0  0  0  0
    7.0608   -2.1697   -1.8632 H   0  0  0  0  0  0  0  0  0  0  0  0
    6.4892   -0.5561    1.2335 H   0  0  0  0  0  0  0  0  0  0  0  0
    7.2190   -0.6999   -0.3186 H   0  0  0  0  0  0  0  0  0  0  0  0
    7.8080   -1.7036    0.9515 H   0  0  0  0  0  0  0  0  0  0  0  0
    5.0629   -0.6273   -1.0351 H   0  0  0  0  0  0  0  0  0  0  0  0
    4.3389   -0.1054    1.0700 H   0  0  0  0  0  0  0  0  0  0  0  0
    2.8664   -0.5114    0.2358 H   0  0  0  0  0  0  0  0  0  0  0  0
    5.0003   -1.4975    3.6668 H   0  0  0  0  0  0  0  0  0  0  0  0
    4.8598   -4.0454    0.5638 H   0  0  0  0  0  0  0  0  0  0  0  0
    7.2533   -4.6259    0.7750 H   0  0  0  0  0  0  0  0  0  0  0  0
    7.4064   -3.4838    2.0763 H   0  0  0  0  0  0  0  0  0  0  0  0
    6.0922   -6.1582    1.9030 H   0  0  0  0  0  0  0  0  0  0  0  0
    7.3134   -6.5835    3.6928 H   0  0  0  0  0  0  0  0  0  0  0  0
    5.7041   -4.9077    4.5287 H   0  0  0  0  0  0  0  0  0  0  0  0
    4.7535   -6.9003    4.6810 H   0  0  0  0  0  0  0  0  0  0  0  0
    3.8574   -7.1992   -0.4902 H   0  0  0  0  0  0  0  0  0  0  0  0
    5.2631   -7.6352    0.4487 H   0  0  0  0  0  0  0  0  0  0  0  0
    4.6101   -6.0013    0.3928 H   0  0  0  0  0  0  0  0  0  0  0  0
    2.5096   -9.1955    0.7258 H   0  0  0  0  0  0  0  0  0  0  0  0
    2.7532   -9.3355    2.4587 H   0  0  0  0  0  0  0  0  0  0  0  0
    4.1051   -9.4994    1.3711 H   0  0  0  0  0  0  0  0  0  0  0  0
    1.2101   -7.5436    0.3813 H   0  0  0  0  0  0  0  0  0  0  0  0
    0.2622   -6.4825    2.7696 H   0  0  0  0  0  0  0  0  0  0  0  0
    0.8769   -8.1042    2.6550 H   0  0  0  0  0  0  0  0  0  0  0  0
    1.0151   -6.5987    4.8831 H   0  0  0  0  0  0  0  0  0  0  0  0
    2.1753   -7.8587    4.5507 H   0  0  0  0  0  0  0  0  0  0  0  0
    3.0226   -5.5788    5.2530 H   0  0  0  0  0  0  0  0  0  0  0  0
    2.0440   -4.0031    3.7392 H   0  0  0  0  0  0  0  0  0  0  0  0
    2.9930   -4.6860    1.1299 H   0  0  0  0  0  0  0  0  0  0  0  0
    1.4165   -4.5616    1.7985 H   0  0  0  0  0  0  0  0  0  0  0  0
    3.7638   -3.7260    5.6286 H   0  0  0  0  0  0  0  0  0  0  0  0
    3.4812   -2.2601    4.7518 H   0  0  0  0  0  0  0  0  0  0  0  0
    5.1131   -2.7895    5.1547 H   0  0  0  0  0  0  0  0  0  0  0  0
  1  2  1  0
  1 35  1  0
  1 36  1  0
  1 37  1  0
  2 10  1  0
  2  3  1  0
  2  4  1  0
  3 38  1  0
  3 39  1  0
  3 40  1  0
  4  5  2  0
  4  6  1  0
  6  7  1  0
  6 41  1  0
  6 42  1  0
  7  8  1  0
  7 43  1  0
  7 44  1  0
  8 16  1  0
  8  9  1  1
  8 10  1  0
  9 45  1  0
  9 46  1  0
  9 47  1  0
 10 11  1  0
 10 48  1  6
 11 12  1  0
 11 49  1  0
 11 50  1  0
 12 13  2  0
 12 14  1  0
 14 33  1  0
 14 15  1  1
 14 16  1  0
 15 51  1  0
 16 17  1  0
 16 52  1  6
 17 18  1  0
 17 53  1  0
 17 54  1  0
 18 19  1  0
 18 20  1  0
 18 55  1  6
 19 56  1  0
 20 33  1  0
 20 21  1  0
 20 57  1  1
 21 30  1  0
 21 22  1  0
 21 58  1  1
 22 23  1  0
 23 24  1  0
 23 25  1  0
 23 26  1  0
 24 59  1  0
 24 60  1  0
 24 61  1  0
 25 62  1  0
 25 63  1  0
 25 64  1  0
 26 32  1  0
 26 27  1  6
 26 28  1  0
 27 65  1  0
 28 29  1  0
 28 66  1  0
 28 67  1  0
 29 30  1  0
 29 68  1  0
 29 69  1  0
 30 31  1  0
 30 70  1  1
 31 32  1  0
 31 33  1  0
 31 71  1  1
 32 72  1  0
 32 73  1  0
 33 34  1  1
 34 74  1  0
 34 75  1  0
 34 76  1  0
M  END
>  <i_m_ct_stereo_status>  (136) 
1

>  <s_m_source_file>  (136) 
/var/tmp/pbs.5076255.sched01/tmp7c02qu8j/38qwqhi24o.sdf

>  <i_m_source_file_index>  (136) 
21

>  <i_lp_mmshare_version>  (136) 
48012

>  <i_f3d_flags>  (136) 
0

>  <s_epik_input>  (136) 
W0NIMl0xW0NIMl1DKD1PKUMoW0NIM10pKFtDSDNdKVtDQEhdKFtDQF0xMltDSDNdKVtDSDJdQyg9TylbQ0BdMyhbT0hdKVtDQEBIXTJbQ0gyXVtDQEBIXShbT0hdKVtDQEBIXTRbQ0BIXTVbQ0BIXTZbQ0BASF0oW0NAXTM0W0NIM10pW0NIMl1bQ0BAXShbT0hdKShDKE81KShbQ0gzXSlbQ0gzXSlbQ0gyXVtDSDJdNg==

>  <s_epik_cmdline>  (136) 
J2VwaWtfcHl0aG9uJywgJy1waHQnLCAnMi4wJywgJy1waCcsICc3LjAnLCAnLXRuJywgJzgnLCAnLW1hJywgJzIwMCcsICctaW1hZScsICc8aW5maWxlLm1hZT4nLCAnLW9tYWUnLCAnPG91dGZpbGUubWFlPic=

>  <r_lp_tautomer_probability>  (136) 
1

>  <r_epik_Ionization_Penalty>  (136) 
6.08451e-07

>  <r_epik_Ionization_Penalty_Charging>  (136) 
0

>  <r_epik_Ionization_Penalty_Neutral>  (136) 
6.08451e-07

>  <r_epik_State_Penalty>  (136) 
-0

>  <r_epik_Charging_Adjusted_Penalty>  (136) 
0

>  <i_epik_Tot_Q>  (136) 
0

>  <i_epik_Tot_abs_Q>  (136) 
0

>  <s_lp_Force_Field>  (136) 
OPLS3e

>  <r_lp_Energy>  (136) 
100.77

>  <b_lp_Chiralities_Consistent>  (136) 
1

>  <s_lp_Variant>  (136) 
42:0-1

>  <s_i_glide_gridfile>  (136) 
pfpi4k_grid

>  <i_i_glide_lignum>  (136) 
21

>  <i_i_glide_rotatable_bonds>  (136) 
3

>  <r_i_docking_score>  (136) 
-2.65505

>  <r_i_glide_ligand_efficiency>  (136) 
-0.0780896

>  <r_i_glide_ligand_efficiency_sa>  (136) 
-0.25298

>  <r_i_glide_ligand_efficiency_ln>  (136) 
-0.586575

>  <r_i_glide_gscore>  (136) 
-2.65505

>  <r_i_glide_lipo>  (136) 
-0.536754

>  <r_i_glide_hbond>  (136) 
-0.100791

>  <r_i_glide_metal>  (136) 
-0

>  <r_i_glide_rewards>  (136) 
-0.320922

>  <r_i_glide_evdw>  (136) 
-23.661

>  <r_i_glide_ecoul>  (136) 
-3.35157

>  <r_i_glide_erotb>  (136) 
0

>  <r_i_glide_esite>  (136) 
-0.0107938

>  <r_i_glide_emodel>  (136) 
-29.4653

>  <r_i_glide_energy>  (136) 
-27.0126

>  <r_i_glide_einternal>  (136) 
1.99761

>  <r_i_glide_intrahb_reward>  (136) 
-0

>  <i_i_glide_confnum>  (136) 
2

>  <i_i_glide_posenum>  (136) 
15

>  <r_i_glide_eff_state_penalty>  (136) 
0

>  <ligand_id>  (136) 
42

>  <original_smiles>  (136) 
CC1(C)C(=O)CCC2(C)C1CC(=O)C1(O)C2CC(O)C2C3OC(C)(C)C4(O)CCC3C(C4)C21C

>  <smiles>  (136) 
[H]OC1([H])C([H])([H])C2([H])C(O[H])(C(=O)C([H])([H])C3([H])C(C([H])([H])[H])(C([H])([H])[H])C(=O)C([H])([H])C([H])([H])C23C([H])([H])[H])C2(C([H])([H])[H])C1([H])C1([H])OC(C([H])([H])[H])(C([H])([H])[H])C3(O[H])C([H])([H])C([H])([H])C1([H])C2([H])C3([H])[H]

$$$$
44:0:0
     RDKit          3D

 63 67  0  0  1  0  0  0  0  0999 V2000
    5.5481   -4.0372    4.6837 C   0  0  0  0  0  0  0  0  0  0  0  0
    5.2732   -5.1845    3.7022 C   0  0  2  0  0  0  0  0  0  0  0  0
    6.4394   -5.5163    2.7016 C   0  0  0  0  0  0  0  0  0  0  0  0
    6.0731   -6.0520    1.2859 C   0  0  0  0  0  0  0  0  0  0  0  0
    4.6681   -5.6329    0.7629 C   0  0  1  0  0  0  0  0  0  0  0  0
    4.4194   -6.5212   -0.3155 O   0  0  0  0  0  0  0  0  0  0  0  0
    3.6739   -6.1345    1.9352 C   0  0  2  0  0  0  0  0  0  0  0  0
    3.9281   -7.6363    2.3459 C   0  0  0  0  0  0  0  0  0  0  0  0
    2.1422   -5.9899    1.6741 C   0  0  1  0  0  0  0  0  0  0  0  0
    1.3372   -6.8550    2.4448 O   0  0  0  0  0  0  0  0  0  0  0  0
    1.8185   -4.6952    2.0227 O   0  0  0  0  0  0  0  0  0  0  0  0
    2.7896   -4.1025    2.8615 C   0  0  2  0  0  0  0  0  0  0  0  0
    3.0079   -2.6670    2.3012 C   0  0  0  0  0  0  0  0  0  0  0  0
    3.4822   -2.2397    0.8472 C   0  0  1  0  0  0  0  0  0  0  0  0
    4.9351   -1.7077    0.8693 C   0  0  2  0  0  0  0  0  0  0  0  0
    5.3131   -0.7889    2.0606 C   0  0  0  0  0  0  0  0  0  0  0  0
    5.1957   -0.8190   -0.3712 C   0  0  0  0  0  0  0  0  0  0  0  0
    4.9933   -1.5041   -1.7136 C   0  0  0  0  0  0  0  0  0  0  0  0
    3.7624   -2.4023   -1.6774 C   0  0  1  0  0  0  0  0  0  0  0  0
    3.7808   -3.1719   -2.8774 O   0  0  0  0  0  0  0  0  0  0  0  0
    3.5526   -3.2581   -0.3515 C   0  0  2  0  0  0  0  0  0  0  0  0
    2.2242   -3.9557   -0.7107 C   0  0  0  0  0  0  0  0  0  0  0  0
    4.8070   -4.1272    0.1055 C   0  0  2  0  0  0  0  0  0  0  0  0
    5.5645   -4.3561   -1.0586 O   0  0  0  0  0  0  0  0  0  0  0  0
    5.6831   -3.0540    0.8804 C   0  0  1  0  0  0  0  0  0  0  0  0
    7.1904   -2.9052    0.5313 C   0  0  0  0  0  0  0  0  0  0  0  0
    3.8195   -5.2437    3.1326 C   0  0  2  0  0  0  0  0  0  0  0  0
    5.6839   -3.0898    4.1748 H   0  0  0  0  0  0  0  0  0  0  0  0
    6.4690   -4.2285    5.2329 H   0  0  0  0  0  0  0  0  0  0  0  0
    4.7550   -3.9078    5.4194 H   0  0  0  0  0  0  0  0  0  0  0  0
    5.3011   -6.0557    4.3615 H   0  0  0  0  0  0  0  0  0  0  0  0
    7.0874   -4.6578    2.5725 H   0  0  0  0  0  0  0  0  0  0  0  0
    7.1030   -6.2371    3.1794 H   0  0  0  0  0  0  0  0  0  0  0  0
    6.8481   -5.7835    0.5760 H   0  0  0  0  0  0  0  0  0  0  0  0
    6.1775   -7.1338    1.2817 H   0  0  0  0  0  0  0  0  0  0  0  0
    3.7532   -6.1595   -0.8868 H   0  0  0  0  0  0  0  0  0  0  0  0
    3.2850   -7.9919    3.1499 H   0  0  0  0  0  0  0  0  0  0  0  0
    4.9160   -7.8226    2.7674 H   0  0  0  0  0  0  0  0  0  0  0  0
    3.7964   -8.3092    1.4977 H   0  0  0  0  0  0  0  0  0  0  0  0
    1.8875   -6.2362    0.6476 H   0  0  0  0  0  0  0  0  0  0  0  0
    1.6298   -7.7448    2.2876 H   0  0  0  0  0  0  0  0  0  0  0  0
    2.3023   -3.9383    3.8239 H   0  0  0  0  0  0  0  0  0  0  0  0
    2.0116   -2.2290    2.3679 H   0  0  0  0  0  0  0  0  0  0  0  0
    3.5251   -2.1218    3.0846 H   0  0  0  0  0  0  0  0  0  0  0  0
    2.8256   -1.4147    0.5590 H   0  0  0  0  0  0  0  0  0  0  0  0
    6.2570   -0.2776    1.8812 H   0  0  0  0  0  0  0  0  0  0  0  0
    5.4569   -1.3162    2.9990 H   0  0  0  0  0  0  0  0  0  0  0  0
    4.5568   -0.0175    2.2153 H   0  0  0  0  0  0  0  0  0  0  0  0
    4.5208    0.0379   -0.3189 H   0  0  0  0  0  0  0  0  0  0  0  0
    6.2034   -0.4051   -0.3414 H   0  0  0  0  0  0  0  0  0  0  0  0
    4.8789   -0.7589   -2.5014 H   0  0  0  0  0  0  0  0  0  0  0  0
    5.8775   -2.0720   -1.9916 H   0  0  0  0  0  0  0  0  0  0  0  0
    2.9033   -1.7328   -1.7652 H   0  0  0  0  0  0  0  0  0  0  0  0
    3.2324   -3.9380   -2.7508 H   0  0  0  0  0  0  0  0  0  0  0  0
    2.3372   -5.0109   -0.8958 H   0  0  0  0  0  0  0  0  0  0  0  0
    1.7095   -3.5660   -1.5902 H   0  0  0  0  0  0  0  0  0  0  0  0
    1.5024   -3.7692    0.0459 H   0  0  0  0  0  0  0  0  0  0  0  0
    5.0961   -4.9787   -1.5963 H   0  0  0  0  0  0  0  0  0  0  0  0
    5.6233   -3.3196    1.9220 H   0  0  0  0  0  0  0  0  0  0  0  0
    7.3767   -2.5339   -0.4721 H   0  0  0  0  0  0  0  0  0  0  0  0
    7.7465   -3.8338    0.6063 H   0  0  0  0  0  0  0  0  0  0  0  0
    7.6477   -2.2072    1.2340 H   0  0  0  0  0  0  0  0  0  0  0  0
    3.3063   -5.7708    3.9409 H   0  0  0  0  0  0  0  0  0  0  0  0
  1  2  1  0
  1 28  1  0
  1 29  1  0
  1 30  1  0
  2 27  1  0
  2  3  1  0
  2 31  1  1
  3  4  1  0
  3 32  1  0
  3 33  1  0
  4  5  1  0
  4 34  1  0
  4 35  1  0
  5 23  1  0
  5  6  1  6
  5  7  1  0
  6 36  1  0
  7 27  1  0
  7  8  1  1
  7  9  1  0
  8 37  1  0
  8 38  1  0
  8 39  1  0
  9 10  1  0
  9 11  1  0
  9 40  1  6
 10 41  1  0
 11 12  1  0
 12 13  1  0
 12 27  1  0
 12 42  1  1
 13 14  1  0
 13 43  1  0
 13 44  1  0
 14 21  1  0
 14 15  1  0
 14 45  1  6
 15 25  1  0
 15 16  1  1
 15 17  1  0
 16 46  1  0
 16 47  1  0
 16 48  1  0
 17 18  1  0
 17 49  1  0
 17 50  1  0
 18 19  1  0
 18 51  1  0
 18 52  1  0
 19 20  1  0
 19 21  1  0
 19 53  1  6
 20 54  1  0
 21 22  1  6
 21 23  1  0
 22 55  1  0
 22 56  1  0
 22 57  1  0
 23 24  1  6
 23 25  1  0
 24 58  1  0
 25 26  1  0
 25 59  1  1
 26 60  1  0
 26 61  1  0
 26 62  1  0
 27 63  1  1
M  END
>  <i_m_ct_stereo_status>  (137) 
1

>  <s_m_source_file>  (137) 
/var/tmp/pbs.5076255.sched01/tmp7c02qu8j/38qwqhi24o.sdf

>  <i_m_source_file_index>  (137) 
23

>  <i_lp_mmshare_version>  (137) 
48012

>  <i_f3d_flags>  (137) 
0

>  <s_epik_input>  (137) 
W0NIMl0xW0NIMl1bQ0BASF0oW0NIM10pW0NASF0oW0NAXTIoW0NIM10pW0NAXTEzW09IXSlbQ0BIXShPW0NAQEhdMltPSF0pW0NIMl1bQ0BIXTRbQ0BdNShbQ0gzXSlbQ0gyXVtDSDJdW0NAQEhdKFtPSF0pW0NAQF00KFtDSDNdKVtDQEBdMyhbT0hdKVtDQEhdNVtDSDNd

>  <s_epik_cmdline>  (137) 
J2VwaWtfcHl0aG9uJywgJy1waHQnLCAnMi4wJywgJy1waCcsICc3LjAnLCAnLXRuJywgJzgnLCAnLW1hJywgJzIwMCcsICctaW1hZScsICc8aW5maWxlLm1hZT4nLCAnLW9tYWUnLCAnPG91dGZpbGUubWFlPic=

>  <r_lp_tautomer_probability>  (137) 
1

>  <r_epik_Ionization_Penalty>  (137) 
3.13437e-06

>  <r_epik_Ionization_Penalty_Charging>  (137) 
0

>  <r_epik_Ionization_Penalty_Neutral>  (137) 
3.13437e-06

>  <r_epik_State_Penalty>  (137) 
-0

>  <r_epik_Charging_Adjusted_Penalty>  (137) 
0

>  <i_epik_Tot_Q>  (137) 
0

>  <i_epik_Tot_abs_Q>  (137) 
0

>  <s_epik_Chemistry_Notes>  (137) 
This compound contains an acetal/aminal-like group ( X-CH(R)-Y where X, Y are N, S, or O) that may be acid/base labile, releasing an aldehyde.

>  <s_lp_Force_Field>  (137) 
OPLS3e

>  <r_lp_Energy>  (137) 
134.632

>  <b_lp_Chiralities_Consistent>  (137) 
1

>  <s_lp_Variant>  (137) 
44:0-1

>  <s_i_glide_gridfile>  (137) 
pfpi4k_grid

>  <i_i_glide_lignum>  (137) 
23

>  <i_i_glide_rotatable_bonds>  (137) 
4

>  <r_i_docking_score>  (137) 
-3.5999

>  <r_i_glide_ligand_efficiency>  (137) 
-0.13333

>  <r_i_glide_ligand_efficiency_sa>  (137) 
-0.399989

>  <r_i_glide_ligand_efficiency_ln>  (137) 
-0.837997

>  <r_i_glide_gscore>  (137) 
-3.5999

>  <r_i_glide_lipo>  (137) 
-0.631569

>  <r_i_glide_hbond>  (137) 
-0.00931277

>  <r_i_glide_metal>  (137) 
-0

>  <r_i_glide_rewards>  (137) 
-0.814648

>  <r_i_glide_evdw>  (137) 
-18.5637

>  <r_i_glide_ecoul>  (137) 
-7.94288

>  <r_i_glide_erotb>  (137) 
0

>  <r_i_glide_esite>  (137) 
-0.0247526

>  <r_i_glide_emodel>  (137) 
-29.5916

>  <r_i_glide_energy>  (137) 
-26.5066

>  <r_i_glide_einternal>  (137) 
3.48141

>  <r_i_glide_intrahb_reward>  (137) 
-0

>  <i_i_glide_confnum>  (137) 
1

>  <i_i_glide_posenum>  (137) 
8

>  <r_i_glide_eff_state_penalty>  (137) 
0

>  <ligand_id>  (137) 
44

>  <original_smiles>  (137) 
CC1CCC2(O)C3(C)C(O)OC(CC4C5(C)CCC(O)C4(C)C2(O)C5C)C13

>  <smiles>  (137) 
[H]OC1([H])OC2([H])C([H])([H])C3([H])C4(C([H])([H])[H])C([H])([H])C([H])([H])C([H])(O[H])C3(C([H])([H])[H])C(O[H])(C4([H])C([H])([H])[H])C3(O[H])C([H])([H])C([H])([H])C([H])(C([H])([H])[H])C2([H])C13C([H])([H])[H]

$$$$
44:0:1
     RDKit          3D

 63 67  0  0  1  0  0  0  0  0999 V2000
    5.5825   -4.0789    4.6302 C   0  0  0  0  0  0  0  0  0  0  0  0
    5.3696   -5.2016    3.6075 C   0  0  2  0  0  0  0  0  0  0  0  0
    6.5522   -5.4300    2.6023 C   0  0  0  0  0  0  0  0  0  0  0  0
    6.2133   -5.9312    1.1791 C   0  0  0  0  0  0  0  0  0  0  0  0
    4.7851   -5.5746    0.6962 C   0  0  1  0  0  0  0  0  0  0  0  0
    4.5921   -6.4809   -0.3554 O   0  0  0  0  0  0  0  0  0  0  0  0
    3.8145   -6.1765    1.8326 C   0  0  2  0  0  0  0  0  0  0  0  0
    4.1597   -7.6777    2.1771 C   0  0  0  0  0  0  0  0  0  0  0  0
    2.2757   -6.1128    1.5742 C   0  0  1  0  0  0  0  0  0  0  0  0
    1.5276   -7.0604    2.3052 O   0  0  0  0  0  0  0  0  0  0  0  0
    1.8702   -4.8557    1.9796 O   0  0  0  0  0  0  0  0  0  0  0  0
    2.8241   -4.2315    2.8185 C   0  0  2  0  0  0  0  0  0  0  0  0
    2.9563   -2.7676    2.3016 C   0  0  0  0  0  0  0  0  0  0  0  0
    3.4032   -2.2656    0.8627 C   0  0  1  0  0  0  0  0  0  0  0  0
    4.8220   -1.6536    0.8961 C   0  0  2  0  0  0  0  0  0  0  0  0
    5.1608   -0.7593    2.1190 C   0  0  0  0  0  0  0  0  0  0  0  0
    5.0239   -0.7101   -0.3152 C   0  0  0  0  0  0  0  0  0  0  0  0
    4.8535   -1.3654   -1.6767 C   0  0  0  0  0  0  0  0  0  0  0  0
    3.6752   -2.3322   -1.6614 C   0  0  1  0  0  0  0  0  0  0  0  0
    3.7298   -3.0573   -2.8859 O   0  0  0  0  0  0  0  0  0  0  0  0
    3.5213   -3.2442   -0.3624 C   0  0  2  0  0  0  0  0  0  0  0  0
    2.2243   -4.0017   -0.7175 C   0  0  0  0  0  0  0  0  0  0  0  0
    4.8294   -4.0598    0.0548 C   0  0  2  0  0  0  0  0  0  0  0  0
    5.6047   -4.2425   -1.1159 O   0  0  0  0  0  0  0  0  0  0  0  0
    5.6450   -2.9566    0.8533 C   0  0  1  0  0  0  0  0  0  0  0  0
    7.1414   -2.7053    0.5067 C   0  0  0  0  0  0  0  0  0  0  0  0
    3.9158   -5.3230    3.0539 C   0  0  2  0  0  0  0  0  0  0  0  0
    5.6655   -3.1083    4.1518 H   0  0  0  0  0  0  0  0  0  0  0  0
    6.5156   -4.2449    5.1688 H   0  0  0  0  0  0  0  0  0  0  0  0
    4.7838   -4.0201    5.3705 H   0  0  0  0  0  0  0  0  0  0  0  0
    5.4517   -6.0953    4.2312 H   0  0  0  0  0  0  0  0  0  0  0  0
    7.1261   -4.5223    2.4770 H   0  0  0  0  0  0  0  0  0  0  0  0
    7.2709   -6.1174    3.0463 H   0  0  0  0  0  0  0  0  0  0  0  0
    6.9648   -5.5987    0.4735 H   0  0  0  0  0  0  0  0  0  0  0  0
    6.3782   -7.0035    1.1350 H   0  0  0  0  0  0  0  0  0  0  0  0
    3.8885   -6.1661   -0.9055 H   0  0  0  0  0  0  0  0  0  0  0  0
    3.5353   -8.1090    2.9614 H   0  0  0  0  0  0  0  0  0  0  0  0
    5.1581   -7.8200    2.5809 H   0  0  0  0  0  0  0  0  0  0  0  0
    4.0560   -8.3191    1.2999 H   0  0  0  0  0  0  0  0  0  0  0  0
    2.0176   -6.3307    0.5426 H   0  0  0  0  0  0  0  0  0  0  0  0
    1.9018   -7.1086    3.1764 H   0  0  0  0  0  0  0  0  0  0  0  0
    2.3306   -4.1224    3.7851 H   0  0  0  0  0  0  0  0  0  0  0  0
    1.9366   -2.3875    2.3839 H   0  0  0  0  0  0  0  0  0  0  0  0
    3.4504   -2.2277    3.1003 H   0  0  0  0  0  0  0  0  0  0  0  0
    2.6976   -1.4680    0.6044 H   0  0  0  0  0  0  0  0  0  0  0  0
    6.0873   -0.2095    1.9555 H   0  0  0  0  0  0  0  0  0  0  0  0
    5.3277   -1.3122    3.0380 H   0  0  0  0  0  0  0  0  0  0  0  0
    4.3691   -0.0293    2.3002 H   0  0  0  0  0  0  0  0  0  0  0  0
    4.3093    0.1126   -0.2333 H   0  0  0  0  0  0  0  0  0  0  0  0
    6.0153   -0.2574   -0.2841 H   0  0  0  0  0  0  0  0  0  0  0  0
    4.6946   -0.5967   -2.4364 H   0  0  0  0  0  0  0  0  0  0  0  0
    5.7674   -1.8754   -1.9750 H   0  0  0  0  0  0  0  0  0  0  0  0
    2.7840   -1.7000   -1.7251 H   0  0  0  0  0  0  0  0  0  0  0  0
    3.0261   -3.6948   -2.8863 H   0  0  0  0  0  0  0  0  0  0  0  0
    2.4119   -5.0307   -0.9645 H   0  0  0  0  0  0  0  0  0  0  0  0
    1.6855   -3.6009   -1.5791 H   0  0  0  0  0  0  0  0  0  0  0  0
    1.4771   -3.9332    0.0373 H   0  0  0  0  0  0  0  0  0  0  0  0
    5.1351   -4.8253   -1.6940 H   0  0  0  0  0  0  0  0  0  0  0  0
    5.6034   -3.2528    1.8873 H   0  0  0  0  0  0  0  0  0  0  0  0
    7.3017   -2.2864   -0.4851 H   0  0  0  0  0  0  0  0  0  0  0  0
    7.7482   -3.6049    0.5467 H   0  0  0  0  0  0  0  0  0  0  0  0
    7.5646   -2.0058    1.2249 H   0  0  0  0  0  0  0  0  0  0  0  0
    3.4361   -5.9054    3.8465 H   0  0  0  0  0  0  0  0  0  0  0  0
  1  2  1  0
  1 28  1  0
  1 29  1  0
  1 30  1  0
  2 27  1  0
  2  3  1  0
  2 31  1  1
  3  4  1  0
  3 32  1  0
  3 33  1  0
  4  5  1  0
  4 34  1  0
  4 35  1  0
  5 23  1  0
  5  6  1  6
  5  7  1  0
  6 36  1  0
  7 27  1  0
  7  8  1  1
  7  9  1  0
  8 37  1  0
  8 38  1  0
  8 39  1  0
  9 10  1  0
  9 11  1  0
  9 40  1  6
 10 41  1  0
 11 12  1  0
 12 13  1  0
 12 27  1  0
 12 42  1  1
 13 14  1  0
 13 43  1  0
 13 44  1  0
 14 21  1  0
 14 15  1  0
 14 45  1  6
 15 25  1  0
 15 16  1  1
 15 17  1  0
 16 46  1  0
 16 47  1  0
 16 48  1  0
 17 18  1  0
 17 49  1  0
 17 50  1  0
 18 19  1  0
 18 51  1  0
 18 52  1  0
 19 20  1  0
 19 21  1  0
 19 53  1  6
 20 54  1  0
 21 22  1  6
 21 23  1  0
 22 55  1  0
 22 56  1  0
 22 57  1  0
 23 24  1  6
 23 25  1  0
 24 58  1  0
 25 26  1  0
 25 59  1  1
 26 60  1  0
 26 61  1  0
 26 62  1  0
 27 63  1  1
M  END
>  <i_m_ct_stereo_status>  (138) 
1

>  <s_m_source_file>  (138) 
/var/tmp/pbs.5076255.sched01/tmp7c02qu8j/38qwqhi24o.sdf

>  <i_m_source_file_index>  (138) 
23

>  <i_lp_mmshare_version>  (138) 
48012

>  <i_f3d_flags>  (138) 
0

>  <s_epik_input>  (138) 
W0NIMl0xW0NIMl1bQ0BASF0oW0NIM10pW0NASF0oW0NAXTIoW0NIM10pW0NAXTEzW09IXSlbQ0BIXShPW0NAQEhdMltPSF0pW0NIMl1bQ0BIXTRbQ0BdNShbQ0gzXSlbQ0gyXVtDSDJdW0NAQEhdKFtPSF0pW0NAQF00KFtDSDNdKVtDQEBdMyhbT0hdKVtDQEhdNVtDSDNd

>  <s_epik_cmdline>  (138) 
J2VwaWtfcHl0aG9uJywgJy1waHQnLCAnMi4wJywgJy1waCcsICc3LjAnLCAnLXRuJywgJzgnLCAnLW1hJywgJzIwMCcsICctaW1hZScsICc8aW5maWxlLm1hZT4nLCAnLW9tYWUnLCAnPG91dGZpbGUubWFlPic=

>  <r_lp_tautomer_probability>  (138) 
1

>  <r_epik_Ionization_Penalty>  (138) 
3.13437e-06

>  <r_epik_Ionization_Penalty_Charging>  (138) 
0

>  <r_epik_Ionization_Penalty_Neutral>  (138) 
3.13437e-06

>  <r_epik_State_Penalty>  (138) 
-0

>  <r_epik_Charging_Adjusted_Penalty>  (138) 
0

>  <i_epik_Tot_Q>  (138) 
0

>  <i_epik_Tot_abs_Q>  (138) 
0

>  <s_epik_Chemistry_Notes>  (138) 
This compound contains an acetal/aminal-like group ( X-CH(R)-Y where X, Y are N, S, or O) that may be acid/base labile, releasing an aldehyde.

>  <s_lp_Force_Field>  (138) 
OPLS3e

>  <r_lp_Energy>  (138) 
134.632

>  <b_lp_Chiralities_Consistent>  (138) 
1

>  <s_lp_Variant>  (138) 
44:0-1

>  <s_i_glide_gridfile>  (138) 
pfpi4k_grid

>  <i_i_glide_lignum>  (138) 
23

>  <i_i_glide_rotatable_bonds>  (138) 
4

>  <r_i_docking_score>  (138) 
-3.49358

>  <r_i_glide_ligand_efficiency>  (138) 
-0.129392

>  <r_i_glide_ligand_efficiency_sa>  (138) 
-0.388176

>  <r_i_glide_ligand_efficiency_ln>  (138) 
-0.813248

>  <r_i_glide_gscore>  (138) 
-3.49358

>  <r_i_glide_lipo>  (138) 
-0.641175

>  <r_i_glide_hbond>  (138) 
-0.0121031

>  <r_i_glide_metal>  (138) 
-0

>  <r_i_glide_rewards>  (138) 
-0.814648

>  <r_i_glide_evdw>  (138) 
-18.8547

>  <r_i_glide_ecoul>  (138) 
-7.0871

>  <r_i_glide_erotb>  (138) 
0

>  <r_i_glide_esite>  (138) 
-0.0198566

>  <r_i_glide_emodel>  (138) 
-30.3408

>  <r_i_glide_energy>  (138) 
-25.9417

>  <r_i_glide_einternal>  (138) 
0.953763

>  <r_i_glide_intrahb_reward>  (138) 
-0

>  <i_i_glide_confnum>  (138) 
1

>  <i_i_glide_posenum>  (138) 
1

>  <r_i_glide_eff_state_penalty>  (138) 
0

>  <ligand_id>  (138) 
44

>  <original_smiles>  (138) 
CC1CCC2(O)C3(C)C(O)OC(CC4C5(C)CCC(O)C4(C)C2(O)C5C)C13

>  <smiles>  (138) 
[H]OC1([H])OC2([H])C([H])([H])C3([H])C4(C([H])([H])[H])C([H])([H])C([H])([H])C([H])(O[H])C3(C([H])([H])[H])C(O[H])(C4([H])C([H])([H])[H])C3(O[H])C([H])([H])C([H])([H])C([H])(C([H])([H])[H])C2([H])C13C([H])([H])[H]

$$$$
44:0:2
     RDKit          3D

 63 67  0  0  1  0  0  0  0  0999 V2000
    7.7785   -2.9324    0.3933 C   0  0  0  0  0  0  0  0  0  0  0  0
    6.4456   -2.1733    0.5479 C   0  0  2  0  0  0  0  0  0  0  0  0
    5.9992   -1.8422    2.0144 C   0  0  0  0  0  0  0  0  0  0  0  0
    4.4790   -1.8273    2.3877 C   0  0  0  0  0  0  0  0  0  0  0  0
    3.5763   -2.7366    1.5012 C   0  0  1  0  0  0  0  0  0  0  0  0
    2.2459   -2.2678    1.6807 O   0  0  0  0  0  0  0  0  0  0  0  0
    3.9412   -2.2255    0.0156 C   0  0  2  0  0  0  0  0  0  0  0  0
    3.8646   -0.6718   -0.1255 C   0  0  0  0  0  0  0  0  0  0  0  0
    3.1088   -2.8386   -1.1394 C   0  0  1  0  0  0  0  0  0  0  0  0
    3.0292   -2.0342   -2.2932 O   0  0  0  0  0  0  0  0  0  0  0  0
    3.7557   -4.0005   -1.4625 O   0  0  0  0  0  0  0  0  0  0  0  0
    5.0587   -4.0825   -0.9554 C   0  0  2  0  0  0  0  0  0  0  0  0
    5.2107   -5.4792   -0.3102 C   0  0  0  0  0  0  0  0  0  0  0  0
    4.4006   -6.1719    0.8506 C   0  0  1  0  0  0  0  0  0  0  0  0
    5.2469   -6.2674    2.1276 C   0  0  2  0  0  0  0  0  0  0  0  0
    6.7305   -6.6901    1.9358 C   0  0  0  0  0  0  0  0  0  0  0  0
    4.6763   -7.3580    3.0713 C   0  0  0  0  0  0  0  0  0  0  0  0
    3.2391   -7.1251    3.4987 C   0  0  0  0  0  0  0  0  0  0  0  0
    2.4051   -6.6425    2.3232 C   0  0  1  0  0  0  0  0  0  0  0  0
    1.1603   -6.2238    2.8622 O   0  0  0  0  0  0  0  0  0  0  0  0
    3.0745   -5.5579    1.3772 C   0  0  2  0  0  0  0  0  0  0  0  0
    1.9825   -5.4213    0.3042 C   0  0  0  0  0  0  0  0  0  0  0  0
    3.6483   -4.2675    2.1332 C   0  0  2  0  0  0  0  0  0  0  0  0
    2.9060   -4.1339    3.3337 O   0  0  0  0  0  0  0  0  0  0  0  0
    5.0711   -4.8106    2.6035 C   0  0  1  0  0  0  0  0  0  0  0  0
    5.5179   -4.6280    4.0761 C   0  0  0  0  0  0  0  0  0  0  0  0
    5.3134   -2.6729   -0.3817 C   0  0  2  0  0  0  0  0  0  0  0  0
    7.7721   -3.8808    0.9171 H   0  0  0  0  0  0  0  0  0  0  0  0
    8.5992   -2.3482    0.7961 H   0  0  0  0  0  0  0  0  0  0  0  0
    8.0200   -3.1372   -0.6500 H   0  0  0  0  0  0  0  0  0  0  0  0
    6.6733   -1.1787    0.1515 H   0  0  0  0  0  0  0  0  0  0  0  0
    6.5173   -2.5224    2.6659 H   0  0  0  0  0  0  0  0  0  0  0  0
    6.4093   -0.8673    2.2786 H   0  0  0  0  0  0  0  0  0  0  0  0
    4.3586   -2.0455    3.4438 H   0  0  0  0  0  0  0  0  0  0  0  0
    4.1133   -0.8017    2.3730 H   0  0  0  0  0  0  0  0  0  0  0  0
    2.1062   -1.5316    1.0882 H   0  0  0  0  0  0  0  0  0  0  0  0
    4.1382   -0.3447   -1.1232 H   0  0  0  0  0  0  0  0  0  0  0  0
    4.5716   -0.1115    0.4831 H   0  0  0  0  0  0  0  0  0  0  0  0
    2.8588   -0.3280    0.0908 H   0  0  0  0  0  0  0  0  0  0  0  0
    2.0844   -3.0249   -0.8634 H   0  0  0  0  0  0  0  0  0  0  0  0
    2.2962   -1.4343   -2.1647 H   0  0  0  0  0  0  0  0  0  0  0  0
    5.7010   -4.1402   -1.8325 H   0  0  0  0  0  0  0  0  0  0  0  0
    4.9569   -6.1311   -1.1375 H   0  0  0  0  0  0  0  0  0  0  0  0
    6.2719   -5.6490   -0.2099 H   0  0  0  0  0  0  0  0  0  0  0  0
    4.1839   -7.1878    0.5086 H   0  0  0  0  0  0  0  0  0  0  0  0
    7.1979   -6.9404    2.8872 H   0  0  0  0  0  0  0  0  0  0  0  0
    7.3630   -5.9173    1.5123 H   0  0  0  0  0  0  0  0  0  0  0  0
    6.8051   -7.5706    1.2941 H   0  0  0  0  0  0  0  0  0  0  0  0
    4.7352   -8.3207    2.5592 H   0  0  0  0  0  0  0  0  0  0  0  0
    5.2894   -7.4544    3.9680 H   0  0  0  0  0  0  0  0  0  0  0  0
    2.8140   -8.0484    3.8879 H   0  0  0  0  0  0  0  0  0  0  0  0
    3.2045   -6.4192    4.3242 H   0  0  0  0  0  0  0  0  0  0  0  0
    2.2095   -7.5221    1.7029 H   0  0  0  0  0  0  0  0  0  0  0  0
    1.3646   -5.4928    3.4343 H   0  0  0  0  0  0  0  0  0  0  0  0
    1.5163   -4.4642    0.4295 H   0  0  0  0  0  0  0  0  0  0  0  0
    1.1765   -6.1609    0.3709 H   0  0  0  0  0  0  0  0  0  0  0  0
    2.3379   -5.5357   -0.7026 H   0  0  0  0  0  0  0  0  0  0  0  0
    3.3129   -3.4379    3.8239 H   0  0  0  0  0  0  0  0  0  0  0  0
    5.7997   -4.3155    1.9827 H   0  0  0  0  0  0  0  0  0  0  0  0
    4.9336   -5.2025    4.7892 H   0  0  0  0  0  0  0  0  0  0  0  0
    5.4958   -3.5935    4.4058 H   0  0  0  0  0  0  0  0  0  0  0  0
    6.5465   -4.9714    4.1854 H   0  0  0  0  0  0  0  0  0  0  0  0
    5.5459   -2.1295   -1.3017 H   0  0  0  0  0  0  0  0  0  0  0  0
  1  2  1  0
  1 28  1  0
  1 29  1  0
  1 30  1  0
  2 27  1  0
  2  3  1  0
  2 31  1  6
  3  4  1  0
  3 32  1  0
  3 33  1  0
  4  5  1  0
  4 34  1  0
  4 35  1  0
  5 23  1  0
  5  6  1  1
  5  7  1  0
  6 36  1  0
  7 27  1  0
  7  8  1  1
  7  9  1  0
  8 37  1  0
  8 38  1  0
  8 39  1  0
  9 10  1  0
  9 11  1  0
  9 40  1  1
 10 41  1  0
 11 12  1  0
 12 13  1  0
 12 27  1  0
 12 42  1  6
 13 14  1  0
 13 43  1  0
 13 44  1  0
 14 21  1  0
 14 15  1  0
 14 45  1  6
 15 25  1  0
 15 16  1  6
 15 17  1  0
 16 46  1  0
 16 47  1  0
 16 48  1  0
 17 18  1  0
 17 49  1  0
 17 50  1  0
 18 19  1  0
 18 51  1  0
 18 52  1  0
 19 20  1  0
 19 21  1  0
 19 53  1  6
 20 54  1  0
 21 22  1  6
 21 23  1  0
 22 55  1  0
 22 56  1  0
 22 57  1  0
 23 24  1  1
 23 25  1  0
 24 58  1  0
 25 26  1  0
 25 59  1  6
 26 60  1  0
 26 61  1  0
 26 62  1  0
 27 63  1  6
M  END
>  <i_m_ct_stereo_status>  (139) 
1

>  <s_m_source_file>  (139) 
/var/tmp/pbs.5076255.sched01/tmp7c02qu8j/38qwqhi24o.sdf

>  <i_m_source_file_index>  (139) 
23

>  <i_lp_mmshare_version>  (139) 
48012

>  <i_f3d_flags>  (139) 
0

>  <s_epik_input>  (139) 
W0NIMl0xW0NIMl1bQ0BASF0oW0NIM10pW0NASF0oW0NAXTIoW0NIM10pW0NAXTEzW09IXSlbQ0BIXShPW0NAQEhdMltPSF0pW0NIMl1bQ0BIXTRbQ0BdNShbQ0gzXSlbQ0gyXVtDSDJdW0NAQEhdKFtPSF0pW0NAQF00KFtDSDNdKVtDQEBdMyhbT0hdKVtDQEhdNVtDSDNd

>  <s_epik_cmdline>  (139) 
J2VwaWtfcHl0aG9uJywgJy1waHQnLCAnMi4wJywgJy1waCcsICc3LjAnLCAnLXRuJywgJzgnLCAnLW1hJywgJzIwMCcsICctaW1hZScsICc8aW5maWxlLm1hZT4nLCAnLW9tYWUnLCAnPG91dGZpbGUubWFlPic=

>  <r_lp_tautomer_probability>  (139) 
1

>  <r_epik_Ionization_Penalty>  (139) 
3.13437e-06

>  <r_epik_Ionization_Penalty_Charging>  (139) 
0

>  <r_epik_Ionization_Penalty_Neutral>  (139) 
3.13437e-06

>  <r_epik_State_Penalty>  (139) 
-0

>  <r_epik_Charging_Adjusted_Penalty>  (139) 
0

>  <i_epik_Tot_Q>  (139) 
0

>  <i_epik_Tot_abs_Q>  (139) 
0

>  <s_epik_Chemistry_Notes>  (139) 
This compound contains an acetal/aminal-like group ( X-CH(R)-Y where X, Y are N, S, or O) that may be acid/base labile, releasing an aldehyde.

>  <s_lp_Force_Field>  (139) 
OPLS3e

>  <r_lp_Energy>  (139) 
134.632

>  <b_lp_Chiralities_Consistent>  (139) 
1

>  <s_lp_Variant>  (139) 
44:0-1

>  <s_i_glide_gridfile>  (139) 
pfpi4k_grid

>  <i_i_glide_lignum>  (139) 
23

>  <i_i_glide_rotatable_bonds>  (139) 
4

>  <r_i_docking_score>  (139) 
-3.02054

>  <r_i_glide_ligand_efficiency>  (139) 
-0.111872

>  <r_i_glide_ligand_efficiency_sa>  (139) 
-0.335616

>  <r_i_glide_ligand_efficiency_ln>  (139) 
-0.703133

>  <r_i_glide_gscore>  (139) 
-3.02054

>  <r_i_glide_lipo>  (139) 
-0.643094

>  <r_i_glide_hbond>  (139) 
0

>  <r_i_glide_metal>  (139) 
-0

>  <r_i_glide_rewards>  (139) 
-1.31465

>  <r_i_glide_evdw>  (139) 
-16.6177

>  <r_i_glide_ecoul>  (139) 
-1.39131

>  <r_i_glide_erotb>  (139) 
0

>  <r_i_glide_esite>  (139) 
-0.0232216

>  <r_i_glide_emodel>  (139) 
-24.9405

>  <r_i_glide_energy>  (139) 
-18.009

>  <r_i_glide_einternal>  (139) 
2.65944

>  <r_i_glide_intrahb_reward>  (139) 
-0.5

>  <i_i_glide_confnum>  (139) 
1

>  <i_i_glide_posenum>  (139) 
27

>  <r_i_glide_eff_state_penalty>  (139) 
0

>  <ligand_id>  (139) 
44

>  <original_smiles>  (139) 
CC1CCC2(O)C3(C)C(O)OC(CC4C5(C)CCC(O)C4(C)C2(O)C5C)C13

>  <smiles>  (139) 
[H]OC1([H])OC2([H])C([H])([H])C3([H])C4(C([H])([H])[H])C([H])([H])C([H])([H])C([H])(O[H])C3(C([H])([H])[H])C(O[H])(C4([H])C([H])([H])[H])C3(O[H])C([H])([H])C([H])([H])C([H])(C([H])([H])[H])C2([H])C13C([H])([H])[H]

$$$$
45:0:0
     RDKit          3D

 10 11  0  0  1  0  0  0  0  0999 V2000
    1.4737  -10.3209    3.0828 C   0  0  0  0  0  0  0  0  0  0  0  0
    0.1418   -9.7709    3.3264 C   0  0  0  0  0  0  0  0  0  0  0  0
    0.1602   -8.5485    2.5867 C   0  0  0  0  0  0  0  0  0  0  0  0
   -0.7769   -7.6575    2.4635 N   0  0  0  0  0  0  0  0  0  0  0  0
   -0.1534   -6.7158    1.6176 N   0  0  0  0  0  0  0  0  0  0  0  0
    1.0787   -7.0492    1.2937 N   0  0  0  0  0  0  0  0  0  0  0  0
    1.2626   -8.2187    1.9210 N   0  0  0  0  0  0  0  0  0  0  0  0
    2.5312   -9.3107    2.0325 S   0  0  0  0  0  0  0  0  0  0  0  0
    1.8374  -11.2560    3.4849 H   0  0  0  0  0  0  0  0  0  0  0  0
   -0.6441  -10.1939    3.9279 H   0  0  0  0  0  0  0  0  0  0  0  0
  1  8  1  0
  1  2  2  0
  1  9  1  0
  2  3  1  0
  2 10  1  0
  3  7  1  0
  3  4  2  0
  4  5  1  0
  5  6  2  0
  6  7  1  0
  7  8  1  0
M  END
>  <i_m_ct_stereo_status>  (140) 
1

>  <s_m_source_file>  (140) 
/var/tmp/pbs.5076255.sched01/tmp7c02qu8j/38qwqhi24o.sdf

>  <i_m_source_file_index>  (140) 
24

>  <i_lp_mmshare_version>  (140) 
48012

>  <i_f3d_flags>  (140) 
0

>  <s_epik_input>  (140) 
W2NIXTFbY0hdc24oYzEyKW5ubjI=

>  <s_epik_cmdline>  (140) 
J2VwaWtfcHl0aG9uJywgJy1waHQnLCAnMi4wJywgJy1waCcsICc3LjAnLCAnLXRuJywgJzgnLCAnLW1hJywgJzIwMCcsICctaW1hZScsICc8aW5maWxlLm1hZT4nLCAnLW9tYWUnLCAnPG91dGZpbGUubWFlPic=

>  <r_lp_tautomer_probability>  (140) 
1

>  <r_epik_Ionization_Penalty>  (140) 
2.66075e-08

>  <r_epik_Ionization_Penalty_Charging>  (140) 
0

>  <r_epik_Ionization_Penalty_Neutral>  (140) 
2.66075e-08

>  <r_epik_State_Penalty>  (140) 
-0

>  <r_epik_Charging_Adjusted_Penalty>  (140) 
0

>  <i_epik_Tot_Q>  (140) 
0

>  <i_epik_Tot_abs_Q>  (140) 
0

>  <s_lp_Force_Field>  (140) 
OPLS3e

>  <r_lp_Energy>  (140) 
1.55971

>  <b_lp_Chiralities_Consistent>  (140) 
1

>  <s_lp_Variant>  (140) 
45:0-1

>  <s_i_glide_gridfile>  (140) 
pfpi4k_grid

>  <i_i_glide_lignum>  (140) 
24

>  <i_i_glide_rotatable_bonds>  (140) 
0

>  <r_i_docking_score>  (140) 
-3.93863

>  <r_i_glide_ligand_efficiency>  (140) 
-0.492329

>  <r_i_glide_ligand_efficiency_sa>  (140) 
-0.984658

>  <r_i_glide_ligand_efficiency_ln>  (140) 
-1.27901

>  <r_i_glide_gscore>  (140) 
-3.93863

>  <r_i_glide_lipo>  (140) 
-0.119671

>  <r_i_glide_hbond>  (140) 
0

>  <r_i_glide_metal>  (140) 
-0

>  <r_i_glide_rewards>  (140) 
-2.25

>  <r_i_glide_evdw>  (140) 
-14.4317

>  <r_i_glide_ecoul>  (140) 
-3.53676

>  <r_i_glide_erotb>  (140) 
0

>  <r_i_glide_esite>  (140) 
-0.316862

>  <r_i_glide_emodel>  (140) 
-23.6521

>  <r_i_glide_energy>  (140) 
-17.9685

>  <r_i_glide_einternal>  (140) 
0

>  <r_i_glide_intrahb_reward>  (140) 
-0

>  <i_i_glide_confnum>  (140) 
2

>  <i_i_glide_posenum>  (140) 
15

>  <r_i_glide_eff_state_penalty>  (140) 
0

>  <ligand_id>  (140) 
45

>  <original_smiles>  (140) 
c1cc2nnnn2s1

>  <smiles>  (140) 
[H]c1sn2nnnc2c1[H]

$$$$
45:0:1
     RDKit          3D

 10 11  0  0  1  0  0  0  0  0999 V2000
    2.0730   -9.8984    2.5432 C   0  0  0  0  0  0  0  0  0  0  0  0
    1.9592   -8.5219    2.0427 C   0  0  0  0  0  0  0  0  0  0  0  0
    0.5871   -8.2228    2.3203 C   0  0  0  0  0  0  0  0  0  0  0  0
   -0.0470   -7.1318    2.0800 N   0  0  0  0  0  0  0  0  0  0  0  0
   -1.3318   -7.4422    2.5681 N   0  0  0  0  0  0  0  0  0  0  0  0
   -1.4219   -8.6563    3.0610 N   0  0  0  0  0  0  0  0  0  0  0  0
   -0.1914   -9.1449    2.9018 N   0  0  0  0  0  0  0  0  0  0  0  0
    0.5651  -10.5838    3.2653 S   0  0  0  0  0  0  0  0  0  0  0  0
    2.9620  -10.5217    2.5086 H   0  0  0  0  0  0  0  0  0  0  0  0
    2.7240   -7.9006    1.5726 H   0  0  0  0  0  0  0  0  0  0  0  0
  1  8  1  0
  1  2  2  0
  1  9  1  0
  2  3  1  0
  2 10  1  0
  3  7  1  0
  3  4  2  0
  4  5  1  0
  5  6  2  0
  6  7  1  0
  7  8  1  0
M  END
>  <i_m_ct_stereo_status>  (141) 
1

>  <s_m_source_file>  (141) 
/var/tmp/pbs.5076255.sched01/tmp7c02qu8j/38qwqhi24o.sdf

>  <i_m_source_file_index>  (141) 
24

>  <i_lp_mmshare_version>  (141) 
48012

>  <i_f3d_flags>  (141) 
0

>  <s_epik_input>  (141) 
W2NIXTFbY0hdc24oYzEyKW5ubjI=

>  <s_epik_cmdline>  (141) 
J2VwaWtfcHl0aG9uJywgJy1waHQnLCAnMi4wJywgJy1waCcsICc3LjAnLCAnLXRuJywgJzgnLCAnLW1hJywgJzIwMCcsICctaW1hZScsICc8aW5maWxlLm1hZT4nLCAnLW9tYWUnLCAnPG91dGZpbGUubWFlPic=

>  <r_lp_tautomer_probability>  (141) 
1

>  <r_epik_Ionization_Penalty>  (141) 
2.66075e-08

>  <r_epik_Ionization_Penalty_Charging>  (141) 
0

>  <r_epik_Ionization_Penalty_Neutral>  (141) 
2.66075e-08

>  <r_epik_State_Penalty>  (141) 
-0

>  <r_epik_Charging_Adjusted_Penalty>  (141) 
0

>  <i_epik_Tot_Q>  (141) 
0

>  <i_epik_Tot_abs_Q>  (141) 
0

>  <s_lp_Force_Field>  (141) 
OPLS3e

>  <r_lp_Energy>  (141) 
1.55971

>  <b_lp_Chiralities_Consistent>  (141) 
1

>  <s_lp_Variant>  (141) 
45:0-1

>  <s_i_glide_gridfile>  (141) 
pfpi4k_grid

>  <i_i_glide_lignum>  (141) 
24

>  <i_i_glide_rotatable_bonds>  (141) 
0

>  <r_i_docking_score>  (141) 
-3.85589

>  <r_i_glide_ligand_efficiency>  (141) 
-0.481987

>  <r_i_glide_ligand_efficiency_sa>  (141) 
-0.963974

>  <r_i_glide_ligand_efficiency_ln>  (141) 
-1.25214

>  <r_i_glide_gscore>  (141) 
-3.85589

>  <r_i_glide_lipo>  (141) 
-0.104268

>  <r_i_glide_hbond>  (141) 
0

>  <r_i_glide_metal>  (141) 
-0

>  <r_i_glide_rewards>  (141) 
-2.25

>  <r_i_glide_evdw>  (141) 
-16.3281

>  <r_i_glide_ecoul>  (141) 
-2.68124

>  <r_i_glide_erotb>  (141) 
0

>  <r_i_glide_esite>  (141) 
-0.283034

>  <r_i_glide_emodel>  (141) 
-24.572

>  <r_i_glide_energy>  (141) 
-19.0093

>  <r_i_glide_einternal>  (141) 
0

>  <r_i_glide_intrahb_reward>  (141) 
-0

>  <i_i_glide_confnum>  (141) 
1

>  <i_i_glide_posenum>  (141) 
20

>  <r_i_glide_eff_state_penalty>  (141) 
0

>  <ligand_id>  (141) 
45

>  <original_smiles>  (141) 
c1cc2nnnn2s1

>  <smiles>  (141) 
[H]c1sn2nnnc2c1[H]

$$$$
45:0:2
     RDKit          3D

 10 11  0  0  1  0  0  0  0  0999 V2000
    2.2178  -10.1136    2.5053 C   0  0  0  0  0  0  0  0  0  0  0  0
    2.5896   -8.9259    1.7263 C   0  0  0  0  0  0  0  0  0  0  0  0
    1.3996   -8.1340    1.8209 C   0  0  0  0  0  0  0  0  0  0  0  0
    1.1724   -6.9835    1.2989 N   0  0  0  0  0  0  0  0  0  0  0  0
   -0.1490   -6.7336    1.7181 N   0  0  0  0  0  0  0  0  0  0  0  0
   -0.6513   -7.7000    2.4531 N   0  0  0  0  0  0  0  0  0  0  0  0
    0.3412   -8.5925    2.5061 N   0  0  0  0  0  0  0  0  0  0  0  0
    0.5395  -10.0922    3.1951 S   0  0  0  0  0  0  0  0  0  0  0  0
    2.8552  -10.9790    2.6719 H   0  0  0  0  0  0  0  0  0  0  0  0
    3.5296   -8.7163    1.2085 H   0  0  0  0  0  0  0  0  0  0  0  0
  1  8  1  0
  1  2  2  0
  1  9  1  0
  2  3  1  0
  2 10  1  0
  3  7  1  0
  3  4  2  0
  4  5  1  0
  5  6  2  0
  6  7  1  0
  7  8  1  0
M  END
>  <i_m_ct_stereo_status>  (142) 
1

>  <s_m_source_file>  (142) 
/var/tmp/pbs.5076255.sched01/tmp7c02qu8j/38qwqhi24o.sdf

>  <i_m_source_file_index>  (142) 
24

>  <i_lp_mmshare_version>  (142) 
48012

>  <i_f3d_flags>  (142) 
0

>  <s_epik_input>  (142) 
W2NIXTFbY0hdc24oYzEyKW5ubjI=

>  <s_epik_cmdline>  (142) 
J2VwaWtfcHl0aG9uJywgJy1waHQnLCAnMi4wJywgJy1waCcsICc3LjAnLCAnLXRuJywgJzgnLCAnLW1hJywgJzIwMCcsICctaW1hZScsICc8aW5maWxlLm1hZT4nLCAnLW9tYWUnLCAnPG91dGZpbGUubWFlPic=

>  <r_lp_tautomer_probability>  (142) 
1

>  <r_epik_Ionization_Penalty>  (142) 
2.66075e-08

>  <r_epik_Ionization_Penalty_Charging>  (142) 
0

>  <r_epik_Ionization_Penalty_Neutral>  (142) 
2.66075e-08

>  <r_epik_State_Penalty>  (142) 
-0

>  <r_epik_Charging_Adjusted_Penalty>  (142) 
0

>  <i_epik_Tot_Q>  (142) 
0

>  <i_epik_Tot_abs_Q>  (142) 
0

>  <s_lp_Force_Field>  (142) 
OPLS3e

>  <r_lp_Energy>  (142) 
1.55971

>  <b_lp_Chiralities_Consistent>  (142) 
1

>  <s_lp_Variant>  (142) 
45:0-1

>  <s_i_glide_gridfile>  (142) 
pfpi4k_grid

>  <i_i_glide_lignum>  (142) 
24

>  <i_i_glide_rotatable_bonds>  (142) 
0

>  <r_i_docking_score>  (142) 
-3.78471

>  <r_i_glide_ligand_efficiency>  (142) 
-0.473089

>  <r_i_glide_ligand_efficiency_sa>  (142) 
-0.946177

>  <r_i_glide_ligand_efficiency_ln>  (142) 
-1.22902

>  <r_i_glide_gscore>  (142) 
-3.78471

>  <r_i_glide_lipo>  (142) 
-0.052918

>  <r_i_glide_hbond>  (142) 
0

>  <r_i_glide_metal>  (142) 
-0

>  <r_i_glide_rewards>  (142) 
-2.25

>  <r_i_glide_evdw>  (142) 
-15.0021

>  <r_i_glide_ecoul>  (142) 
-2.84566

>  <r_i_glide_erotb>  (142) 
0

>  <r_i_glide_esite>  (142) 
-0.304836

>  <r_i_glide_emodel>  (142) 
-23.3082

>  <r_i_glide_energy>  (142) 
-17.8478

>  <r_i_glide_einternal>  (142) 
0

>  <r_i_glide_intrahb_reward>  (142) 
-0

>  <i_i_glide_confnum>  (142) 
1

>  <i_i_glide_posenum>  (142) 
22

>  <r_i_glide_eff_state_penalty>  (142) 
0

>  <ligand_id>  (142) 
45

>  <original_smiles>  (142) 
c1cc2nnnn2s1

>  <smiles>  (142) 
[H]c1sn2nnnc2c1[H]

$$$$
46:0:0
     RDKit          3D

 32 34  0  0  1  0  0  0  0  0999 V2000
   -6.2716   -6.8449   -5.4960 C   0  0  0  0  0  0  0  0  0  0  0  0
   -6.2601   -7.9842   -6.5323 C   0  0  2  0  0  0  0  0  0  0  0  0
   -7.1061   -7.6403   -7.7446 C   0  0  0  0  0  0  0  0  0  0  0  0
   -7.9587   -8.5011   -8.3298 C   0  0  0  0  0  0  0  0  0  0  0  0
   -8.1606   -9.9218   -7.8462 C   0  0  1  0  0  0  0  0  0  0  0  0
   -8.5477  -10.8383   -9.0117 C   0  0  0  0  0  0  0  0  0  0  0  0
   -9.6961  -10.7607   -9.4513 O   0  0  0  0  0  0  0  0  0  0  0  0
   -7.5322  -11.7816   -9.5719 C   0  0  0  0  0  0  0  0  0  0  0  0
   -7.9063  -12.6505  -10.6209 C   0  0  0  0  0  0  0  0  0  0  0  0
   -6.9496  -13.5267  -11.1731 C   0  0  0  0  0  0  0  0  0  0  0  0
   -5.6389  -13.5000  -10.6630 C   0  0  0  0  0  0  0  0  0  0  0  0
   -5.2515  -12.6792   -9.6662 N   0  0  0  0  0  0  0  0  0  0  0  0
   -6.1821  -11.8603   -9.1430 C   0  0  0  0  0  0  0  0  0  0  0  0
   -5.5236  -10.8234   -7.8937 S   0  0  0  0  0  0  0  0  0  0  0  0
   -7.0102  -10.4322   -6.9490 C   0  0  2  0  0  0  0  0  0  0  0  0
   -7.4435  -11.7292   -6.2638 C   0  0  0  0  0  0  0  0  0  0  0  0
   -6.6883   -9.3304   -5.9146 C   0  0  0  0  0  0  0  0  0  0  0  0
   -5.8675   -5.9252   -5.9195 H   0  0  0  0  0  0  0  0  0  0  0  0
   -5.6667   -7.0931   -4.6235 H   0  0  0  0  0  0  0  0  0  0  0  0
   -7.2820   -6.6268   -5.1462 H   0  0  0  0  0  0  0  0  0  0  0  0
   -5.2374   -8.0913   -6.8941 H   0  0  0  0  0  0  0  0  0  0  0  0
   -6.9995   -6.6346   -8.1287 H   0  0  0  0  0  0  0  0  0  0  0  0
   -8.5543   -8.1926   -9.1783 H   0  0  0  0  0  0  0  0  0  0  0  0
   -9.0508   -9.8667   -7.2296 H   0  0  0  0  0  0  0  0  0  0  0  0
   -8.9117  -12.6440  -11.0194 H   0  0  0  0  0  0  0  0  0  0  0  0
   -7.2056  -14.2150  -11.9614 H   0  0  0  0  0  0  0  0  0  0  0  0
   -4.8678  -14.1472  -11.0535 H   0  0  0  0  0  0  0  0  0  0  0  0
   -8.3242  -11.5472   -5.6448 H   0  0  0  0  0  0  0  0  0  0  0  0
   -6.6305  -12.0689   -5.6137 H   0  0  0  0  0  0  0  0  0  0  0  0
   -7.6654  -12.5532   -6.9351 H   0  0  0  0  0  0  0  0  0  0  0  0
   -5.9349   -9.6618   -5.1959 H   0  0  0  0  0  0  0  0  0  0  0  0
   -7.6021   -9.1798   -5.3486 H   0  0  0  0  0  0  0  0  0  0  0  0
  1  2  1  0
  1 18  1  0
  1 19  1  0
  1 20  1  0
  2 17  1  0
  2  3  1  0
  2 21  1  6
  3  4  2  0
  3 22  1  0
  4  5  1  0
  4 23  1  0
  5 15  1  0
  5  6  1  0
  5 24  1  1
  6  7  2  0
  6  8  1  0
  8 13  2  0
  8  9  1  0
  9 10  2  0
  9 25  1  0
 10 11  1  0
 10 26  1  0
 11 12  2  0
 11 27  1  0
 12 13  1  0
 13 14  1  0
 14 15  1  0
 15 16  1  1
 15 17  1  0
 16 28  1  0
 16 29  1  0
 16 30  1  0
 17 31  1  0
 17 32  1  0
M  END
>  <i_m_ct_stereo_status>  (143) 
1

>  <s_m_source_file>  (143) 
/var/tmp/pbs.5076255.sched01/tmp7c02qu8j/38qwqhi24o.sdf

>  <i_m_source_file_index>  (143) 
25

>  <i_lp_mmshare_version>  (143) 
48012

>  <i_f3d_flags>  (143) 
0

>  <s_epik_input>  (143) 
W0NIM11bQ0BASF0oW0NIMl0xKVtDSF09W0NIXVtDQEhdKFtDQF0xMltDSDNdKUMoPU8pYzNjKFMyKW5bY0hdW2NIXVtjSF0z

>  <s_epik_cmdline>  (143) 
J2VwaWtfcHl0aG9uJywgJy1waHQnLCAnMi4wJywgJy1waCcsICc3LjAnLCAnLXRuJywgJzgnLCAnLW1hJywgJzIwMCcsICctaW1hZScsICc8aW5maWxlLm1hZT4nLCAnLW9tYWUnLCAnPG91dGZpbGUubWFlPic=

>  <r_epik_Ionization_Penalty>  (143) 
0.000666985

>  <r_epik_Ionization_Penalty_Charging>  (143) 
0

>  <r_epik_Ionization_Penalty_Neutral>  (143) 
0.000666985

>  <r_epik_State_Penalty>  (143) 
0.000423088

>  <r_epik_Charging_Adjusted_Penalty>  (143) 
0.000423088

>  <i_epik_Tot_Q>  (143) 
0

>  <i_epik_Tot_abs_Q>  (143) 
0

>  <s_lp_Force_Field>  (143) 
OPLS3e

>  <r_lp_Energy>  (143) 
19.1575

>  <b_lp_Chiralities_Consistent>  (143) 
1

>  <s_lp_Variant>  (143) 
46:0-1

>  <s_i_glide_gridfile>  (143) 
pfpi4k_grid

>  <i_i_glide_lignum>  (143) 
25

>  <i_i_glide_rotatable_bonds>  (143) 
0

>  <r_i_docking_score>  (143) 
-4.71438

>  <r_i_glide_ligand_efficiency>  (143) 
-0.277317

>  <r_i_glide_ligand_efficiency_sa>  (143) 
-0.713059

>  <r_i_glide_ligand_efficiency_ln>  (143) 
-1.22988

>  <r_i_glide_gscore>  (143) 
-4.71438

>  <r_i_glide_lipo>  (143) 
-1.52116

>  <r_i_glide_hbond>  (143) 
0

>  <r_i_glide_metal>  (143) 
-0

>  <r_i_glide_rewards>  (143) 
-2.09496

>  <r_i_glide_evdw>  (143) 
-16.3288

>  <r_i_glide_ecoul>  (143) 
-1.87881

>  <r_i_glide_erotb>  (143) 
0

>  <r_i_glide_esite>  (143) 
0

>  <r_i_glide_emodel>  (143) 
-24.5834

>  <r_i_glide_energy>  (143) 
-18.2076

>  <r_i_glide_einternal>  (143) 
0

>  <r_i_glide_intrahb_reward>  (143) 
-0

>  <i_i_glide_confnum>  (143) 
1

>  <i_i_glide_posenum>  (143) 
16

>  <r_i_glide_eff_state_penalty>  (143) 
0

>  <ligand_id>  (143) 
46

>  <original_smiles>  (143) 
CC1C=CC2C(=O)c3cccnc3SC2(C)C1

>  <smiles>  (143) 
[H]C1=C([H])C([H])(C([H])([H])[H])C([H])([H])C2(C([H])([H])[H])Sc3nc([H])c([H])c([H])c3C(=O)C12[H]

$$$$
46:0:1
     RDKit          3D

 32 34  0  0  1  0  0  0  0  0999 V2000
    3.2354    0.4663   -5.0318 C   0  0  0  0  0  0  0  0  0  0  0  0
    3.3144   -0.5420   -3.8640 C   0  0  2  0  0  0  0  0  0  0  0  0
    4.2411   -0.0783   -2.7796 C   0  0  0  0  0  0  0  0  0  0  0  0
    5.0794   -0.8374   -2.0837 C   0  0  0  0  0  0  0  0  0  0  0  0
    5.3397   -2.2793   -2.4052 C   0  0  1  0  0  0  0  0  0  0  0  0
    5.8421   -2.9903   -1.1512 C   0  0  0  0  0  0  0  0  0  0  0  0
    7.0177   -2.8159   -0.8338 O   0  0  0  0  0  0  0  0  0  0  0  0
    4.8874   -3.7993   -0.3455 C   0  0  0  0  0  0  0  0  0  0  0  0
    5.3709   -4.5190    0.7612 C   0  0  0  0  0  0  0  0  0  0  0  0
    4.4738   -5.3221    1.4968 C   0  0  0  0  0  0  0  0  0  0  0  0
    3.1238   -5.3580    1.1062 C   0  0  0  0  0  0  0  0  0  0  0  0
    2.6267   -4.6310    0.0844 N   0  0  0  0  0  0  0  0  0  0  0  0
    3.4998   -3.8820   -0.6325 C   0  0  0  0  0  0  0  0  0  0  0  0
    2.7768   -3.0730   -2.0245 S   0  0  0  0  0  0  0  0  0  0  0  0
    4.1643   -2.8828   -3.1756 C   0  0  2  0  0  0  0  0  0  0  0  0
    4.5817   -4.2255   -3.8175 C   0  0  0  0  0  0  0  0  0  0  0  0
    3.7607   -1.9296   -4.3161 C   0  0  0  0  0  0  0  0  0  0  0  0
    2.8392    1.4319   -4.7204 H   0  0  0  0  0  0  0  0  0  0  0  0
    2.5726    0.1080   -5.8204 H   0  0  0  0  0  0  0  0  0  0  0  0
    4.2147    0.6560   -5.4759 H   0  0  0  0  0  0  0  0  0  0  0  0
    2.3349   -0.5904   -3.3922 H   0  0  0  0  0  0  0  0  0  0  0  0
    4.2248    0.9584   -2.5986 H   0  0  0  0  0  0  0  0  0  0  0  0
    5.7170   -0.3942   -1.3288 H   0  0  0  0  0  0  0  0  0  0  0  0
    6.1975   -2.2896   -3.0751 H   0  0  0  0  0  0  0  0  0  0  0  0
    6.4104   -4.4743    1.0502 H   0  0  0  0  0  0  0  0  0  0  0  0
    4.8120   -5.9017    2.3480 H   0  0  0  0  0  0  0  0  0  0  0  0
    2.4090   -5.9822    1.6181 H   0  0  0  0  0  0  0  0  0  0  0  0
    5.3995   -4.1299   -4.5261 H   0  0  0  0  0  0  0  0  0  0  0  0
    3.7202   -4.6351   -4.3415 H   0  0  0  0  0  0  0  0  0  0  0  0
    4.8799   -4.9265   -3.0437 H   0  0  0  0  0  0  0  0  0  0  0  0
    3.0065   -2.4178   -4.8926 H   0  0  0  0  0  0  0  0  0  0  0  0
    4.5886   -1.7612   -4.9820 H   0  0  0  0  0  0  0  0  0  0  0  0
  1  2  1  0
  1 18  1  0
  1 19  1  0
  1 20  1  0
  2 17  1  0
  2  3  1  0
  2 21  1  1
  3  4  2  0
  3 22  1  0
  4  5  1  0
  4 23  1  0
  5 15  1  0
  5  6  1  0
  5 24  1  6
  6  7  2  0
  6  8  1  0
  8 13  2  0
  8  9  1  0
  9 10  2  0
  9 25  1  0
 10 11  1  0
 10 26  1  0
 11 12  2  0
 11 27  1  0
 12 13  1  0
 13 14  1  0
 14 15  1  0
 15 16  1  6
 15 17  1  0
 16 28  1  0
 16 29  1  0
 16 30  1  0
 17 31  1  0
 17 32  1  0
M  END
>  <i_m_ct_stereo_status>  (144) 
1

>  <s_m_source_file>  (144) 
/var/tmp/pbs.5076255.sched01/tmp7c02qu8j/38qwqhi24o.sdf

>  <i_m_source_file_index>  (144) 
25

>  <i_lp_mmshare_version>  (144) 
48012

>  <i_f3d_flags>  (144) 
0

>  <s_epik_input>  (144) 
W0NIM11bQ0BASF0oW0NIMl0xKVtDSF09W0NIXVtDQEhdKFtDQF0xMltDSDNdKUMoPU8pYzNjKFMyKW5bY0hdW2NIXVtjSF0z

>  <s_epik_cmdline>  (144) 
J2VwaWtfcHl0aG9uJywgJy1waHQnLCAnMi4wJywgJy1waCcsICc3LjAnLCAnLXRuJywgJzgnLCAnLW1hJywgJzIwMCcsICctaW1hZScsICc8aW5maWxlLm1hZT4nLCAnLW9tYWUnLCAnPG91dGZpbGUubWFlPic=

>  <r_epik_Ionization_Penalty>  (144) 
0.000666985

>  <r_epik_Ionization_Penalty_Charging>  (144) 
0

>  <r_epik_Ionization_Penalty_Neutral>  (144) 
0.000666985

>  <r_epik_State_Penalty>  (144) 
0.000423088

>  <r_epik_Charging_Adjusted_Penalty>  (144) 
0.000423088

>  <i_epik_Tot_Q>  (144) 
0

>  <i_epik_Tot_abs_Q>  (144) 
0

>  <s_lp_Force_Field>  (144) 
OPLS3e

>  <r_lp_Energy>  (144) 
19.1575

>  <b_lp_Chiralities_Consistent>  (144) 
1

>  <s_lp_Variant>  (144) 
46:0-1

>  <s_i_glide_gridfile>  (144) 
pfpi4k_grid

>  <i_i_glide_lignum>  (144) 
25

>  <i_i_glide_rotatable_bonds>  (144) 
0

>  <r_i_docking_score>  (144) 
-3.41096

>  <r_i_glide_ligand_efficiency>  (144) 
-0.200645

>  <r_i_glide_ligand_efficiency_sa>  (144) 
-0.515914

>  <r_i_glide_ligand_efficiency_ln>  (144) 
-0.889844

>  <r_i_glide_gscore>  (144) 
-3.41096

>  <r_i_glide_lipo>  (144) 
-0.7777

>  <r_i_glide_hbond>  (144) 
0

>  <r_i_glide_metal>  (144) 
-0

>  <r_i_glide_rewards>  (144) 
-1.7885

>  <r_i_glide_evdw>  (144) 
-18.7888

>  <r_i_glide_ecoul>  (144) 
0.631218

>  <r_i_glide_erotb>  (144) 
0

>  <r_i_glide_esite>  (144) 
0

>  <r_i_glide_emodel>  (144) 
-22.562

>  <r_i_glide_energy>  (144) 
-18.1576

>  <r_i_glide_einternal>  (144) 
0

>  <r_i_glide_intrahb_reward>  (144) 
-0

>  <i_i_glide_confnum>  (144) 
1

>  <i_i_glide_posenum>  (144) 
17

>  <r_i_glide_eff_state_penalty>  (144) 
0

>  <ligand_id>  (144) 
46

>  <original_smiles>  (144) 
CC1C=CC2C(=O)c3cccnc3SC2(C)C1

>  <smiles>  (144) 
[H]C1=C([H])C([H])(C([H])([H])[H])C([H])([H])C2(C([H])([H])[H])Sc3nc([H])c([H])c([H])c3C(=O)C12[H]

$$$$
46:0:2
     RDKit          3D

 32 34  0  0  1  0  0  0  0  0999 V2000
    4.0679   -2.6012   -3.8096 C   0  0  0  0  0  0  0  0  0  0  0  0
    3.7628   -2.7905   -2.3220 C   0  0  2  0  0  0  0  0  0  0  0  0
    3.6683   -1.4541   -1.6137 C   0  0  0  0  0  0  0  0  0  0  0  0
    4.2276   -1.2045   -0.4160 C   0  0  0  0  0  0  0  0  0  0  0  0
    4.9910   -2.2479    0.3865 C   0  0  1  0  0  0  0  0  0  0  0  0
    4.8222   -1.9795    1.8939 C   0  0  0  0  0  0  0  0  0  0  0  0
    5.4910   -1.0719    2.3904 O   0  0  0  0  0  0  0  0  0  0  0  0
    3.8800   -2.8108    2.7026 C   0  0  0  0  0  0  0  0  0  0  0  0
    3.7936   -2.6006    4.0989 C   0  0  0  0  0  0  0  0  0  0  0  0
    2.9239   -3.3961    4.8703 C   0  0  0  0  0  0  0  0  0  0  0  0
    2.1575   -4.3796    4.2158 C   0  0  0  0  0  0  0  0  0  0  0  0
    2.2029   -4.5847    2.8858 N   0  0  0  0  0  0  0  0  0  0  0  0
    3.0476   -3.8200    2.1587 C   0  0  0  0  0  0  0  0  0  0  0  0
    3.0452   -4.2180    0.4479 S   0  0  0  0  0  0  0  0  0  0  0  0
    4.7025   -3.6985   -0.0916 C   0  0  2  0  0  0  0  0  0  0  0  0
    5.7207   -4.7072    0.4831 C   0  0  0  0  0  0  0  0  0  0  0  0
    4.7952   -3.7116   -1.6369 C   0  0  0  0  0  0  0  0  0  0  0  0
    3.2905   -2.0146   -4.3021 H   0  0  0  0  0  0  0  0  0  0  0  0
    4.1290   -3.5619   -4.3228 H   0  0  0  0  0  0  0  0  0  0  0  0
    5.0135   -2.0812   -3.9335 H   0  0  0  0  0  0  0  0  0  0  0  0
    2.7767   -3.2495   -2.2480 H   0  0  0  0  0  0  0  0  0  0  0  0
    3.1071   -0.6805   -2.1206 H   0  0  0  0  0  0  0  0  0  0  0  0
    4.1328   -0.2194    0.0238 H   0  0  0  0  0  0  0  0  0  0  0  0
    6.0398   -2.0419    0.1835 H   0  0  0  0  0  0  0  0  0  0  0  0
    4.3921   -1.8460    4.5900 H   0  0  0  0  0  0  0  0  0  0  0  0
    2.8423   -3.2620    5.9415 H   0  0  0  0  0  0  0  0  0  0  0  0
    1.4861   -5.0208    4.7734 H   0  0  0  0  0  0  0  0  0  0  0  0
    6.7431   -4.4782    0.1835 H   0  0  0  0  0  0  0  0  0  0  0  0
    5.4893   -5.7153    0.1319 H   0  0  0  0  0  0  0  0  0  0  0  0
    5.6935   -4.7432    1.5731 H   0  0  0  0  0  0  0  0  0  0  0  0
    4.6868   -4.7258   -2.0162 H   0  0  0  0  0  0  0  0  0  0  0  0
    5.8002   -3.3924   -1.9238 H   0  0  0  0  0  0  0  0  0  0  0  0
  1  2  1  0
  1 18  1  0
  1 19  1  0
  1 20  1  0
  2 17  1  0
  2  3  1  0
  2 21  1  6
  3  4  2  0
  3 22  1  0
  4  5  1  0
  4 23  1  0
  5 15  1  0
  5  6  1  0
  5 24  1  6
  6  7  2  0
  6  8  1  0
  8 13  2  0
  8  9  1  0
  9 10  2  0
  9 25  1  0
 10 11  1  0
 10 26  1  0
 11 12  2  0
 11 27  1  0
 12 13  1  0
 13 14  1  0
 14 15  1  0
 15 16  1  1
 15 17  1  0
 16 28  1  0
 16 29  1  0
 16 30  1  0
 17 31  1  0
 17 32  1  0
M  END
>  <i_m_ct_stereo_status>  (145) 
1

>  <s_m_source_file>  (145) 
/var/tmp/pbs.5076255.sched01/tmp7c02qu8j/38qwqhi24o.sdf

>  <i_m_source_file_index>  (145) 
25

>  <i_lp_mmshare_version>  (145) 
48012

>  <i_f3d_flags>  (145) 
0

>  <s_epik_input>  (145) 
W0NIM11bQ0BASF0oW0NIMl0xKVtDSF09W0NIXVtDQEhdKFtDQF0xMltDSDNdKUMoPU8pYzNjKFMyKW5bY0hdW2NIXVtjSF0z

>  <s_epik_cmdline>  (145) 
J2VwaWtfcHl0aG9uJywgJy1waHQnLCAnMi4wJywgJy1waCcsICc3LjAnLCAnLXRuJywgJzgnLCAnLW1hJywgJzIwMCcsICctaW1hZScsICc8aW5maWxlLm1hZT4nLCAnLW9tYWUnLCAnPG91dGZpbGUubWFlPic=

>  <r_epik_Ionization_Penalty>  (145) 
0.000666985

>  <r_epik_Ionization_Penalty_Charging>  (145) 
0

>  <r_epik_Ionization_Penalty_Neutral>  (145) 
0.000666985

>  <r_epik_State_Penalty>  (145) 
0.000423088

>  <r_epik_Charging_Adjusted_Penalty>  (145) 
0.000423088

>  <i_epik_Tot_Q>  (145) 
0

>  <i_epik_Tot_abs_Q>  (145) 
0

>  <s_lp_Force_Field>  (145) 
OPLS3e

>  <r_lp_Energy>  (145) 
19.1575

>  <b_lp_Chiralities_Consistent>  (145) 
1

>  <s_lp_Variant>  (145) 
46:0-1

>  <s_i_glide_gridfile>  (145) 
pfpi4k_grid

>  <i_i_glide_lignum>  (145) 
25

>  <i_i_glide_rotatable_bonds>  (145) 
0

>  <r_i_docking_score>  (145) 
-3.09136

>  <r_i_glide_ligand_efficiency>  (145) 
-0.181844

>  <r_i_glide_ligand_efficiency_sa>  (145) 
-0.467573

>  <r_i_glide_ligand_efficiency_ln>  (145) 
-0.806466

>  <r_i_glide_gscore>  (145) 
-3.09136

>  <r_i_glide_lipo>  (145) 
-0.252466

>  <r_i_glide_hbond>  (145) 
0

>  <r_i_glide_metal>  (145) 
-0

>  <r_i_glide_rewards>  (145) 
-1.80146

>  <r_i_glide_evdw>  (145) 
-21.2629

>  <r_i_glide_ecoul>  (145) 
0.171458

>  <r_i_glide_erotb>  (145) 
0

>  <r_i_glide_esite>  (145) 
0

>  <r_i_glide_emodel>  (145) 
-25.2351

>  <r_i_glide_energy>  (145) 
-21.0915

>  <r_i_glide_einternal>  (145) 
0

>  <r_i_glide_intrahb_reward>  (145) 
-0

>  <i_i_glide_confnum>  (145) 
1

>  <i_i_glide_posenum>  (145) 
1

>  <r_i_glide_eff_state_penalty>  (145) 
0

>  <ligand_id>  (145) 
46

>  <original_smiles>  (145) 
CC1C=CC2C(=O)c3cccnc3SC2(C)C1

>  <smiles>  (145) 
[H]C1=C([H])C([H])(C([H])([H])[H])C([H])([H])C2(C([H])([H])[H])Sc3nc([H])c([H])c([H])c3C(=O)C12[H]

$$$$
47:0:0
     RDKit          3D

 51 54  0  0  1  0  0  0  0  0999 V2000
    4.6373   -0.5444    1.8157 C   0  0  0  0  0  0  0  0  0  0  0  0
    5.6151   -1.4704    1.0675 C   0  0  0  0  0  0  0  0  0  0  0  0
    5.0702   -2.0792   -0.2522 C   0  0  2  0  0  0  0  0  0  0  0  0
    4.8444   -0.9870   -1.3261 C   0  0  0  0  0  0  0  0  0  0  0  0
    4.2830   -1.5438   -2.5664 N   0  0  2  0  0  0  0  0  0  0  0  0
    3.9896   -0.5831   -3.6358 C   0  0  0  0  0  0  0  0  0  0  0  0
    2.9841   -1.2829   -4.5310 C   0  0  0  0  0  0  0  0  0  0  0  0
    2.5253   -2.5363   -3.7607 C   0  0  0  0  0  0  0  0  0  0  0  0
    3.0347   -2.2546   -2.3482 C   0  0  1  0  0  0  0  0  0  0  0  0
    3.2052   -3.4485   -1.3836 C   0  0  2  0  0  0  0  0  0  0  0  0
    1.8559   -4.1292   -1.1107 C   0  0  0  0  0  0  0  0  0  0  0  0
    1.9842   -5.2311   -0.0400 C   0  0  0  0  0  0  0  0  0  0  0  0
    2.6343   -4.7053    1.2512 C   0  0  1  0  0  0  0  0  0  0  0  0
    2.7529   -5.8104    2.3253 C   0  0  0  0  0  0  0  0  0  0  0  0
    3.8578   -6.8276    2.0060 C   0  0  0  0  0  0  0  0  0  0  0  0
    5.1758   -6.0840    1.7804 C   0  0  0  0  0  0  0  0  0  0  0  0
    5.0394   -5.0208    0.6786 C   0  0  0  0  0  0  0  0  0  0  0  0
    3.9418   -4.0526    0.9537 N   0  0  1  0  0  0  0  0  0  0  0  0
    3.7902   -2.9440   -0.0352 C   0  0  1  0  0  0  0  0  0  0  0  0
    5.0987   -0.1140    2.7049 H   0  0  0  0  0  0  0  0  0  0  0  0
    3.7498   -1.0807    2.1546 H   0  0  0  0  0  0  0  0  0  0  0  0
    4.2966    0.2917    1.2031 H   0  0  0  0  0  0  0  0  0  0  0  0
    6.5352   -0.9185    0.8600 H   0  0  0  0  0  0  0  0  0  0  0  0
    5.9257   -2.2598    1.7518 H   0  0  0  0  0  0  0  0  0  0  0  0
    5.8417   -2.7226   -0.6641 H   0  0  0  0  0  0  0  0  0  0  0  0
    4.1531   -0.2369   -0.9567 H   0  0  0  0  0  0  0  0  0  0  0  0
    5.7629   -0.4804   -1.5714 H   0  0  0  0  0  0  0  0  0  0  0  0
    3.5646    0.3405   -3.2429 H   0  0  0  0  0  0  0  0  0  0  0  0
    4.8627   -0.3557   -4.2186 H   0  0  0  0  0  0  0  0  0  0  0  0
    2.1546   -0.6163   -4.7665 H   0  0  0  0  0  0  0  0  0  0  0  0
    3.4521   -1.5363   -5.4691 H   0  0  0  0  0  0  0  0  0  0  0  0
    1.4402   -2.6696   -3.7879 H   0  0  0  0  0  0  0  0  0  0  0  0
    2.9846   -3.4494   -4.1623 H   0  0  0  0  0  0  0  0  0  0  0  0
    2.3483   -1.5250   -1.9375 H   0  0  0  0  0  0  0  0  0  0  0  0
    3.8868   -4.1637   -1.8424 H   0  0  0  0  0  0  0  0  0  0  0  0
    1.1733   -3.3453   -0.7875 H   0  0  0  0  0  0  0  0  0  0  0  0
    1.4165   -4.5340   -2.0262 H   0  0  0  0  0  0  0  0  0  0  0  0
    1.0152   -5.6879    0.1614 H   0  0  0  0  0  0  0  0  0  0  0  0
    2.6075   -6.0409   -0.3990 H   0  0  0  0  0  0  0  0  0  0  0  0
    1.9898   -3.9300    1.6622 H   0  0  0  0  0  0  0  0  0  0  0  0
    2.9649   -5.3564    3.2934 H   0  0  0  0  0  0  0  0  0  0  0  0
    1.8007   -6.3323    2.4327 H   0  0  0  0  0  0  0  0  0  0  0  0
    3.9533   -7.5477    2.8226 H   0  0  0  0  0  0  0  0  0  0  0  0
    3.6001   -7.4140    1.1209 H   0  0  0  0  0  0  0  0  0  0  0  0
    5.4947   -5.6323    2.7217 H   0  0  0  0  0  0  0  0  0  0  0  0
    5.9497   -6.8061    1.5091 H   0  0  0  0  0  0  0  0  0  0  0  0
    5.9846   -4.4925    0.6248 H   0  0  0  0  0  0  0  0  0  0  0  0
    4.8902   -5.5115   -0.2836 H   0  0  0  0  0  0  0  0  0  0  0  0
    3.0268   -2.2889    0.3785 H   0  0  0  0  0  0  0  0  0  0  0  0
    4.2040   -3.6115    1.8230 H   0  0  0  0  0  0  0  0  0  0  0  0
    4.9363   -2.2179   -2.9376 H   0  0  0  0  0  0  0  0  0  0  0  0
  1  2  1  0
  1 20  1  0
  1 21  1  0
  1 22  1  0
  2  3  1  0
  2 23  1  0
  2 24  1  0
  3 19  1  0
  3  4  1  0
  3 25  1  6
  4  5  1  0
  4 26  1  0
  4 27  1  0
  5  9  1  0
  5  6  1  0
  5 51  1  6
  6  7  1  0
  6 28  1  0
  6 29  1  0
  7  8  1  0
  7 30  1  0
  7 31  1  0
  8  9  1  0
  8 32  1  0
  8 33  1  0
  9 10  1  0
  9 34  1  1
 10 19  1  0
 10 11  1  0
 10 35  1  6
 11 12  1  0
 11 36  1  0
 11 37  1  0
 12 13  1  0
 12 38  1  0
 12 39  1  0
 13 18  1  0
 13 14  1  0
 13 40  1  1
 14 15  1  0
 14 41  1  0
 14 42  1  0
 15 16  1  0
 15 43  1  0
 15 44  1  0
 16 17  1  0
 16 45  1  0
 16 46  1  0
 17 18  1  0
 17 47  1  0
 17 48  1  0
 18 19  1  0
 18 50  1  1
 19 49  1  1
M  CHG  2   5   1  18   1
M  END
>  <i_m_ct_stereo_status>  (146) 
1

>  <s_m_source_file>  (146) 
/var/tmp/pbs.5076255.sched01/tmp7c02qu8j/38qwqhi24o.sdf

>  <i_m_source_file_index>  (146) 
26

>  <i_lp_mmshare_version>  (146) 
48012

>  <i_f3d_flags>  (146) 
0

>  <s_epik_input>  (146) 
W0NIMl0xW0NIMl1bQ0gyXVtDQEhdKE4xMilbQ0BIXTNbQ0BIXShbQ0BASF0oW0NIMl0yKVtDSDJdW0NIM10pTjRbQ0BASF0oW0NIMl1bQ0gyXTMpW0NIMl1bQ0gyXVtDSDJdW0NIMl00

>  <s_epik_cmdline>  (146) 
J2VwaWtfcHl0aG9uJywgJy1waHQnLCAnMi4wJywgJy1waCcsICc3LjAnLCAnLXRuJywgJzgnLCAnLW1hJywgJzIwMCcsICctaW1hZScsICc8aW5maWxlLm1hZT4nLCAnLW9tYWUnLCAnPG91dGZpbGUubWFlPic=

>  <r_epik_Ionization_Penalty>  (146) 
0.0171231

>  <r_epik_Ionization_Penalty_Charging>  (146) 
0.0171231

>  <r_epik_Ionization_Penalty_Neutral>  (146) 
0

>  <r_epik_State_Penalty>  (146) 
0.0128477

>  <r_epik_Charging_Adjusted_Penalty>  (146) 
0.0299709

>  <i_epik_Tot_Q>  (146) 
2

>  <i_epik_Tot_abs_Q>  (146) 
2

>  <s_lp_Force_Field>  (146) 
OPLS3e

>  <r_lp_Energy>  (146) 
41.3765

>  <b_lp_Chiralities_Consistent>  (146) 
1

>  <s_lp_Variant>  (146) 
47:0-1

>  <s_i_glide_gridfile>  (146) 
pfpi4k_grid

>  <i_i_glide_lignum>  (146) 
26

>  <i_i_glide_rotatable_bonds>  (146) 
1

>  <r_i_docking_score>  (146) 
-3.7788

>  <r_i_glide_ligand_efficiency>  (146) 
-0.198884

>  <r_i_glide_ligand_efficiency_sa>  (146) 
-0.530702

>  <r_i_glide_ligand_efficiency_ln>  (146) 
-0.958006

>  <r_i_glide_gscore>  (146) 
-3.7788

>  <r_i_glide_lipo>  (146) 
-0.948822

>  <r_i_glide_hbond>  (146) 
0

>  <r_i_glide_metal>  (146) 
-0

>  <r_i_glide_rewards>  (146) 
-1.60603

>  <r_i_glide_evdw>  (146) 
-13.2896

>  <r_i_glide_ecoul>  (146) 
-3.54467

>  <r_i_glide_erotb>  (146) 
0

>  <r_i_glide_esite>  (146) 
-0.0277639

>  <r_i_glide_emodel>  (146) 
-18.5315

>  <r_i_glide_energy>  (146) 
-16.8343

>  <r_i_glide_einternal>  (146) 
1.57636

>  <r_i_glide_intrahb_reward>  (146) 
-0

>  <i_i_glide_confnum>  (146) 
1

>  <i_i_glide_posenum>  (146) 
32

>  <r_i_glide_eff_state_penalty>  (146) 
0

>  <ligand_id>  (146) 
47

>  <original_smiles>  (146) 
CCC1CN2CCCC2C2CCC3CCCCN3C12

>  <smiles>  (146) 
[H]C([H])([H])C([H])([H])C1([H])C([H])([H])[N+]2([H])C([H])([H])C([H])([H])C([H])([H])C2([H])C2([H])C([H])([H])C([H])([H])C3([H])C([H])([H])C([H])([H])C([H])([H])C([H])([H])[N+]3([H])C12[H]

$$$$
47:1:0
     RDKit          3D

 50 53  0  0  1  0  0  0  0  0999 V2000
    6.7582   -5.2731    0.9539 C   0  0  0  0  0  0  0  0  0  0  0  0
    5.2828   -5.4592    0.5356 C   0  0  0  0  0  0  0  0  0  0  0  0
    4.6559   -4.2767   -0.2470 C   0  0  2  0  0  0  0  0  0  0  0  0
    5.1933   -4.1980   -1.7008 C   0  0  0  0  0  0  0  0  0  0  0  0
    4.6922   -3.0850   -2.4717 N   0  0  0  0  0  0  0  0  0  0  0  0
    3.3463   -3.2334   -2.9794 C   0  0  0  0  0  0  0  0  0  0  0  0
    2.9117   -1.8106   -3.2967 C   0  0  0  0  0  0  0  0  0  0  0  0
    4.0409   -0.9128   -2.8089 C   0  0  0  0  0  0  0  0  0  0  0  0
    4.8384   -1.7873   -1.8389 C   0  0  1  0  0  0  0  0  0  0  0  0
    4.2965   -1.7577   -0.3772 C   0  0  2  0  0  0  0  0  0  0  0  0
    4.6632   -0.4239    0.3132 C   0  0  0  0  0  0  0  0  0  0  0  0
    4.1948   -0.4097    1.7734 C   0  0  0  0  0  0  0  0  0  0  0  0
    4.7751   -1.6038    2.5485 C   0  0  1  0  0  0  0  0  0  0  0  0
    4.3878   -1.5896    4.0443 C   0  0  0  0  0  0  0  0  0  0  0  0
    2.9171   -1.9602    4.2614 C   0  0  0  0  0  0  0  0  0  0  0  0
    2.6344   -3.3104    3.5998 C   0  0  0  0  0  0  0  0  0  0  0  0
    3.0025   -3.2857    2.1044 C   0  0  0  0  0  0  0  0  0  0  0  0
    4.4182   -2.8888    1.8815 N   0  0  1  0  0  0  0  0  0  0  0  0
    4.8755   -2.9134    0.4572 C   0  0  1  0  0  0  0  0  0  0  0  0
    7.1447   -6.1598    1.4560 H   0  0  0  0  0  0  0  0  0  0  0  0
    6.8826   -4.4480    1.6566 H   0  0  0  0  0  0  0  0  0  0  0  0
    7.4036   -5.0730    0.0991 H   0  0  0  0  0  0  0  0  0  0  0  0
    5.1848   -6.3712   -0.0549 H   0  0  0  0  0  0  0  0  0  0  0  0
    4.7084   -5.6607    1.4389 H   0  0  0  0  0  0  0  0  0  0  0  0
    3.5855   -4.4606   -0.3333 H   0  0  0  0  0  0  0  0  0  0  0  0
    6.2739   -4.0820   -1.6798 H   0  0  0  0  0  0  0  0  0  0  0  0
    5.0024   -5.1277   -2.2412 H   0  0  0  0  0  0  0  0  0  0  0  0
    3.3344   -3.8782   -3.8619 H   0  0  0  0  0  0  0  0  0  0  0  0
    2.6816   -3.6572   -2.2237 H   0  0  0  0  0  0  0  0  0  0  0  0
    2.7086   -1.6481   -4.3539 H   0  0  0  0  0  0  0  0  0  0  0  0
    2.0184   -1.6169   -2.7132 H   0  0  0  0  0  0  0  0  0  0  0  0
    4.6491   -0.6104   -3.6652 H   0  0  0  0  0  0  0  0  0  0  0  0
    3.6743   -0.0051   -2.3404 H   0  0  0  0  0  0  0  0  0  0  0  0
    5.8989   -1.5168   -1.8569 H   0  0  0  0  0  0  0  0  0  0  0  0
    3.2075   -1.8514   -0.4090 H   0  0  0  0  0  0  0  0  0  0  0  0
    5.7505   -0.2691    0.2774 H   0  0  0  0  0  0  0  0  0  0  0  0
    4.2164    0.4077   -0.1987 H   0  0  0  0  0  0  0  0  0  0  0  0
    4.4954    0.5258    2.2459 H   0  0  0  0  0  0  0  0  0  0  0  0
    3.1027   -0.4259    1.7876 H   0  0  0  0  0  0  0  0  0  0  0  0
    5.8637   -1.5263    2.5064 H   0  0  0  0  0  0  0  0  0  0  0  0
    5.0167   -2.2874    4.5937 H   0  0  0  0  0  0  0  0  0  0  0  0
    4.5834   -0.6018    4.4658 H   0  0  0  0  0  0  0  0  0  0  0  0
    2.6942   -2.0026    5.3298 H   0  0  0  0  0  0  0  0  0  0  0  0
    2.2637   -1.1930    3.8427 H   0  0  0  0  0  0  0  0  0  0  0  0
    3.1857   -4.0926    4.1230 H   0  0  0  0  0  0  0  0  0  0  0  0
    1.5758   -3.5495    3.7093 H   0  0  0  0  0  0  0  0  0  0  0  0
    2.8377   -4.2895    1.7182 H   0  0  0  0  0  0  0  0  0  0  0  0
    2.3288   -2.6209    1.5643 H   0  0  0  0  0  0  0  0  0  0  0  0
    5.9524   -2.7309    0.4885 H   0  0  0  0  0  0  0  0  0  0  0  0
    4.9662   -3.5881    2.3497 H   0  0  0  0  0  0  0  0  0  0  0  0
  1  2  1  0
  1 20  1  0
  1 21  1  0
  1 22  1  0
  2  3  1  0
  2 23  1  0
  2 24  1  0
  3 19  1  0
  3  4  1  0
  3 25  1  6
  4  5  1  0
  4 26  1  0
  4 27  1  0
  5  9  1  0
  5  6  1  0
  6  7  1  0
  6 28  1  0
  6 29  1  0
  7  8  1  0
  7 30  1  0
  7 31  1  0
  8  9  1  0
  8 32  1  0
  8 33  1  0
  9 10  1  0
  9 34  1  1
 10 19  1  0
 10 11  1  0
 10 35  1  6
 11 12  1  0
 11 36  1  0
 11 37  1  0
 12 13  1  0
 12 38  1  0
 12 39  1  0
 13 18  1  0
 13 14  1  0
 13 40  1  1
 14 15  1  0
 14 41  1  0
 14 42  1  0
 15 16  1  0
 15 43  1  0
 15 44  1  0
 16 17  1  0
 16 45  1  0
 16 46  1  0
 17 18  1  0
 17 47  1  0
 17 48  1  0
 18 19  1  0
 18 50  1  1
 19 49  1  1
M  CHG  1  18   1
M  END
>  <i_m_ct_stereo_status>  (147) 
1

>  <s_m_source_file>  (147) 
/var/tmp/pbs.5076255.sched01/tmp7c02qu8j/38qwqhi24o.sdf

>  <i_m_source_file_index>  (147) 
27

>  <i_lp_mmshare_version>  (147) 
48012

>  <i_f3d_flags>  (147) 
0

>  <s_epik_input>  (147) 
W0NIMl0xW0NIMl1bQ0gyXVtDQEhdKE4xMilbQ0BIXTNbQ0BIXShbQ0BASF0oW0NIMl0yKVtDSDJdW0NIM10pTjRbQ0BASF0oW0NIMl1bQ0gyXTMpW0NIMl1bQ0gyXVtDSDJdW0NIMl00

>  <s_epik_cmdline>  (147) 
J2VwaWtfcHl0aG9uJywgJy1waHQnLCAnMi4wJywgJy1waCcsICc3LjAnLCAnLXRuJywgJzgnLCAnLW1hJywgJzIwMCcsICctaW1hZScsICc8aW5maWxlLm1hZT4nLCAnLW9tYWUnLCAnPG91dGZpbGUubWFlPic=

>  <r_epik_Ionization_Penalty>  (147) 
2.48704

>  <r_epik_Ionization_Penalty_Charging>  (147) 
5.89495e-05

>  <r_epik_Ionization_Penalty_Neutral>  (147) 
2.48698

>  <r_epik_State_Penalty>  (147) 
2.65708

>  <r_epik_Charging_Adjusted_Penalty>  (147) 
2.65714

>  <i_epik_Tot_Q>  (147) 
1

>  <i_epik_Tot_abs_Q>  (147) 
1

>  <s_lp_Force_Field>  (147) 
OPLS3e

>  <r_lp_Energy>  (147) 
25.3898

>  <b_lp_Chiralities_Consistent>  (147) 
1

>  <s_lp_Variant>  (147) 
47:0-2

>  <s_i_glide_gridfile>  (147) 
pfpi4k_grid

>  <i_i_glide_lignum>  (147) 
27

>  <i_i_glide_rotatable_bonds>  (147) 
1

>  <r_i_docking_score>  (147) 
-3.57456

>  <r_i_glide_ligand_efficiency>  (147) 
-0.188135

>  <r_i_glide_ligand_efficiency_sa>  (147) 
-0.502019

>  <r_i_glide_ligand_efficiency_ln>  (147) 
-0.906228

>  <r_i_glide_gscore>  (147) 
-3.57456

>  <r_i_glide_lipo>  (147) 
-0.684385

>  <r_i_glide_hbond>  (147) 
0

>  <r_i_glide_metal>  (147) 
-0

>  <r_i_glide_rewards>  (147) 
-1.6129

>  <r_i_glide_evdw>  (147) 
-16.3202

>  <r_i_glide_ecoul>  (147) 
-3.07513

>  <r_i_glide_erotb>  (147) 
0

>  <r_i_glide_esite>  (147) 
0

>  <r_i_glide_emodel>  (147) 
-22.3949

>  <r_i_glide_energy>  (147) 
-19.3953

>  <r_i_glide_einternal>  (147) 
1.70271

>  <r_i_glide_intrahb_reward>  (147) 
-0

>  <i_i_glide_confnum>  (147) 
1

>  <i_i_glide_posenum>  (147) 
29

>  <r_i_glide_eff_state_penalty>  (147) 
0

>  <ligand_id>  (147) 
47

>  <original_smiles>  (147) 
CCC1CN2CCCC2C2CCC3CCCCN3C12

>  <smiles>  (147) 
[H]C([H])([H])C([H])([H])C1([H])C([H])([H])N2C([H])([H])C([H])([H])C([H])([H])C2([H])C2([H])C([H])([H])C([H])([H])C3([H])C([H])([H])C([H])([H])C([H])([H])C([H])([H])[N+]3([H])C12[H]

$$$$
47:1:1
     RDKit          3D

 50 53  0  0  1  0  0  0  0  0999 V2000
    4.2940   -6.7576    0.5279 C   0  0  0  0  0  0  0  0  0  0  0  0
    4.8625   -5.3931    0.9265 C   0  0  0  0  0  0  0  0  0  0  0  0
    4.3905   -4.2264    0.0176 C   0  0  2  0  0  0  0  0  0  0  0  0
    5.1378   -4.2382   -1.3427 C   0  0  0  0  0  0  0  0  0  0  0  0
    4.8003   -3.1310   -2.2208 N   0  0  0  0  0  0  0  0  0  0  0  0
    3.5190   -3.2257   -2.8997 C   0  0  0  0  0  0  0  0  0  0  0  0
    3.2009   -1.7936   -3.3341 C   0  0  0  0  0  0  0  0  0  0  0  0
    4.2924   -0.9352   -2.7135 C   0  0  0  0  0  0  0  0  0  0  0  0
    4.9288   -1.8099   -1.6266 C   0  0  1  0  0  0  0  0  0  0  0  0
    4.2215   -1.6982   -0.2467 C   0  0  2  0  0  0  0  0  0  0  0  0
    4.5626   -0.3548    0.4360 C   0  0  0  0  0  0  0  0  0  0  0  0
    3.8974   -0.2500    1.8102 C   0  0  0  0  0  0  0  0  0  0  0  0
    4.3102   -1.4271    2.7027 C   0  0  1  0  0  0  0  0  0  0  0  0
    3.7297   -1.3318    4.1300 C   0  0  0  0  0  0  0  0  0  0  0  0
    2.2274   -1.6210    4.1680 C   0  0  0  0  0  0  0  0  0  0  0  0
    1.9619   -2.9846    3.5277 C   0  0  0  0  0  0  0  0  0  0  0  0
    2.5240   -3.0458    2.0948 C   0  0  0  0  0  0  0  0  0  0  0  0
    3.9717   -2.7249    2.0436 N   0  0  1  0  0  0  0  0  0  0  0  0
    4.6229   -2.8529    0.6994 C   0  0  1  0  0  0  0  0  0  0  0  0
    4.5699   -7.5139    1.2660 H   0  0  0  0  0  0  0  0  0  0  0  0
    4.6527   -7.0868   -0.4458 H   0  0  0  0  0  0  0  0  0  0  0  0
    3.2057   -6.7228    0.4859 H   0  0  0  0  0  0  0  0  0  0  0  0
    4.5495   -5.2422    1.9586 H   0  0  0  0  0  0  0  0  0  0  0  0
    5.9532   -5.4379    0.9639 H   0  0  0  0  0  0  0  0  0  0  0  0
    3.3299   -4.3384   -0.2009 H   0  0  0  0  0  0  0  0  0  0  0  0
    6.2114   -4.1756   -1.1564 H   0  0  0  0  0  0  0  0  0  0  0  0
    4.9746   -5.1725   -1.8845 H   0  0  0  0  0  0  0  0  0  0  0  0
    3.5883   -3.9056   -3.7516 H   0  0  0  0  0  0  0  0  0  0  0  0
    2.7421   -3.5843   -2.2226 H   0  0  0  0  0  0  0  0  0  0  0  0
    3.1821   -1.6771   -4.4193 H   0  0  0  0  0  0  0  0  0  0  0  0
    2.2262   -1.5053   -2.9359 H   0  0  0  0  0  0  0  0  0  0  0  0
    5.0171   -0.6898   -3.4836 H   0  0  0  0  0  0  0  0  0  0  0  0
    3.9006    0.0051   -2.3345 H   0  0  0  0  0  0  0  0  0  0  0  0
    5.9936   -1.5931   -1.5231 H   0  0  0  0  0  0  0  0  0  0  0  0
    3.1438   -1.7484   -0.4146 H   0  0  0  0  0  0  0  0  0  0  0  0
    5.6475   -0.2443    0.5339 H   0  0  0  0  0  0  0  0  0  0  0  0
    4.2144    0.4758   -0.1651 H   0  0  0  0  0  0  0  0  0  0  0  0
    4.1847    0.6857    2.2876 H   0  0  0  0  0  0  0  0  0  0  0  0
    2.8139   -0.2130    1.6826 H   0  0  0  0  0  0  0  0  0  0  0  0
    5.3953   -1.4038    2.8022 H   0  0  0  0  0  0  0  0  0  0  0  0
    4.2445   -2.0318    4.7877 H   0  0  0  0  0  0  0  0  0  0  0  0
    3.9194   -0.3384    4.5376 H   0  0  0  0  0  0  0  0  0  0  0  0
    1.8650   -1.6065    5.1972 H   0  0  0  0  0  0  0  0  0  0  0  0
    1.6737   -0.8441    3.6376 H   0  0  0  0  0  0  0  0  0  0  0  0
    2.3954   -3.7704    4.1494 H   0  0  0  0  0  0  0  0  0  0  0  0
    0.8895   -3.1666    3.5015 H   0  0  0  0  0  0  0  0  0  0  0  0
    2.3665   -4.0616    1.7306 H   0  0  0  0  0  0  0  0  0  0  0  0
    1.9632   -2.3735    1.4409 H   0  0  0  0  0  0  0  0  0  0  0  0
    5.6963   -2.7729    0.8840 H   0  0  0  0  0  0  0  0  0  0  0  0
    4.4198   -3.4214    2.6170 H   0  0  0  0  0  0  0  0  0  0  0  0
  1  2  1  0
  1 20  1  0
  1 21  1  0
  1 22  1  0
  2  3  1  0
  2 23  1  0
  2 24  1  0
  3 19  1  0
  3  4  1  0
  3 25  1  6
  4  5  1  0
  4 26  1  0
  4 27  1  0
  5  9  1  0
  5  6  1  0
  6  7  1  0
  6 28  1  0
  6 29  1  0
  7  8  1  0
  7 30  1  0
  7 31  1  0
  8  9  1  0
  8 32  1  0
  8 33  1  0
  9 10  1  0
  9 34  1  1
 10 19  1  0
 10 11  1  0
 10 35  1  6
 11 12  1  0
 11 36  1  0
 11 37  1  0
 12 13  1  0
 12 38  1  0
 12 39  1  0
 13 18  1  0
 13 14  1  0
 13 40  1  1
 14 15  1  0
 14 41  1  0
 14 42  1  0
 15 16  1  0
 15 43  1  0
 15 44  1  0
 16 17  1  0
 16 45  1  0
 16 46  1  0
 17 18  1  0
 17 47  1  0
 17 48  1  0
 18 19  1  0
 18 50  1  1
 19 49  1  1
M  CHG  1  18   1
M  END
>  <i_m_ct_stereo_status>  (148) 
1

>  <s_m_source_file>  (148) 
/var/tmp/pbs.5076255.sched01/tmp7c02qu8j/38qwqhi24o.sdf

>  <i_m_source_file_index>  (148) 
27

>  <i_lp_mmshare_version>  (148) 
48012

>  <i_f3d_flags>  (148) 
0

>  <s_epik_input>  (148) 
W0NIMl0xW0NIMl1bQ0gyXVtDQEhdKE4xMilbQ0BIXTNbQ0BIXShbQ0BASF0oW0NIMl0yKVtDSDJdW0NIM10pTjRbQ0BASF0oW0NIMl1bQ0gyXTMpW0NIMl1bQ0gyXVtDSDJdW0NIMl00

>  <s_epik_cmdline>  (148) 
J2VwaWtfcHl0aG9uJywgJy1waHQnLCAnMi4wJywgJy1waCcsICc3LjAnLCAnLXRuJywgJzgnLCAnLW1hJywgJzIwMCcsICctaW1hZScsICc8aW5maWxlLm1hZT4nLCAnLW9tYWUnLCAnPG91dGZpbGUubWFlPic=

>  <r_epik_Ionization_Penalty>  (148) 
2.48704

>  <r_epik_Ionization_Penalty_Charging>  (148) 
5.89495e-05

>  <r_epik_Ionization_Penalty_Neutral>  (148) 
2.48698

>  <r_epik_State_Penalty>  (148) 
2.65708

>  <r_epik_Charging_Adjusted_Penalty>  (148) 
2.65714

>  <i_epik_Tot_Q>  (148) 
1

>  <i_epik_Tot_abs_Q>  (148) 
1

>  <s_lp_Force_Field>  (148) 
OPLS3e

>  <r_lp_Energy>  (148) 
25.3898

>  <b_lp_Chiralities_Consistent>  (148) 
1

>  <s_lp_Variant>  (148) 
47:0-2

>  <s_i_glide_gridfile>  (148) 
pfpi4k_grid

>  <i_i_glide_lignum>  (148) 
27

>  <i_i_glide_rotatable_bonds>  (148) 
1

>  <r_i_docking_score>  (148) 
-3.55282

>  <r_i_glide_ligand_efficiency>  (148) 
-0.186991

>  <r_i_glide_ligand_efficiency_sa>  (148) 
-0.498966

>  <r_i_glide_ligand_efficiency_ln>  (148) 
-0.900717

>  <r_i_glide_gscore>  (148) 
-3.55282

>  <r_i_glide_lipo>  (148) 
-0.598451

>  <r_i_glide_hbond>  (148) 
0

>  <r_i_glide_metal>  (148) 
-0

>  <r_i_glide_rewards>  (148) 
-1.6129

>  <r_i_glide_evdw>  (148) 
-17.5106

>  <r_i_glide_ecoul>  (148) 
-3.10627

>  <r_i_glide_erotb>  (148) 
0

>  <r_i_glide_esite>  (148) 
0

>  <r_i_glide_emodel>  (148) 
-24.3154

>  <r_i_glide_energy>  (148) 
-20.6169

>  <r_i_glide_einternal>  (148) 
0.375414

>  <r_i_glide_intrahb_reward>  (148) 
-0

>  <i_i_glide_confnum>  (148) 
1

>  <i_i_glide_posenum>  (148) 
37

>  <r_i_glide_eff_state_penalty>  (148) 
0

>  <ligand_id>  (148) 
47

>  <original_smiles>  (148) 
CCC1CN2CCCC2C2CCC3CCCCN3C12

>  <smiles>  (148) 
[H]C([H])([H])C([H])([H])C1([H])C([H])([H])N2C([H])([H])C([H])([H])C([H])([H])C2([H])C2([H])C([H])([H])C([H])([H])C3([H])C([H])([H])C([H])([H])C([H])([H])C([H])([H])[N+]3([H])C12[H]

$$$$
47:1:2
     RDKit          3D

 50 53  0  0  1  0  0  0  0  0999 V2000
    3.1185   -0.0211    2.1934 C   0  0  0  0  0  0  0  0  0  0  0  0
    2.2347   -1.2565    1.9314 C   0  0  0  0  0  0  0  0  0  0  0  0
    2.9448   -2.6255    2.0810 C   0  0  2  0  0  0  0  0  0  0  0  0
    3.3331   -2.8949    3.5480 C   0  0  0  0  0  0  0  0  0  0  0  0
    4.0441   -4.1527    3.7368 N   0  0  0  0  0  0  0  0  0  0  0  0
    3.2338   -5.3629    3.7393 C   0  0  0  0  0  0  0  0  0  0  0  0
    4.2312   -6.4897    3.4924 C   0  0  0  0  0  0  0  0  0  0  0  0
    5.5648   -5.8032    3.1943 C   0  0  0  0  0  0  0  0  0  0  0  0
    5.2019   -4.3522    2.8657 C   0  0  1  0  0  0  0  0  0  0  0  0
    4.8813   -4.1136    1.3698 C   0  0  2  0  0  0  0  0  0  0  0  0
    6.1712   -4.1438    0.5297 C   0  0  0  0  0  0  0  0  0  0  0  0
    5.8728   -3.8527   -0.9459 C   0  0  0  0  0  0  0  0  0  0  0  0
    5.1315   -2.5073   -1.1080 C   0  0  1  0  0  0  0  0  0  0  0  0
    4.8822   -2.1518   -2.5874 C   0  0  0  0  0  0  0  0  0  0  0  0
    3.7845   -3.0140   -3.2194 C   0  0  0  0  0  0  0  0  0  0  0  0
    2.5232   -2.9088   -2.3647 C   0  0  0  0  0  0  0  0  0  0  0  0
    2.7888   -3.2931   -0.9017 C   0  0  0  0  0  0  0  0  0  0  0  0
    3.8899   -2.4968   -0.2963 N   0  0  1  0  0  0  0  0  0  0  0  0
    4.1726   -2.7553    1.1525 C   0  0  1  0  0  0  0  0  0  0  0  0
    2.5434    0.8984    2.0913 H   0  0  0  0  0  0  0  0  0  0  0  0
    3.9432    0.0473    1.4824 H   0  0  0  0  0  0  0  0  0  0  0  0
    3.5431   -0.0285    3.1956 H   0  0  0  0  0  0  0  0  0  0  0  0
    1.3537   -1.2228    2.5779 H   0  0  0  0  0  0  0  0  0  0  0  0
    1.8359   -1.1625    0.9186 H   0  0  0  0  0  0  0  0  0  0  0  0
    2.2200   -3.3979    1.8098 H   0  0  0  0  0  0  0  0  0  0  0  0
    4.0010   -2.1222    3.9167 H   0  0  0  0  0  0  0  0  0  0  0  0
    2.4554   -2.8868    4.1920 H   0  0  0  0  0  0  0  0  0  0  0  0
    2.7328   -5.4634    4.6993 H   0  0  0  0  0  0  0  0  0  0  0  0
    2.4940   -5.3275    2.9493 H   0  0  0  0  0  0  0  0  0  0  0  0
    4.3265   -7.1607    4.3458 H   0  0  0  0  0  0  0  0  0  0  0  0
    3.9083   -7.0817    2.6361 H   0  0  0  0  0  0  0  0  0  0  0  0
    6.1990   -5.8399    4.0847 H   0  0  0  0  0  0  0  0  0  0  0  0
    6.1057   -6.3062    2.3920 H   0  0  0  0  0  0  0  0  0  0  0  0
    5.9823   -3.6712    3.1983 H   0  0  0  0  0  0  0  0  0  0  0  0
    4.2197   -4.9123    1.0326 H   0  0  0  0  0  0  0  0  0  0  0  0
    6.8864   -3.4060    0.9062 H   0  0  0  0  0  0  0  0  0  0  0  0
    6.6693   -5.1121    0.6046 H   0  0  0  0  0  0  0  0  0  0  0  0
    6.8032   -3.8263   -1.5094 H   0  0  0  0  0  0  0  0  0  0  0  0
    5.2807   -4.6705   -1.3586 H   0  0  0  0  0  0  0  0  0  0  0  0
    5.7797   -1.7295   -0.7055 H   0  0  0  0  0  0  0  0  0  0  0  0
    4.6026   -1.0989   -2.6745 H   0  0  0  0  0  0  0  0  0  0  0  0
    5.8044   -2.2787   -3.1460 H   0  0  0  0  0  0  0  0  0  0  0  0
    3.5770   -2.6859   -4.2407 H   0  0  0  0  0  0  0  0  0  0  0  0
    4.1081   -4.0529   -3.2902 H   0  0  0  0  0  0  0  0  0  0  0  0
    2.1454   -1.8860   -2.4309 H   0  0  0  0  0  0  0  0  0  0  0  0
    1.7516   -3.5555   -2.7776 H   0  0  0  0  0  0  0  0  0  0  0  0
    1.8695   -3.1298   -0.3523 H   0  0  0  0  0  0  0  0  0  0  0  0
    3.0205   -4.3559   -0.8340 H   0  0  0  0  0  0  0  0  0  0  0  0
    4.8906   -1.9992    1.4591 H   0  0  0  0  0  0  0  0  0  0  0  0
    3.5459   -1.5373   -0.3341 H   0  0  0  0  0  0  0  0  0  0  0  0
  1  2  1  0
  1 20  1  0
  1 21  1  0
  1 22  1  0
  2  3  1  0
  2 23  1  0
  2 24  1  0
  3 19  1  0
  3  4  1  0
  3 25  1  6
  4  5  1  0
  4 26  1  0
  4 27  1  0
  5  9  1  0
  5  6  1  0
  6  7  1  0
  6 28  1  0
  6 29  1  0
  7  8  1  0
  7 30  1  0
  7 31  1  0
  8  9  1  0
  8 32  1  0
  8 33  1  0
  9 10  1  0
  9 34  1  1
 10 19  1  0
 10 11  1  0
 10 35  1  6
 11 12  1  0
 11 36  1  0
 11 37  1  0
 12 13  1  0
 12 38  1  0
 12 39  1  0
 13 18  1  0
 13 14  1  0
 13 40  1  1
 14 15  1  0
 14 41  1  0
 14 42  1  0
 15 16  1  0
 15 43  1  0
 15 44  1  0
 16 17  1  0
 16 45  1  0
 16 46  1  0
 17 18  1  0
 17 47  1  0
 17 48  1  0
 18 19  1  0
 18 50  1  1
 19 49  1  1
M  CHG  1  18   1
M  END
>  <i_m_ct_stereo_status>  (149) 
1

>  <s_m_source_file>  (149) 
/var/tmp/pbs.5076255.sched01/tmp7c02qu8j/38qwqhi24o.sdf

>  <i_m_source_file_index>  (149) 
27

>  <i_lp_mmshare_version>  (149) 
48012

>  <i_f3d_flags>  (149) 
0

>  <s_epik_input>  (149) 
W0NIMl0xW0NIMl1bQ0gyXVtDQEhdKE4xMilbQ0BIXTNbQ0BIXShbQ0BASF0oW0NIMl0yKVtDSDJdW0NIM10pTjRbQ0BASF0oW0NIMl1bQ0gyXTMpW0NIMl1bQ0gyXVtDSDJdW0NIMl00

>  <s_epik_cmdline>  (149) 
J2VwaWtfcHl0aG9uJywgJy1waHQnLCAnMi4wJywgJy1waCcsICc3LjAnLCAnLXRuJywgJzgnLCAnLW1hJywgJzIwMCcsICctaW1hZScsICc8aW5maWxlLm1hZT4nLCAnLW9tYWUnLCAnPG91dGZpbGUubWFlPic=

>  <r_epik_Ionization_Penalty>  (149) 
2.48704

>  <r_epik_Ionization_Penalty_Charging>  (149) 
5.89495e-05

>  <r_epik_Ionization_Penalty_Neutral>  (149) 
2.48698

>  <r_epik_State_Penalty>  (149) 
2.65708

>  <r_epik_Charging_Adjusted_Penalty>  (149) 
2.65714

>  <i_epik_Tot_Q>  (149) 
1

>  <i_epik_Tot_abs_Q>  (149) 
1

>  <s_lp_Force_Field>  (149) 
OPLS3e

>  <r_lp_Energy>  (149) 
25.3898

>  <b_lp_Chiralities_Consistent>  (149) 
1

>  <s_lp_Variant>  (149) 
47:0-2

>  <s_i_glide_gridfile>  (149) 
pfpi4k_grid

>  <i_i_glide_lignum>  (149) 
27

>  <i_i_glide_rotatable_bonds>  (149) 
1

>  <r_i_docking_score>  (149) 
-3.25156

>  <r_i_glide_ligand_efficiency>  (149) 
-0.171135

>  <r_i_glide_ligand_efficiency_sa>  (149) 
-0.456656

>  <r_i_glide_ligand_efficiency_ln>  (149) 
-0.824341

>  <r_i_glide_gscore>  (149) 
-3.25156

>  <r_i_glide_lipo>  (149) 
-0.425941

>  <r_i_glide_hbond>  (149) 
0

>  <r_i_glide_metal>  (149) 
-0

>  <r_i_glide_rewards>  (149) 
-1.6129

>  <r_i_glide_evdw>  (149) 
-13.7775

>  <r_i_glide_ecoul>  (149) 
-3.33339

>  <r_i_glide_erotb>  (149) 
0

>  <r_i_glide_esite>  (149) 
-0.023836

>  <r_i_glide_emodel>  (149) 
-19.8619

>  <r_i_glide_energy>  (149) 
-17.1109

>  <r_i_glide_einternal>  (149) 
1.54318

>  <r_i_glide_intrahb_reward>  (149) 
-0

>  <i_i_glide_confnum>  (149) 
1

>  <i_i_glide_posenum>  (149) 
5

>  <r_i_glide_eff_state_penalty>  (149) 
0

>  <ligand_id>  (149) 
47

>  <original_smiles>  (149) 
CCC1CN2CCCC2C2CCC3CCCCN3C12

>  <smiles>  (149) 
[H]C([H])([H])C([H])([H])C1([H])C([H])([H])N2C([H])([H])C([H])([H])C([H])([H])C2([H])C2([H])C([H])([H])C([H])([H])C3([H])C([H])([H])C([H])([H])C([H])([H])C([H])([H])[N+]3([H])C12[H]

$$$$
47:2:0
     RDKit          3D

 50 53  0  0  1  0  0  0  0  0999 V2000
    3.9002   -5.8611    1.6893 C   0  0  0  0  0  0  0  0  0  0  0  0
    2.5554   -5.1102    1.4699 C   0  0  0  0  0  0  0  0  0  0  0  0
    2.7447   -3.7146    0.8048 C   0  0  2  0  0  0  0  0  0  0  0  0
    2.8397   -4.0081   -0.7293 C   0  0  0  0  0  0  0  0  0  0  0  0
    3.0606   -2.7872   -1.5347 N   0  0  2  0  0  0  0  0  0  0  0  0
    3.1876   -2.9686   -3.0018 C   0  0  0  0  0  0  0  0  0  0  0  0
    3.9269   -1.7026   -3.4884 C   0  0  0  0  0  0  0  0  0  0  0  0
    4.4475   -1.0326   -2.2097 C   0  0  0  0  0  0  0  0  0  0  0  0
    4.2666   -2.0899   -1.1148 C   0  0  1  0  0  0  0  0  0  0  0  0
    4.1655   -1.6211    0.3675 C   0  0  2  0  0  0  0  0  0  0  0  0
    5.4198   -0.8397    0.7754 C   0  0  0  0  0  0  0  0  0  0  0  0
    5.2901   -0.4122    2.2367 C   0  0  0  0  0  0  0  0  0  0  0  0
    5.0624   -1.6343    3.1599 C   0  0  1  0  0  0  0  0  0  0  0  0
    4.9880   -1.1318    4.6318 C   0  0  0  0  0  0  0  0  0  0  0  0
    4.8135   -2.2877    5.6279 C   0  0  0  0  0  0  0  0  0  0  0  0
    3.5586   -3.0360    5.2182 C   0  0  0  0  0  0  0  0  0  0  0  0
    3.6951   -3.4686    3.7658 C   0  0  0  0  0  0  0  0  0  0  0  0
    3.8583   -2.3905    2.7638 N   0  0  0  0  0  0  0  0  0  0  0  0
    3.9530   -2.8431    1.3461 C   0  0  1  0  0  0  0  0  0  0  0  0
    3.7377   -6.7768    2.2445 H   0  0  0  0  0  0  0  0  0  0  0  0
    4.6692   -5.3139    2.2358 H   0  0  0  0  0  0  0  0  0  0  0  0
    4.3659   -6.1188    0.7373 H   0  0  0  0  0  0  0  0  0  0  0  0
    1.9184   -5.7305    0.8362 H   0  0  0  0  0  0  0  0  0  0  0  0
    1.9490   -4.9993    2.3786 H   0  0  0  0  0  0  0  0  0  0  0  0
    1.8452   -3.1047    0.9443 H   0  0  0  0  0  0  0  0  0  0  0  0
    3.6680   -4.6909   -0.9249 H   0  0  0  0  0  0  0  0  0  0  0  0
    1.9290   -4.4948   -1.0822 H   0  0  0  0  0  0  0  0  0  0  0  0
    3.8087   -3.8447   -3.2299 H   0  0  0  0  0  0  0  0  0  0  0  0
    2.2305   -3.1043   -3.5093 H   0  0  0  0  0  0  0  0  0  0  0  0
    4.7473   -1.9563   -4.1586 H   0  0  0  0  0  0  0  0  0  0  0  0
    3.2605   -1.0299   -4.0332 H   0  0  0  0  0  0  0  0  0  0  0  0
    5.4616   -0.6711   -2.2985 H   0  0  0  0  0  0  0  0  0  0  0  0
    3.8098   -0.1828   -1.9913 H   0  0  0  0  0  0  0  0  0  0  0  0
    5.1115   -2.7892   -1.2087 H   0  0  0  0  0  0  0  0  0  0  0  0
    3.2968   -0.9502    0.4449 H   0  0  0  0  0  0  0  0  0  0  0  0
    6.3127   -1.4518    0.6495 H   0  0  0  0  0  0  0  0  0  0  0  0
    5.5589    0.0468    0.1444 H   0  0  0  0  0  0  0  0  0  0  0  0
    6.1953    0.1110    2.5393 H   0  0  0  0  0  0  0  0  0  0  0  0
    4.4621    0.3021    2.3367 H   0  0  0  0  0  0  0  0  0  0  0  0
    5.9302   -2.2834    3.0597 H   0  0  0  0  0  0  0  0  0  0  0  0
    5.8939   -0.5802    4.8984 H   0  0  0  0  0  0  0  0  0  0  0  0
    4.1406   -0.4375    4.7446 H   0  0  0  0  0  0  0  0  0  0  0  0
    5.6792   -2.9543    5.5762 H   0  0  0  0  0  0  0  0  0  0  0  0
    4.7240   -1.9364    6.6599 H   0  0  0  0  0  0  0  0  0  0  0  0
    3.4762   -3.9324    5.8219 H   0  0  0  0  0  0  0  0  0  0  0  0
    2.6507   -2.4477    5.3767 H   0  0  0  0  0  0  0  0  0  0  0  0
    4.5493   -4.1567    3.7605 H   0  0  0  0  0  0  0  0  0  0  0  0
    2.7405   -3.9719    3.6463 H   0  0  0  0  0  0  0  0  0  0  0  0
    4.8624   -3.4287    1.2332 H   0  0  0  0  0  0  0  0  0  0  0  0
    2.2635   -2.1597   -1.3896 H   0  0  0  0  0  0  0  0  0  0  0  0
  1  2  1  0
  1 20  1  0
  1 21  1  0
  1 22  1  0
  2  3  1  0
  2 23  1  0
  2 24  1  0
  3 19  1  0
  3  4  1  0
  3 25  1  6
  4  5  1  0
  4 26  1  0
  4 27  1  0
  5  9  1  0
  5  6  1  0
  5 50  1  6
  6  7  1  0
  6 28  1  0
  6 29  1  0
  7  8  1  0
  7 30  1  0
  7 31  1  0
  8  9  1  0
  8 32  1  0
  8 33  1  0
  9 10  1  0
  9 34  1  1
 10 19  1  0
 10 11  1  0
 10 35  1  6
 11 12  1  0
 11 36  1  0
 11 37  1  0
 12 13  1  0
 12 38  1  0
 12 39  1  0
 13 18  1  0
 13 14  1  0
 13 40  1  1
 14 15  1  0
 14 41  1  0
 14 42  1  0
 15 16  1  0
 15 43  1  0
 15 44  1  0
 16 17  1  0
 16 45  1  0
 16 46  1  0
 17 18  1  0
 17 47  1  0
 17 48  1  0
 18 19  1  0
 19 49  1  1
M  CHG  1   5   1
M  END
>  <i_m_ct_stereo_status>  (150) 
1

>  <s_m_source_file>  (150) 
/var/tmp/pbs.5076255.sched01/tmp7c02qu8j/38qwqhi24o.sdf

>  <i_m_source_file_index>  (150) 
28

>  <i_lp_mmshare_version>  (150) 
48012

>  <i_f3d_flags>  (150) 
0

>  <s_epik_input>  (150) 
W0NIMl0xW0NIMl1bQ0gyXVtDQEhdKE4xMilbQ0BIXTNbQ0BIXShbQ0BASF0oW0NIMl0yKVtDSDJdW0NIM10pTjRbQ0BASF0oW0NIMl1bQ0gyXTMpW0NIMl1bQ0gyXVtDSDJdW0NIMl00

>  <s_epik_cmdline>  (150) 
J2VwaWtfcHl0aG9uJywgJy1waHQnLCAnMi4wJywgJy1waCcsICc3LjAnLCAnLXRuJywgJzgnLCAnLW1hJywgJzIwMCcsICctaW1hZScsICc8aW5maWxlLm1hZT4nLCAnLW9tYWUnLCAnPG91dGZpbGUubWFlPic=

>  <r_epik_Ionization_Penalty>  (150) 
2.5439

>  <r_epik_Ionization_Penalty_Charging>  (150) 
0.000180882

>  <r_epik_Ionization_Penalty_Neutral>  (150) 
2.54372

>  <r_epik_State_Penalty>  (150) 
2.71851

>  <r_epik_Charging_Adjusted_Penalty>  (150) 
2.71869

>  <i_epik_Tot_Q>  (150) 
1

>  <i_epik_Tot_abs_Q>  (150) 
1

>  <s_lp_Force_Field>  (150) 
OPLS3e

>  <r_lp_Energy>  (150) 
29.0005

>  <b_lp_Chiralities_Consistent>  (150) 
1

>  <s_lp_Variant>  (150) 
47:0-3

>  <s_i_glide_gridfile>  (150) 
pfpi4k_grid

>  <i_i_glide_lignum>  (150) 
28

>  <i_i_glide_rotatable_bonds>  (150) 
1

>  <r_i_docking_score>  (150) 
-3.83275

>  <r_i_glide_ligand_efficiency>  (150) 
-0.201724

>  <r_i_glide_ligand_efficiency_sa>  (150) 
-0.53828

>  <r_i_glide_ligand_efficiency_ln>  (150) 
-0.971684

>  <r_i_glide_gscore>  (150) 
-3.83275

>  <r_i_glide_lipo>  (150) 
-0.617737

>  <r_i_glide_hbond>  (150) 
-0.2

>  <r_i_glide_metal>  (150) 
-0

>  <r_i_glide_rewards>  (150) 
-1.6129

>  <r_i_glide_evdw>  (150) 
-15.4958

>  <r_i_glide_ecoul>  (150) 
-4.02344

>  <r_i_glide_erotb>  (150) 
0

>  <r_i_glide_esite>  (150) 
-0.0238074

>  <r_i_glide_emodel>  (150) 
-23.6889

>  <r_i_glide_energy>  (150) 
-19.5193

>  <r_i_glide_einternal>  (150) 
0.0014378

>  <r_i_glide_intrahb_reward>  (150) 
-0

>  <i_i_glide_confnum>  (150) 
1

>  <i_i_glide_posenum>  (150) 
40

>  <r_i_glide_eff_state_penalty>  (150) 
0

>  <ligand_id>  (150) 
47

>  <original_smiles>  (150) 
CCC1CN2CCCC2C2CCC3CCCCN3C12

>  <smiles>  (150) 
[H]C([H])([H])C([H])([H])C1([H])C2([H])N3C([H])([H])C([H])([H])C([H])([H])C([H])([H])C3([H])C([H])([H])C([H])([H])C2([H])C2([H])C([H])([H])C([H])([H])C([H])([H])[N+]2([H])C1([H])[H]

$$$$
47:2:1
     RDKit          3D

 50 53  0  0  1  0  0  0  0  0999 V2000
    6.6925   -4.9804    1.4019 C   0  0  0  0  0  0  0  0  0  0  0  0
    5.4084   -5.7017    0.8321 C   0  0  0  0  0  0  0  0  0  0  0  0
    4.4175   -4.6814    0.1892 C   0  0  2  0  0  0  0  0  0  0  0  0
    4.9572   -4.4573   -1.2650 C   0  0  0  0  0  0  0  0  0  0  0  0
    4.1724   -3.4818   -2.0331 N   0  0  2  0  0  0  0  0  0  0  0  0
    4.5812   -3.2150   -3.4298 C   0  0  0  0  0  0  0  0  0  0  0  0
    3.9284   -1.8598   -3.7752 C   0  0  0  0  0  0  0  0  0  0  0  0
    3.4014   -1.3111   -2.4340 C   0  0  0  0  0  0  0  0  0  0  0  0
    4.0646   -2.2013   -1.3751 C   0  0  1  0  0  0  0  0  0  0  0  0
    3.3963   -2.3307    0.0251 C   0  0  2  0  0  0  0  0  0  0  0  0
    3.2938   -0.9529    0.6888 C   0  0  0  0  0  0  0  0  0  0  0  0
    2.6322   -1.1038    2.0588 C   0  0  0  0  0  0  0  0  0  0  0  0
    3.4205   -2.0970    2.9470 C   0  0  1  0  0  0  0  0  0  0  0  0
    2.7282   -2.1681    4.3418 C   0  0  0  0  0  0  0  0  0  0  0  0
    3.4756   -3.0919    5.3116 C   0  0  0  0  0  0  0  0  0  0  0  0
    3.5518   -4.4588    4.6462 C   0  0  0  0  0  0  0  0  0  0  0  0
    4.2160   -4.3011    3.2836 C   0  0  0  0  0  0  0  0  0  0  0  0
    3.5257   -3.4247    2.3094 N   0  0  0  0  0  0  0  0  0  0  0  0
    4.1770   -3.3189    0.9719 C   0  0  1  0  0  0  0  0  0  0  0  0
    7.3092   -5.7118    1.9335 H   0  0  0  0  0  0  0  0  0  0  0  0
    6.5288   -4.1686    2.0689 H   0  0  0  0  0  0  0  0  0  0  0  0
    7.2952   -4.5642    0.5808 H   0  0  0  0  0  0  0  0  0  0  0  0
    5.7160   -6.4228    0.0806 H   0  0  0  0  0  0  0  0  0  0  0  0
    4.8758   -6.3093    1.5716 H   0  0  0  0  0  0  0  0  0  0  0  0
    3.4341   -5.1500    0.0736 H   0  0  0  0  0  0  0  0  0  0  0  0
    5.9940   -4.1049   -1.2481 H   0  0  0  0  0  0  0  0  0  0  0  0
    4.9192   -5.4006   -1.8050 H   0  0  0  0  0  0  0  0  0  0  0  0
    5.6750   -3.1143   -3.4779 H   0  0  0  0  0  0  0  0  0  0  0  0
    4.2907   -4.0028   -4.1285 H   0  0  0  0  0  0  0  0  0  0  0  0
    4.6488   -1.1774   -4.2222 H   0  0  0  0  0  0  0  0  0  0  0  0
    3.1087   -1.9727   -4.4866 H   0  0  0  0  0  0  0  0  0  0  0  0
    3.6370   -0.2546   -2.3160 H   0  0  0  0  0  0  0  0  0  0  0  0
    2.3212   -1.4415   -2.3999 H   0  0  0  0  0  0  0  0  0  0  0  0
    5.0989   -1.8371   -1.2399 H   0  0  0  0  0  0  0  0  0  0  0  0
    2.3777   -2.7153   -0.1281 H   0  0  0  0  0  0  0  0  0  0  0  0
    4.2774   -0.4963    0.7966 H   0  0  0  0  0  0  0  0  0  0  0  0
    2.6954   -0.2670    0.0794 H   0  0  0  0  0  0  0  0  0  0  0  0
    2.5855   -0.1328    2.5347 H   0  0  0  0  0  0  0  0  0  0  0  0
    1.5967   -1.4424    1.9271 H   0  0  0  0  0  0  0  0  0  0  0  0
    4.4276   -1.6902    3.0815 H   0  0  0  0  0  0  0  0  0  0  0  0
    2.6742   -1.1801    4.7864 H   0  0  0  0  0  0  0  0  0  0  0  0
    1.6995   -2.5405    4.2216 H   0  0  0  0  0  0  0  0  0  0  0  0
    4.4856   -2.7124    5.4874 H   0  0  0  0  0  0  0  0  0  0  0  0
    2.9728   -3.1805    6.2822 H   0  0  0  0  0  0  0  0  0  0  0  0
    4.1869   -5.0964    5.2360 H   0  0  0  0  0  0  0  0  0  0  0  0
    2.5727   -4.9426    4.5620 H   0  0  0  0  0  0  0  0  0  0  0  0
    5.2223   -3.9334    3.5142 H   0  0  0  0  0  0  0  0  0  0  0  0
    4.1824   -5.3404    2.9580 H   0  0  0  0  0  0  0  0  0  0  0  0
    5.1485   -2.8373    1.1012 H   0  0  0  0  0  0  0  0  0  0  0  0
    3.2220   -3.8924   -2.1186 H   0  0  0  0  0  0  0  0  0  0  0  0
  1  2  1  0
  1 20  1  0
  1 21  1  0
  1 22  1  0
  2  3  1  0
  2 23  1  0
  2 24  1  0
  3 19  1  0
  3  4  1  0
  3 25  1  6
  4  5  1  0
  4 26  1  0
  4 27  1  0
  5  9  1  0
  5  6  1  0
  5 50  1  6
  6  7  1  0
  6 28  1  0
  6 29  1  0
  7  8  1  0
  7 30  1  0
  7 31  1  0
  8  9  1  0
  8 32  1  0
  8 33  1  0
  9 10  1  0
  9 34  1  1
 10 19  1  0
 10 11  1  0
 10 35  1  6
 11 12  1  0
 11 36  1  0
 11 37  1  0
 12 13  1  0
 12 38  1  0
 12 39  1  0
 13 18  1  0
 13 14  1  0
 13 40  1  1
 14 15  1  0
 14 41  1  0
 14 42  1  0
 15 16  1  0
 15 43  1  0
 15 44  1  0
 16 17  1  0
 16 45  1  0
 16 46  1  0
 17 18  1  0
 17 47  1  0
 17 48  1  0
 18 19  1  0
 19 49  1  1
M  CHG  1   5   1
M  END
>  <i_m_ct_stereo_status>  (151) 
1

>  <s_m_source_file>  (151) 
/var/tmp/pbs.5076255.sched01/tmp7c02qu8j/38qwqhi24o.sdf

>  <i_m_source_file_index>  (151) 
28

>  <i_lp_mmshare_version>  (151) 
48012

>  <i_f3d_flags>  (151) 
0

>  <s_epik_input>  (151) 
W0NIMl0xW0NIMl1bQ0gyXVtDQEhdKE4xMilbQ0BIXTNbQ0BIXShbQ0BASF0oW0NIMl0yKVtDSDJdW0NIM10pTjRbQ0BASF0oW0NIMl1bQ0gyXTMpW0NIMl1bQ0gyXVtDSDJdW0NIMl00

>  <s_epik_cmdline>  (151) 
J2VwaWtfcHl0aG9uJywgJy1waHQnLCAnMi4wJywgJy1waCcsICc3LjAnLCAnLXRuJywgJzgnLCAnLW1hJywgJzIwMCcsICctaW1hZScsICc8aW5maWxlLm1hZT4nLCAnLW9tYWUnLCAnPG91dGZpbGUubWFlPic=

>  <r_epik_Ionization_Penalty>  (151) 
2.5439

>  <r_epik_Ionization_Penalty_Charging>  (151) 
0.000180882

>  <r_epik_Ionization_Penalty_Neutral>  (151) 
2.54372

>  <r_epik_State_Penalty>  (151) 
2.71851

>  <r_epik_Charging_Adjusted_Penalty>  (151) 
2.71869

>  <i_epik_Tot_Q>  (151) 
1

>  <i_epik_Tot_abs_Q>  (151) 
1

>  <s_lp_Force_Field>  (151) 
OPLS3e

>  <r_lp_Energy>  (151) 
29.0005

>  <b_lp_Chiralities_Consistent>  (151) 
1

>  <s_lp_Variant>  (151) 
47:0-3

>  <s_i_glide_gridfile>  (151) 
pfpi4k_grid

>  <i_i_glide_lignum>  (151) 
28

>  <i_i_glide_rotatable_bonds>  (151) 
1

>  <r_i_docking_score>  (151) 
-3.38754

>  <r_i_glide_ligand_efficiency>  (151) 
-0.178292

>  <r_i_glide_ligand_efficiency_sa>  (151) 
-0.475754

>  <r_i_glide_ligand_efficiency_ln>  (151) 
-0.858815

>  <r_i_glide_gscore>  (151) 
-3.38754

>  <r_i_glide_lipo>  (151) 
-0.562535

>  <r_i_glide_hbond>  (151) 
0

>  <r_i_glide_metal>  (151) 
-0

>  <r_i_glide_rewards>  (151) 
-1.6129

>  <r_i_glide_evdw>  (151) 
-15.3198

>  <r_i_glide_ecoul>  (151) 
-2.77353

>  <r_i_glide_erotb>  (151) 
0

>  <r_i_glide_esite>  (151) 
-0.0300879

>  <r_i_glide_emodel>  (151) 
-21.857

>  <r_i_glide_energy>  (151) 
-18.0933

>  <r_i_glide_einternal>  (151) 
0.00226825

>  <r_i_glide_intrahb_reward>  (151) 
-0

>  <i_i_glide_confnum>  (151) 
1

>  <i_i_glide_posenum>  (151) 
1

>  <r_i_glide_eff_state_penalty>  (151) 
0

>  <ligand_id>  (151) 
47

>  <original_smiles>  (151) 
CCC1CN2CCCC2C2CCC3CCCCN3C12

>  <smiles>  (151) 
[H]C([H])([H])C([H])([H])C1([H])C2([H])N3C([H])([H])C([H])([H])C([H])([H])C([H])([H])C3([H])C([H])([H])C([H])([H])C2([H])C2([H])C([H])([H])C([H])([H])C([H])([H])[N+]2([H])C1([H])[H]

$$$$
47:2:2
     RDKit          3D

 50 53  0  0  1  0  0  0  0  0999 V2000
    6.1029   -5.9283    1.9329 C   0  0  0  0  0  0  0  0  0  0  0  0
    4.9131   -6.4100    1.0482 C   0  0  0  0  0  0  0  0  0  0  0  0
    4.0930   -5.2266    0.4576 C   0  0  2  0  0  0  0  0  0  0  0  0
    4.8908   -4.7873   -0.8156 C   0  0  0  0  0  0  0  0  0  0  0  0
    4.2735   -3.6405   -1.5070 N   0  0  2  0  0  0  0  0  0  0  0  0
    4.9427   -3.1449   -2.7377 C   0  0  0  0  0  0  0  0  0  0  0  0
    4.4204   -1.7067   -2.9135 C   0  0  0  0  0  0  0  0  0  0  0  0
    3.7006   -1.3783   -1.5964 C   0  0  0  0  0  0  0  0  0  0  0  0
    4.1269   -2.4913   -0.6315 C   0  0  1  0  0  0  0  0  0  0  0  0
    3.2075   -2.8101    0.5837 C   0  0  2  0  0  0  0  0  0  0  0  0
    3.0443   -1.5705    1.4670 C   0  0  0  0  0  0  0  0  0  0  0  0
    2.1577   -1.9227    2.6598 C   0  0  0  0  0  0  0  0  0  0  0  0
    2.7368   -3.1120    3.4627 C   0  0  1  0  0  0  0  0  0  0  0  0
    1.8096   -3.3849    4.6827 C   0  0  0  0  0  0  0  0  0  0  0  0
    2.3327   -4.5244    5.5678 C   0  0  0  0  0  0  0  0  0  0  0  0
    2.4602   -5.7433    4.6739 C   0  0  0  0  0  0  0  0  0  0  0  0
    3.3590   -5.3928    3.5013 C   0  0  0  0  0  0  0  0  0  0  0  0
    2.8909   -4.3138    2.6064 N   0  0  0  0  0  0  0  0  0  0  0  0
    3.7755   -4.0163    1.4363 C   0  0  1  0  0  0  0  0  0  0  0  0
    6.5757   -6.7712    2.4223 H   0  0  0  0  0  0  0  0  0  0  0  0
    5.8572   -5.2228    2.7352 H   0  0  0  0  0  0  0  0  0  0  0  0
    6.8551   -5.4091    1.3413 H   0  0  0  0  0  0  0  0  0  0  0  0
    5.3225   -7.0042    0.2214 H   0  0  0  0  0  0  0  0  0  0  0  0
    4.2316   -7.1214    1.5294 H   0  0  0  0  0  0  0  0  0  0  0  0
    3.1196   -5.5871    0.0926 H   0  0  0  0  0  0  0  0  0  0  0  0
    5.9171   -4.5088   -0.5605 H   0  0  0  0  0  0  0  0  0  0  0  0
    4.9665   -5.6085   -1.5279 H   0  0  0  0  0  0  0  0  0  0  0  0
    6.0304   -3.1161   -2.5867 H   0  0  0  0  0  0  0  0  0  0  0  0
    4.7429   -3.7689   -3.6116 H   0  0  0  0  0  0  0  0  0  0  0  0
    5.2220   -1.0036   -3.0788 H   0  0  0  0  0  0  0  0  0  0  0  0
    3.7308   -1.6208   -3.7584 H   0  0  0  0  0  0  0  0  0  0  0  0
    3.9657   -0.3925   -1.2257 H   0  0  0  0  0  0  0  0  0  0  0  0
    2.6455   -1.4152   -1.7829 H   0  0  0  0  0  0  0  0  0  0  0  0
    5.1287   -2.2358   -0.2651 H   0  0  0  0  0  0  0  0  0  0  0  0
    2.2173   -3.0887    0.1908 H   0  0  0  0  0  0  0  0  0  0  0  0
    4.0150   -1.2195    1.8179 H   0  0  0  0  0  0  0  0  0  0  0  0
    2.5996   -0.7421    0.9057 H   0  0  0  0  0  0  0  0  0  0  0  0
    2.0725   -1.0484    3.3029 H   0  0  0  0  0  0  0  0  0  0  0  0
    1.1440   -2.1529    2.3077 H   0  0  0  0  0  0  0  0  0  0  0  0
    3.7216   -2.8180    3.8289 H   0  0  0  0  0  0  0  0  0  0  0  0
    1.7213   -2.4883    5.2978 H   0  0  0  0  0  0  0  0  0  0  0  0
    0.8025   -3.6519    4.3273 H   0  0  0  0  0  0  0  0  0  0  0  0
    3.3135   -4.2580    5.9773 H   0  0  0  0  0  0  0  0  0  0  0  0
    1.6677   -4.7448    6.4130 H   0  0  0  0  0  0  0  0  0  0  0  0
    2.9614   -6.5263    5.2287 H   0  0  0  0  0  0  0  0  0  0  0  0
    1.4929   -6.1339    4.3441 H   0  0  0  0  0  0  0  0  0  0  0  0
    4.3150   -5.1354    3.9754 H   0  0  0  0  0  0  0  0  0  0  0  0
    3.3528   -6.3482    2.9876 H   0  0  0  0  0  0  0  0  0  0  0  0
    4.7227   -3.6351    1.8189 H   0  0  0  0  0  0  0  0  0  0  0  0
    3.3423   -3.9471   -1.8176 H   0  0  0  0  0  0  0  0  0  0  0  0
  1  2  1  0
  1 20  1  0
  1 21  1  0
  1 22  1  0
  2  3  1  0
  2 23  1  0
  2 24  1  0
  3 19  1  0
  3  4  1  0
  3 25  1  6
  4  5  1  0
  4 26  1  0
  4 27  1  0
  5  9  1  0
  5  6  1  0
  5 50  1  6
  6  7  1  0
  6 28  1  0
  6 29  1  0
  7  8  1  0
  7 30  1  0
  7 31  1  0
  8  9  1  0
  8 32  1  0
  8 33  1  0
  9 10  1  0
  9 34  1  1
 10 19  1  0
 10 11  1  0
 10 35  1  6
 11 12  1  0
 11 36  1  0
 11 37  1  0
 12 13  1  0
 12 38  1  0
 12 39  1  0
 13 18  1  0
 13 14  1  0
 13 40  1  1
 14 15  1  0
 14 41  1  0
 14 42  1  0
 15 16  1  0
 15 43  1  0
 15 44  1  0
 16 17  1  0
 16 45  1  0
 16 46  1  0
 17 18  1  0
 17 47  1  0
 17 48  1  0
 18 19  1  0
 19 49  1  1
M  CHG  1   5   1
M  END
>  <i_m_ct_stereo_status>  (152) 
1

>  <s_m_source_file>  (152) 
/var/tmp/pbs.5076255.sched01/tmp7c02qu8j/38qwqhi24o.sdf

>  <i_m_source_file_index>  (152) 
28

>  <i_lp_mmshare_version>  (152) 
48012

>  <i_f3d_flags>  (152) 
0

>  <s_epik_input>  (152) 
W0NIMl0xW0NIMl1bQ0gyXVtDQEhdKE4xMilbQ0BIXTNbQ0BIXShbQ0BASF0oW0NIMl0yKVtDSDJdW0NIM10pTjRbQ0BASF0oW0NIMl1bQ0gyXTMpW0NIMl1bQ0gyXVtDSDJdW0NIMl00

>  <s_epik_cmdline>  (152) 
J2VwaWtfcHl0aG9uJywgJy1waHQnLCAnMi4wJywgJy1waCcsICc3LjAnLCAnLXRuJywgJzgnLCAnLW1hJywgJzIwMCcsICctaW1hZScsICc8aW5maWxlLm1hZT4nLCAnLW9tYWUnLCAnPG91dGZpbGUubWFlPic=

>  <r_epik_Ionization_Penalty>  (152) 
2.5439

>  <r_epik_Ionization_Penalty_Charging>  (152) 
0.000180882

>  <r_epik_Ionization_Penalty_Neutral>  (152) 
2.54372

>  <r_epik_State_Penalty>  (152) 
2.71851

>  <r_epik_Charging_Adjusted_Penalty>  (152) 
2.71869

>  <i_epik_Tot_Q>  (152) 
1

>  <i_epik_Tot_abs_Q>  (152) 
1

>  <s_lp_Force_Field>  (152) 
OPLS3e

>  <r_lp_Energy>  (152) 
29.0005

>  <b_lp_Chiralities_Consistent>  (152) 
1

>  <s_lp_Variant>  (152) 
47:0-3

>  <s_i_glide_gridfile>  (152) 
pfpi4k_grid

>  <i_i_glide_lignum>  (152) 
28

>  <i_i_glide_rotatable_bonds>  (152) 
1

>  <r_i_docking_score>  (152) 
-3.14373

>  <r_i_glide_ligand_efficiency>  (152) 
-0.165459

>  <r_i_glide_ligand_efficiency_sa>  (152) 
-0.441512

>  <r_i_glide_ligand_efficiency_ln>  (152) 
-0.797002

>  <r_i_glide_gscore>  (152) 
-3.14373

>  <r_i_glide_lipo>  (152) 
-0.390277

>  <r_i_glide_hbond>  (152) 
0

>  <r_i_glide_metal>  (152) 
-0

>  <r_i_glide_rewards>  (152) 
-1.6129

>  <r_i_glide_evdw>  (152) 
-13.0292

>  <r_i_glide_ecoul>  (152) 
-3.10025

>  <r_i_glide_erotb>  (152) 
0

>  <r_i_glide_esite>  (152) 
-0.0240529

>  <r_i_glide_emodel>  (152) 
-19.6156

>  <r_i_glide_energy>  (152) 
-16.1294

>  <r_i_glide_einternal>  (152) 
0.0142664

>  <r_i_glide_intrahb_reward>  (152) 
-0

>  <i_i_glide_confnum>  (152) 
2

>  <i_i_glide_posenum>  (152) 
38

>  <r_i_glide_eff_state_penalty>  (152) 
0

>  <ligand_id>  (152) 
47

>  <original_smiles>  (152) 
CCC1CN2CCCC2C2CCC3CCCCN3C12

>  <smiles>  (152) 
[H]C([H])([H])C([H])([H])C1([H])C2([H])N3C([H])([H])C([H])([H])C([H])([H])C([H])([H])C3([H])C([H])([H])C([H])([H])C2([H])C2([H])C([H])([H])C([H])([H])C([H])([H])[N+]2([H])C1([H])[H]

$$$$
48:0:0
     RDKit          3D

 42 44  0  0  1  0  0  0  0  0999 V2000
   -0.8190   -8.4532    4.8335 C   0  0  0  0  0  0  0  0  0  0  0  0
   -0.9707   -8.1046    3.3436 C   0  0  0  0  0  0  0  0  0  0  0  0
   -1.6103   -9.2429    2.5543 C   0  0  0  0  0  0  0  0  0  0  0  0
    0.3219   -7.9552    2.7940 O   0  0  0  0  0  0  0  0  0  0  0  0
    0.5985   -7.1017    1.8111 C   0  0  0  0  0  0  0  0  0  0  0  0
   -0.1968   -6.3543    1.2341 O   0  0  0  0  0  0  0  0  0  0  0  0
    2.0908   -7.1127    1.4350 C   0  0  2  0  0  0  0  0  0  0  0  0
    2.7019   -8.5428    1.5490 C   0  0  0  0  0  0  0  0  0  0  0  0
    4.1029   -8.3227    1.9445 N   0  0  2  0  0  0  0  0  0  0  0  0
    4.7728   -9.5208    2.4947 C   0  0  0  0  0  0  0  0  0  0  0  0
    4.0854   -7.1861    2.8772 C   0  0  0  0  0  0  0  0  0  0  0  0
    3.0569   -6.2053    2.2911 C   0  0  2  0  0  0  0  0  0  0  0  0
    2.3861   -5.3318    3.4096 C   0  0  0  0  0  0  0  0  0  0  0  0
    1.7364   -5.7717    4.3495 O   0  0  0  0  0  0  0  0  0  0  0  0
    2.6788   -4.0326    3.2427 N   0  0  0  0  0  0  0  0  0  0  0  0
    3.5156   -3.8643    2.1493 C   0  0  0  0  0  0  0  0  0  0  0  0
    4.1149   -2.6816    1.7259 C   0  0  0  0  0  0  0  0  0  0  0  0
    5.0176   -2.7484    0.6467 C   0  0  0  0  0  0  0  0  0  0  0  0
    5.2972   -3.9658   -0.0052 C   0  0  0  0  0  0  0  0  0  0  0  0
    4.6672   -5.1751    0.4336 C   0  0  0  0  0  0  0  0  0  0  0  0
    3.7577   -5.0905    1.5034 C   0  0  0  0  0  0  0  0  0  0  0  0
   -1.7953   -8.6524    5.2714 H   0  0  0  0  0  0  0  0  0  0  0  0
   -0.3578   -7.6465    5.4059 H   0  0  0  0  0  0  0  0  0  0  0  0
   -0.2161   -9.3519    4.9946 H   0  0  0  0  0  0  0  0  0  0  0  0
   -1.5622   -7.1924    3.2641 H   0  0  0  0  0  0  0  0  0  0  0  0
   -2.5974   -9.4709    2.9301 H   0  0  0  0  0  0  0  0  0  0  0  0
   -1.0095  -10.1552    2.6243 H   0  0  0  0  0  0  0  0  0  0  0  0
   -1.6876   -8.9836    1.4971 H   0  0  0  0  0  0  0  0  0  0  0  0
    2.1701   -6.7577    0.3994 H   0  0  0  0  0  0  0  0  0  0  0  0
    2.3005   -9.1276    2.3833 H   0  0  0  0  0  0  0  0  0  0  0  0
    2.5826   -9.1850    0.6690 H   0  0  0  0  0  0  0  0  0  0  0  0
    4.2766   -9.8738    3.4021 H   0  0  0  0  0  0  0  0  0  0  0  0
    5.8082   -9.2917    2.7531 H   0  0  0  0  0  0  0  0  0  0  0  0
    4.7715  -10.3344    1.7684 H   0  0  0  0  0  0  0  0  0  0  0  0
    3.7697   -7.5361    3.8561 H   0  0  0  0  0  0  0  0  0  0  0  0
    5.0659   -6.7538    2.9935 H   0  0  0  0  0  0  0  0  0  0  0  0
    2.3442   -3.2861    3.8055 H   0  0  0  0  0  0  0  0  0  0  0  0
    3.9300   -1.7731    2.2444 H   0  0  0  0  0  0  0  0  0  0  0  0
    5.5028   -1.8497    0.2950 H   0  0  0  0  0  0  0  0  0  0  0  0
    5.9944   -4.0172   -0.8197 H   0  0  0  0  0  0  0  0  0  0  0  0
    4.9190   -6.1315   -0.0437 H   0  0  0  0  0  0  0  0  0  0  0  0
    4.5810   -8.0220    1.1082 H   0  0  0  0  0  0  0  0  0  0  0  0
  1  2  1  0
  1 22  1  0
  1 23  1  0
  1 24  1  0
  2  3  1  0
  2  4  1  0
  2 25  1  0
  3 26  1  0
  3 27  1  0
  3 28  1  0
  4  5  1  0
  5  6  2  0
  5  7  1  0
  7 12  1  0
  7  8  1  0
  7 29  1  6
  8  9  1  0
  8 30  1  0
  8 31  1  0
  9 10  1  0
  9 11  1  0
  9 42  1  6
 10 32  1  0
 10 33  1  0
 10 34  1  0
 12 11  1  1
 11 35  1  0
 11 36  1  0
 12 21  1  0
 12 13  1  0
 13 14  2  0
 13 15  1  0
 15 16  1  0
 15 37  1  0
 16 21  2  0
 16 17  1  0
 17 18  2  0
 17 38  1  0
 18 19  1  0
 18 39  1  0
 19 20  2  0
 19 40  1  0
 20 21  1  0
 20 41  1  0
M  CHG  1   9   1
M  END
>  <i_m_ct_stereo_status>  (153) 
1

>  <s_m_source_file>  (153) 
/var/tmp/pbs.5076255.sched01/tmp7c02qu8j/38qwqhi24o.sdf

>  <i_m_source_file_index>  (153) 
29

>  <i_lp_mmshare_version>  (153) 
48012

>  <i_f3d_flags>  (153) 
0

>  <s_epik_input>  (153) 
W0NIM11bQ0hdKFtDSDNdKU9DKD1PKVtDQEhdKFtDSDJdTihbQ0gzXSlbQ0gyXTEpW0NAXTEyYzNjKFtOSF1DMj1PKVtjSF1bY0hdW2NIXVtjSF0z

>  <s_epik_cmdline>  (153) 
J2VwaWtfcHl0aG9uJywgJy1waHQnLCAnMi4wJywgJy1waCcsICc3LjAnLCAnLXRuJywgJzgnLCAnLW1hJywgJzIwMCcsICctaW1hZScsICc8aW5maWxlLm1hZT4nLCAnLW9tYWUnLCAnPG91dGZpbGUubWFlPic=

>  <r_epik_Ionization_Penalty>  (153) 
0.128722

>  <r_epik_Ionization_Penalty_Charging>  (153) 
0.128721

>  <r_epik_Ionization_Penalty_Neutral>  (153) 
1.51887e-06

>  <r_epik_State_Penalty>  (153) 
0.118142

>  <r_epik_Charging_Adjusted_Penalty>  (153) 
0.246863

>  <i_epik_Tot_Q>  (153) 
1

>  <i_epik_Tot_abs_Q>  (153) 
1

>  <s_epik_Chemistry_Notes>  (153) 
This compound has an ester and may undergo hydrolysis at high or low pH.

>  <s_lp_Force_Field>  (153) 
OPLS3e

>  <r_lp_Energy>  (153) 
26.667

>  <b_lp_Chiralities_Consistent>  (153) 
1

>  <s_lp_Variant>  (153) 
48:0-1

>  <s_i_glide_gridfile>  (153) 
pfpi4k_grid

>  <i_i_glide_lignum>  (153) 
29

>  <i_i_glide_rotatable_bonds>  (153) 
3

>  <r_i_docking_score>  (153) 
-3.48838

>  <r_i_glide_ligand_efficiency>  (153) 
-0.166113

>  <r_i_glide_ligand_efficiency_sa>  (153) 
-0.458294

>  <r_i_glide_ligand_efficiency_ln>  (153) 
-0.862495

>  <r_i_glide_gscore>  (153) 
-3.48838

>  <r_i_glide_lipo>  (153) 
-0.358574

>  <r_i_glide_hbond>  (153) 
-0.286631

>  <r_i_glide_metal>  (153) 
-0

>  <r_i_glide_rewards>  (153) 
-1.43625

>  <r_i_glide_evdw>  (153) 
-19.1967

>  <r_i_glide_ecoul>  (153) 
-5.32776

>  <r_i_glide_erotb>  (153) 
0.434944

>  <r_i_glide_esite>  (153) 
-0.0828638

>  <r_i_glide_emodel>  (153) 
-29.3796

>  <r_i_glide_energy>  (153) 
-24.5245

>  <r_i_glide_einternal>  (153) 
3.4554

>  <r_i_glide_intrahb_reward>  (153) 
-0

>  <i_i_glide_confnum>  (153) 
3

>  <i_i_glide_posenum>  (153) 
1

>  <r_i_glide_eff_state_penalty>  (153) 
0

>  <ligand_id>  (153) 
48

>  <original_smiles>  (153) 
CC(C)OC(=O)C1CN(C)CC12C(=O)Nc1ccccc12

>  <smiles>  (153) 
[H]c1c([H])c([H])c2c(c1[H])N([H])C(=O)C21C([H])(C(=O)OC([H])(C([H])([H])[H])C([H])([H])[H])C([H])([H])[N+]([H])(C([H])([H])[H])C1([H])[H]

$$$$
48:0:1
     RDKit          3D

 42 44  0  0  1  0  0  0  0  0999 V2000
   -1.8083   -9.4206    2.0876 C   0  0  0  0  0  0  0  0  0  0  0  0
   -1.2400   -8.6805    3.3000 C   0  0  0  0  0  0  0  0  0  0  0  0
   -1.9330   -7.3455    3.6197 C   0  0  0  0  0  0  0  0  0  0  0  0
    0.1557   -8.5549    3.0787 O   0  0  0  0  0  0  0  0  0  0  0  0
    0.7242   -7.8052    2.1042 C   0  0  0  0  0  0  0  0  0  0  0  0
    0.1903   -6.9446    1.3957 O   0  0  0  0  0  0  0  0  0  0  0  0
    2.2030   -8.1647    1.9219 C   0  0  2  0  0  0  0  0  0  0  0  0
    2.4705   -9.6818    2.1076 C   0  0  0  0  0  0  0  0  0  0  0  0
    3.8281   -9.7376    2.6552 N   0  0  2  0  0  0  0  0  0  0  0  0
    4.1797  -11.0321    3.2629 C   0  0  0  0  0  0  0  0  0  0  0  0
    3.9298   -8.6023    3.5930 C   0  0  0  0  0  0  0  0  0  0  0  0
    3.1928   -7.4553    2.9063 C   0  0  2  0  0  0  0  0  0  0  0  0
    2.5742   -6.4577    3.9520 C   0  0  0  0  0  0  0  0  0  0  0  0
    1.7233   -6.7567    4.7819 O   0  0  0  0  0  0  0  0  0  0  0  0
    3.1308   -5.2426    3.8330 N   0  0  0  0  0  0  0  0  0  0  0  0
    4.1047   -5.2730    2.8260 C   0  0  0  0  0  0  0  0  0  0  0  0
    4.9634   -4.2096    2.5110 C   0  0  0  0  0  0  0  0  0  0  0  0
    5.9490   -4.4650    1.5335 C   0  0  0  0  0  0  0  0  0  0  0  0
    6.0584   -5.7220    0.9078 C   0  0  0  0  0  0  0  0  0  0  0  0
    5.1674   -6.7794    1.2496 C   0  0  0  0  0  0  0  0  0  0  0  0
    4.1782   -6.5129    2.2256 C   0  0  0  0  0  0  0  0  0  0  0  0
   -2.8835   -9.5915    2.1546 H   0  0  0  0  0  0  0  0  0  0  0  0
   -1.2838  -10.3701    1.9575 H   0  0  0  0  0  0  0  0  0  0  0  0
   -1.6205   -8.8363    1.1949 H   0  0  0  0  0  0  0  0  0  0  0  0
   -1.3681   -9.3181    4.1750 H   0  0  0  0  0  0  0  0  0  0  0  0
   -3.0127   -7.4693    3.7047 H   0  0  0  0  0  0  0  0  0  0  0  0
   -1.8039   -6.6541    2.7994 H   0  0  0  0  0  0  0  0  0  0  0  0
   -1.5228   -6.8913    4.5305 H   0  0  0  0  0  0  0  0  0  0  0  0
    2.4601   -7.9093    0.8915 H   0  0  0  0  0  0  0  0  0  0  0  0
    1.8571  -10.1530    2.8762 H   0  0  0  0  0  0  0  0  0  0  0  0
    2.3279  -10.2434    1.1851 H   0  0  0  0  0  0  0  0  0  0  0  0
    3.5164  -11.2595    4.1028 H   0  0  0  0  0  0  0  0  0  0  0  0
    5.2042  -10.9942    3.6370 H   0  0  0  0  0  0  0  0  0  0  0  0
    4.0993  -11.8324    2.5247 H   0  0  0  0  0  0  0  0  0  0  0  0
    3.4334   -8.8764    4.5236 H   0  0  0  0  0  0  0  0  0  0  0  0
    4.9658   -8.3678    3.8300 H   0  0  0  0  0  0  0  0  0  0  0  0
    2.8523   -4.4392    4.3764 H   0  0  0  0  0  0  0  0  0  0  0  0
    4.8793   -3.2594    3.0271 H   0  0  0  0  0  0  0  0  0  0  0  0
    6.6240   -3.6683    1.2592 H   0  0  0  0  0  0  0  0  0  0  0  0
    6.8230   -5.8924    0.1774 H   0  0  0  0  0  0  0  0  0  0  0  0
    5.2861   -7.7527    0.8117 H   0  0  0  0  0  0  0  0  0  0  0  0
    4.4415   -9.5599    1.8715 H   0  0  0  0  0  0  0  0  0  0  0  0
  1  2  1  0
  1 22  1  0
  1 23  1  0
  1 24  1  0
  2  3  1  0
  2  4  1  0
  2 25  1  0
  3 26  1  0
  3 27  1  0
  3 28  1  0
  4  5  1  0
  5  6  2  0
  5  7  1  0
  7 12  1  0
  7  8  1  0
  7 29  1  6
  8  9  1  0
  8 30  1  0
  8 31  1  0
  9 10  1  0
  9 11  1  0
  9 42  1  6
 10 32  1  0
 10 33  1  0
 10 34  1  0
 12 11  1  1
 11 35  1  0
 11 36  1  0
 12 21  1  0
 12 13  1  0
 13 14  2  0
 13 15  1  0
 15 16  1  0
 15 37  1  0
 16 21  2  0
 16 17  1  0
 17 18  2  0
 17 38  1  0
 18 19  1  0
 18 39  1  0
 19 20  2  0
 19 40  1  0
 20 21  1  0
 20 41  1  0
M  CHG  1   9   1
M  END
>  <i_m_ct_stereo_status>  (154) 
1

>  <s_m_source_file>  (154) 
/var/tmp/pbs.5076255.sched01/tmp7c02qu8j/38qwqhi24o.sdf

>  <i_m_source_file_index>  (154) 
29

>  <i_lp_mmshare_version>  (154) 
48012

>  <i_f3d_flags>  (154) 
0

>  <s_epik_input>  (154) 
W0NIM11bQ0hdKFtDSDNdKU9DKD1PKVtDQEhdKFtDSDJdTihbQ0gzXSlbQ0gyXTEpW0NAXTEyYzNjKFtOSF1DMj1PKVtjSF1bY0hdW2NIXVtjSF0z

>  <s_epik_cmdline>  (154) 
J2VwaWtfcHl0aG9uJywgJy1waHQnLCAnMi4wJywgJy1waCcsICc3LjAnLCAnLXRuJywgJzgnLCAnLW1hJywgJzIwMCcsICctaW1hZScsICc8aW5maWxlLm1hZT4nLCAnLW9tYWUnLCAnPG91dGZpbGUubWFlPic=

>  <r_epik_Ionization_Penalty>  (154) 
0.128722

>  <r_epik_Ionization_Penalty_Charging>  (154) 
0.128721

>  <r_epik_Ionization_Penalty_Neutral>  (154) 
1.51887e-06

>  <r_epik_State_Penalty>  (154) 
0.118142

>  <r_epik_Charging_Adjusted_Penalty>  (154) 
0.246863

>  <i_epik_Tot_Q>  (154) 
1

>  <i_epik_Tot_abs_Q>  (154) 
1

>  <s_epik_Chemistry_Notes>  (154) 
This compound has an ester and may undergo hydrolysis at high or low pH.

>  <s_lp_Force_Field>  (154) 
OPLS3e

>  <r_lp_Energy>  (154) 
26.667

>  <b_lp_Chiralities_Consistent>  (154) 
1

>  <s_lp_Variant>  (154) 
48:0-1

>  <s_i_glide_gridfile>  (154) 
pfpi4k_grid

>  <i_i_glide_lignum>  (154) 
29

>  <i_i_glide_rotatable_bonds>  (154) 
3

>  <r_i_docking_score>  (154) 
-3.16826

>  <r_i_glide_ligand_efficiency>  (154) 
-0.15087

>  <r_i_glide_ligand_efficiency_sa>  (154) 
-0.416238

>  <r_i_glide_ligand_efficiency_ln>  (154) 
-0.783347

>  <r_i_glide_gscore>  (154) 
-3.16826

>  <r_i_glide_lipo>  (154) 
-0.487238

>  <r_i_glide_hbond>  (154) 
-0.0135054

>  <r_i_glide_metal>  (154) 
-0

>  <r_i_glide_rewards>  (154) 
-1.43625

>  <r_i_glide_evdw>  (154) 
-20.1039

>  <r_i_glide_ecoul>  (154) 
-3.82114

>  <r_i_glide_erotb>  (154) 
0.434944

>  <r_i_glide_esite>  (154) 
-0.0878468

>  <r_i_glide_emodel>  (154) 
-27.1327

>  <r_i_glide_energy>  (154) 
-23.925

>  <r_i_glide_einternal>  (154) 
5.46355

>  <r_i_glide_intrahb_reward>  (154) 
-0

>  <i_i_glide_confnum>  (154) 
3

>  <i_i_glide_posenum>  (154) 
36

>  <r_i_glide_eff_state_penalty>  (154) 
0

>  <ligand_id>  (154) 
48

>  <original_smiles>  (154) 
CC(C)OC(=O)C1CN(C)CC12C(=O)Nc1ccccc12

>  <smiles>  (154) 
[H]c1c([H])c([H])c2c(c1[H])N([H])C(=O)C21C([H])(C(=O)OC([H])(C([H])([H])[H])C([H])([H])[H])C([H])([H])[N+]([H])(C([H])([H])[H])C1([H])[H]

$$$$
48:0:2
     RDKit          3D

 42 44  0  0  1  0  0  0  0  0999 V2000
   -0.2839   -6.2506    5.4094 C   0  0  0  0  0  0  0  0  0  0  0  0
   -0.6544   -6.8404    4.0258 C   0  0  0  0  0  0  0  0  0  0  0  0
   -2.0717   -7.4225    4.0644 C   0  0  0  0  0  0  0  0  0  0  0  0
    0.2233   -7.9032    3.6593 O   0  0  0  0  0  0  0  0  0  0  0  0
    0.9763   -7.8738    2.5309 C   0  0  0  0  0  0  0  0  0  0  0  0
    0.8557   -7.0642    1.6120 O   0  0  0  0  0  0  0  0  0  0  0  0
    2.0761   -8.9710    2.5364 C   0  0  2  0  0  0  0  0  0  0  0  0
    1.5762  -10.2841    3.2012 C   0  0  0  0  0  0  0  0  0  0  0  0
    2.7640  -10.8412    3.8644 N   0  0  2  0  0  0  0  0  0  0  0  0
    2.4642  -11.8618    4.8784 C   0  0  0  0  0  0  0  0  0  0  0  0
    3.4826   -9.6911    4.4318 C   0  0  0  0  0  0  0  0  0  0  0  0
    3.3778   -8.6199    3.3450 C   0  0  2  0  0  0  0  0  0  0  0  0
    3.4326   -7.1903    4.0047 C   0  0  0  0  0  0  0  0  0  0  0  0
    2.6341   -6.7985    4.8382 O   0  0  0  0  0  0  0  0  0  0  0  0
    4.4997   -6.5320    3.5904 N   0  0  0  0  0  0  0  0  0  0  0  0
    5.2817   -7.3236    2.7575 C   0  0  0  0  0  0  0  0  0  0  0  0
    6.5388   -6.9827    2.2504 C   0  0  0  0  0  0  0  0  0  0  0  0
    7.1945   -7.9550    1.4999 C   0  0  0  0  0  0  0  0  0  0  0  0
    6.6029   -9.2358    1.2774 C   0  0  0  0  0  0  0  0  0  0  0  0
    5.3458   -9.5554    1.8042 C   0  0  0  0  0  0  0  0  0  0  0  0
    4.6632   -8.5582    2.5557 C   0  0  0  0  0  0  0  0  0  0  0  0
   -0.9966   -5.4830    5.7216 H   0  0  0  0  0  0  0  0  0  0  0  0
    0.6763   -5.7257    5.3986 H   0  0  0  0  0  0  0  0  0  0  0  0
   -0.2301   -7.0296    6.1765 H   0  0  0  0  0  0  0  0  0  0  0  0
   -0.6009   -6.0400    3.2864 H   0  0  0  0  0  0  0  0  0  0  0  0
   -2.7693   -6.6561    4.3666 H   0  0  0  0  0  0  0  0  0  0  0  0
   -2.1281   -8.2461    4.7877 H   0  0  0  0  0  0  0  0  0  0  0  0
   -2.3596   -7.8278    3.0876 H   0  0  0  0  0  0  0  0  0  0  0  0
    2.3497   -9.2058    1.4966 H   0  0  0  0  0  0  0  0  0  0  0  0
    0.8732  -10.1093    4.0214 H   0  0  0  0  0  0  0  0  0  0  0  0
    1.0813  -10.9731    2.5112 H   0  0  0  0  0  0  0  0  0  0  0  0
    1.8276  -11.4630    5.6623 H   0  0  0  0  0  0  0  0  0  0  0  0
    3.3835  -12.2514    5.3110 H   0  0  0  0  0  0  0  0  0  0  0  0
    1.9185  -12.6521    4.3820 H   0  0  0  0  0  0  0  0  0  0  0  0
    2.9780   -9.3851    5.3480 H   0  0  0  0  0  0  0  0  0  0  0  0
    4.5115   -9.9492    4.7047 H   0  0  0  0  0  0  0  0  0  0  0  0
    4.7065   -5.5629    3.8771 H   0  0  0  0  0  0  0  0  0  0  0  0
    6.9638   -5.9886    2.4615 H   0  0  0  0  0  0  0  0  0  0  0  0
    8.1552   -7.7257    1.0733 H   0  0  0  0  0  0  0  0  0  0  0  0
    7.1192   -9.9581    0.6888 H   0  0  0  0  0  0  0  0  0  0  0  0
    4.9186  -10.5291    1.6959 H   0  0  0  0  0  0  0  0  0  0  0  0
    3.3372  -11.2460    3.1376 H   0  0  0  0  0  0  0  0  0  0  0  0
  1  2  1  0
  1 22  1  0
  1 23  1  0
  1 24  1  0
  2  3  1  0
  2  4  1  0
  2 25  1  0
  3 26  1  0
  3 27  1  0
  3 28  1  0
  4  5  1  0
  5  6  2  0
  5  7  1  0
  7 12  1  0
  7  8  1  0
  7 29  1  6
  8  9  1  0
  8 30  1  0
  8 31  1  0
  9 10  1  0
  9 11  1  0
  9 42  1  6
 10 32  1  0
 10 33  1  0
 10 34  1  0
 12 11  1  1
 11 35  1  0
 11 36  1  0
 12 21  1  0
 12 13  1  0
 13 14  2  0
 13 15  1  0
 15 16  1  0
 15 37  1  0
 16 21  2  0
 16 17  1  0
 17 18  2  0
 17 38  1  0
 18 19  1  0
 18 39  1  0
 19 20  2  0
 19 40  1  0
 20 21  1  0
 20 41  1  0
M  CHG  1   9   1
M  END
>  <i_m_ct_stereo_status>  (155) 
1

>  <s_m_source_file>  (155) 
/var/tmp/pbs.5076255.sched01/tmp7c02qu8j/38qwqhi24o.sdf

>  <i_m_source_file_index>  (155) 
29

>  <i_lp_mmshare_version>  (155) 
48012

>  <i_f3d_flags>  (155) 
0

>  <s_epik_input>  (155) 
W0NIM11bQ0hdKFtDSDNdKU9DKD1PKVtDQEhdKFtDSDJdTihbQ0gzXSlbQ0gyXTEpW0NAXTEyYzNjKFtOSF1DMj1PKVtjSF1bY0hdW2NIXVtjSF0z

>  <s_epik_cmdline>  (155) 
J2VwaWtfcHl0aG9uJywgJy1waHQnLCAnMi4wJywgJy1waCcsICc3LjAnLCAnLXRuJywgJzgnLCAnLW1hJywgJzIwMCcsICctaW1hZScsICc8aW5maWxlLm1hZT4nLCAnLW9tYWUnLCAnPG91dGZpbGUubWFlPic=

>  <r_epik_Ionization_Penalty>  (155) 
0.128722

>  <r_epik_Ionization_Penalty_Charging>  (155) 
0.128721

>  <r_epik_Ionization_Penalty_Neutral>  (155) 
1.51887e-06

>  <r_epik_State_Penalty>  (155) 
0.118142

>  <r_epik_Charging_Adjusted_Penalty>  (155) 
0.246863

>  <i_epik_Tot_Q>  (155) 
1

>  <i_epik_Tot_abs_Q>  (155) 
1

>  <s_epik_Chemistry_Notes>  (155) 
This compound has an ester and may undergo hydrolysis at high or low pH.

>  <s_lp_Force_Field>  (155) 
OPLS3e

>  <r_lp_Energy>  (155) 
26.667

>  <b_lp_Chiralities_Consistent>  (155) 
1

>  <s_lp_Variant>  (155) 
48:0-1

>  <s_i_glide_gridfile>  (155) 
pfpi4k_grid

>  <i_i_glide_lignum>  (155) 
29

>  <i_i_glide_rotatable_bonds>  (155) 
3

>  <r_i_docking_score>  (155) 
-2.94865

>  <r_i_glide_ligand_efficiency>  (155) 
-0.140412

>  <r_i_glide_ligand_efficiency_sa>  (155) 
-0.387386

>  <r_i_glide_ligand_efficiency_ln>  (155) 
-0.729047

>  <r_i_glide_gscore>  (155) 
-2.94865

>  <r_i_glide_lipo>  (155) 
-0.320632

>  <r_i_glide_hbond>  (155) 
0

>  <r_i_glide_metal>  (155) 
-0

>  <r_i_glide_rewards>  (155) 
-1.43625

>  <r_i_glide_evdw>  (155) 
-18.5524

>  <r_i_glide_ecoul>  (155) 
-4.3792

>  <r_i_glide_erotb>  (155) 
0.434944

>  <r_i_glide_esite>  (155) 
-0.0422061

>  <r_i_glide_emodel>  (155) 
-26.0388

>  <r_i_glide_energy>  (155) 
-22.9316

>  <r_i_glide_einternal>  (155) 
3.69978

>  <r_i_glide_intrahb_reward>  (155) 
-0

>  <i_i_glide_confnum>  (155) 
3

>  <i_i_glide_posenum>  (155) 
37

>  <r_i_glide_eff_state_penalty>  (155) 
0

>  <ligand_id>  (155) 
48

>  <original_smiles>  (155) 
CC(C)OC(=O)C1CN(C)CC12C(=O)Nc1ccccc12

>  <smiles>  (155) 
[H]c1c([H])c([H])c2c(c1[H])N([H])C(=O)C21C([H])(C(=O)OC([H])(C([H])([H])[H])C([H])([H])[H])C([H])([H])[N+]([H])(C([H])([H])[H])C1([H])[H]

$$$$
48:1:0
     RDKit          3D

 41 43  0  0  1  0  0  0  0  0999 V2000
   -4.2022    3.4079    8.8998 C   0  0  0  0  0  0  0  0  0  0  0  0
   -2.8436    2.8510    9.3565 C   0  0  0  0  0  0  0  0  0  0  0  0
   -2.3528    3.5286   10.6363 C   0  0  0  0  0  0  0  0  0  0  0  0
   -1.8420    3.1250    8.3932 O   0  0  0  0  0  0  0  0  0  0  0  0
   -1.2540    2.1692    7.6440 C   0  0  0  0  0  0  0  0  0  0  0  0
   -1.5796    0.9750    7.6152 O   0  0  0  0  0  0  0  0  0  0  0  0
   -0.1203    2.7410    6.7574 C   0  0  2  0  0  0  0  0  0  0  0  0
    0.5152    4.0235    7.3758 C   0  0  0  0  0  0  0  0  0  0  0  0
    0.9718    4.7903    6.2257 N   0  0  0  0  0  0  0  0  0  0  0  0
    1.2199    6.1811    6.5843 C   0  0  0  0  0  0  0  0  0  0  0  0
   -0.1365    4.6944    5.2788 C   0  0  0  0  0  0  0  0  0  0  0  0
   -0.5297    3.2063    5.3248 C   0  0  2  0  0  0  0  0  0  0  0  0
   -2.0330    2.9994    4.8996 C   0  0  0  0  0  0  0  0  0  0  0  0
   -2.9872    3.4060    5.5362 O   0  0  0  0  0  0  0  0  0  0  0  0
   -2.1300    2.2911    3.7739 N   0  0  0  0  0  0  0  0  0  0  0  0
   -0.8556    1.9514    3.3204 C   0  0  0  0  0  0  0  0  0  0  0  0
   -0.5579    1.2863    2.1210 C   0  0  0  0  0  0  0  0  0  0  0  0
    0.7954    1.1358    1.7999 C   0  0  0  0  0  0  0  0  0  0  0  0
    1.8261    1.6462    2.6378 C   0  0  0  0  0  0  0  0  0  0  0  0
    1.4922    2.3105    3.8484 C   0  0  0  0  0  0  0  0  0  0  0  0
    0.1375    2.4484    4.1888 C   0  0  0  0  0  0  0  0  0  0  0  0
   -4.9651    3.2216    9.6605 H   0  0  0  0  0  0  0  0  0  0  0  0
   -4.5299    2.9448    7.9687 H   0  0  0  0  0  0  0  0  0  0  0  0
   -4.1543    4.4897    8.7513 H   0  0  0  0  0  0  0  0  0  0  0  0
   -2.9330    1.7759    9.5174 H   0  0  0  0  0  0  0  0  0  0  0  0
   -3.0551    3.3476   11.4443 H   0  0  0  0  0  0  0  0  0  0  0  0
   -2.2427    4.6105   10.5247 H   0  0  0  0  0  0  0  0  0  0  0  0
   -1.3842    3.1271   10.9355 H   0  0  0  0  0  0  0  0  0  0  0  0
    0.6694    1.9769    6.6778 H   0  0  0  0  0  0  0  0  0  0  0  0
   -0.2037    4.6700    7.8845 H   0  0  0  0  0  0  0  0  0  0  0  0
    1.3095    3.7994    8.0924 H   0  0  0  0  0  0  0  0  0  0  0  0
    1.5064    6.7396    5.6909 H   0  0  0  0  0  0  0  0  0  0  0  0
    2.0358    6.2349    7.3082 H   0  0  0  0  0  0  0  0  0  0  0  0
    0.3329    6.6542    7.0188 H   0  0  0  0  0  0  0  0  0  0  0  0
   -0.9678    5.3371    5.5855 H   0  0  0  0  0  0  0  0  0  0  0  0
    0.1844    5.0115    4.2859 H   0  0  0  0  0  0  0  0  0  0  0  0
   -3.0006    1.9591    3.3706 H   0  0  0  0  0  0  0  0  0  0  0  0
   -1.3692    0.9448    1.4811 H   0  0  0  0  0  0  0  0  0  0  0  0
    1.0457    0.6217    0.8864 H   0  0  0  0  0  0  0  0  0  0  0  0
    2.8529    1.5298    2.3321 H   0  0  0  0  0  0  0  0  0  0  0  0
    2.2690    2.7404    4.4441 H   0  0  0  0  0  0  0  0  0  0  0  0
  1  2  1  0
  1 22  1  0
  1 23  1  0
  1 24  1  0
  2  3  1  0
  2  4  1  0
  2 25  1  0
  3 26  1  0
  3 27  1  0
  3 28  1  0
  4  5  1  0
  5  6  2  0
  5  7  1  0
  7 12  1  0
  7  8  1  0
  7 29  1  6
  8  9  1  0
  8 30  1  0
  8 31  1  0
  9 10  1  0
  9 11  1  0
 10 32  1  0
 10 33  1  0
 10 34  1  0
 12 11  1  1
 11 35  1  0
 11 36  1  0
 12 21  1  0
 12 13  1  0
 13 14  2  0
 13 15  1  0
 15 16  1  0
 15 37  1  0
 16 21  2  0
 16 17  1  0
 17 18  2  0
 17 38  1  0
 18 19  1  0
 18 39  1  0
 19 20  2  0
 19 40  1  0
 20 21  1  0
 20 41  1  0
M  END
>  <i_m_ct_stereo_status>  (156) 
1

>  <s_m_source_file>  (156) 
/var/tmp/pbs.5076255.sched01/tmp7c02qu8j/38qwqhi24o.sdf

>  <i_m_source_file_index>  (156) 
30

>  <i_lp_mmshare_version>  (156) 
48012

>  <i_f3d_flags>  (156) 
0

>  <s_epik_input>  (156) 
W0NIM11bQ0hdKFtDSDNdKU9DKD1PKVtDQEhdKFtDSDJdTihbQ0gzXSlbQ0gyXTEpW0NAXTEyYzNjKFtOSF1DMj1PKVtjSF1bY0hdW2NIXVtjSF0z

>  <s_epik_cmdline>  (156) 
J2VwaWtfcHl0aG9uJywgJy1waHQnLCAnMi4wJywgJy1waCcsICc3LjAnLCAnLXRuJywgJzgnLCAnLW1hJywgJzIwMCcsICctaW1hZScsICc8aW5maWxlLm1hZT4nLCAnLW9tYWUnLCAnPG91dGZpbGUubWFlPic=

>  <r_epik_Ionization_Penalty>  (156) 
0.967734

>  <r_epik_Ionization_Penalty_Charging>  (156) 
0

>  <r_epik_Ionization_Penalty_Neutral>  (156) 
0.967734

>  <r_epik_State_Penalty>  (156) 
1.01344

>  <r_epik_Charging_Adjusted_Penalty>  (156) 
1.01344

>  <i_epik_Tot_Q>  (156) 
0

>  <i_epik_Tot_abs_Q>  (156) 
0

>  <s_epik_Chemistry_Notes>  (156) 
This compound has an ester and may undergo hydrolysis at high or low pH.

>  <s_lp_Force_Field>  (156) 
OPLS3e

>  <r_lp_Energy>  (156) 
18.7322

>  <b_lp_Chiralities_Consistent>  (156) 
1

>  <s_lp_Variant>  (156) 
48:0-2

>  <s_i_glide_gridfile>  (156) 
pfpi4k_grid

>  <i_i_glide_lignum>  (156) 
30

>  <i_i_glide_rotatable_bonds>  (156) 
3

>  <r_i_docking_score>  (156) 
-3.35856

>  <r_i_glide_ligand_efficiency>  (156) 
-0.159931

>  <r_i_glide_ligand_efficiency_sa>  (156) 
-0.441238

>  <r_i_glide_ligand_efficiency_ln>  (156) 
-0.830396

>  <r_i_glide_gscore>  (156) 
-3.35856

>  <r_i_glide_lipo>  (156) 
-0.0425386

>  <r_i_glide_hbond>  (156) 
-0.3804

>  <r_i_glide_metal>  (156) 
-0

>  <r_i_glide_rewards>  (156) 
-1.44313

>  <r_i_glide_evdw>  (156) 
-20.8123

>  <r_i_glide_ecoul>  (156) 
-5.537

>  <r_i_glide_erotb>  (156) 
0.437598

>  <r_i_glide_esite>  (156) 
-0.0589245

>  <r_i_glide_emodel>  (156) 
-29.7584

>  <r_i_glide_energy>  (156) 
-26.3493

>  <r_i_glide_einternal>  (156) 
3.84255

>  <r_i_glide_intrahb_reward>  (156) 
-0

>  <i_i_glide_confnum>  (156) 
3

>  <i_i_glide_posenum>  (156) 
24

>  <r_i_glide_eff_state_penalty>  (156) 
0

>  <ligand_id>  (156) 
48

>  <original_smiles>  (156) 
CC(C)OC(=O)C1CN(C)CC12C(=O)Nc1ccccc12

>  <smiles>  (156) 
[H]c1c([H])c([H])c2c(c1[H])N([H])C(=O)C21C([H])([H])N(C([H])([H])[H])C([H])([H])C1([H])C(=O)OC([H])(C([H])([H])[H])C([H])([H])[H]

$$$$
48:1:1
     RDKit          3D

 41 43  0  0  1  0  0  0  0  0999 V2000
   -0.4619   -8.4720    4.7412 C   0  0  0  0  0  0  0  0  0  0  0  0
   -0.7073   -8.0980    3.2677 C   0  0  0  0  0  0  0  0  0  0  0  0
   -1.3856   -9.2250    2.4896 C   0  0  0  0  0  0  0  0  0  0  0  0
    0.5547   -7.8913    2.6578 O   0  0  0  0  0  0  0  0  0  0  0  0
    0.7330   -7.0616    1.6101 C   0  0  0  0  0  0  0  0  0  0  0  0
   -0.1610   -6.4449    1.0241 O   0  0  0  0  0  0  0  0  0  0  0  0
    2.2324   -6.8500    1.2749 C   0  0  2  0  0  0  0  0  0  0  0  0
    3.0856   -8.1012    1.6203 C   0  0  0  0  0  0  0  0  0  0  0  0
    4.4028   -7.5618    1.9294 N   0  0  0  0  0  0  0  0  0  0  0  0
    5.2124   -8.5325    2.6487 C   0  0  0  0  0  0  0  0  0  0  0  0
    4.1139   -6.4084    2.7733 C   0  0  0  0  0  0  0  0  0  0  0  0
    2.9629   -5.7043    2.0496 C   0  0  2  0  0  0  0  0  0  0  0  0
    2.1111   -4.8527    3.0499 C   0  0  0  0  0  0  0  0  0  0  0  0
    1.4484   -5.3151    3.9722 O   0  0  0  0  0  0  0  0  0  0  0  0
    2.1678   -3.5554    2.7551 N   0  0  0  0  0  0  0  0  0  0  0  0
    3.0008   -3.3498    1.6469 C   0  0  0  0  0  0  0  0  0  0  0  0
    3.3752   -2.1106    1.1145 C   0  0  0  0  0  0  0  0  0  0  0  0
    4.3134   -2.1196    0.0610 C   0  0  0  0  0  0  0  0  0  0  0  0
    4.8458   -3.3446   -0.4280 C   0  0  0  0  0  0  0  0  0  0  0  0
    4.4399   -4.5913    0.1262 C   0  0  0  0  0  0  0  0  0  0  0  0
    3.4863   -4.5616    1.1765 C   0  0  0  0  0  0  0  0  0  0  0  0
   -1.3999   -8.6991    5.2482 H   0  0  0  0  0  0  0  0  0  0  0  0
    0.0200   -7.6610    5.2913 H   0  0  0  0  0  0  0  0  0  0  0  0
    0.1773   -9.3523    4.8348 H   0  0  0  0  0  0  0  0  0  0  0  0
   -1.3106   -7.1848    3.2425 H   0  0  0  0  0  0  0  0  0  0  0  0
   -2.3482   -9.4690    2.9314 H   0  0  0  0  0  0  0  0  0  0  0  0
   -0.7642  -10.1250    2.4875 H   0  0  0  0  0  0  0  0  0  0  0  0
   -1.5443   -8.9298    1.4517 H   0  0  0  0  0  0  0  0  0  0  0  0
    2.3156   -6.6533    0.2007 H   0  0  0  0  0  0  0  0  0  0  0  0
    2.7473   -8.6175    2.5190 H   0  0  0  0  0  0  0  0  0  0  0  0
    3.1063   -8.8451    0.8210 H   0  0  0  0  0  0  0  0  0  0  0  0
    6.1677   -8.0820    2.9216 H   0  0  0  0  0  0  0  0  0  0  0  0
    5.4026   -9.4018    2.0164 H   0  0  0  0  0  0  0  0  0  0  0  0
    4.7198   -8.8674    3.5658 H   0  0  0  0  0  0  0  0  0  0  0  0
    3.8158   -6.7136    3.7823 H   0  0  0  0  0  0  0  0  0  0  0  0
    4.9929   -5.7699    2.8644 H   0  0  0  0  0  0  0  0  0  0  0  0
    1.6352   -2.8372    3.2171 H   0  0  0  0  0  0  0  0  0  0  0  0
    2.9646   -1.1946    1.5203 H   0  0  0  0  0  0  0  0  0  0  0  0
    4.6131   -1.1836   -0.3702 H   0  0  0  0  0  0  0  0  0  0  0  0
    5.5686   -3.3170   -1.2308 H   0  0  0  0  0  0  0  0  0  0  0  0
    4.8778   -5.5023   -0.2229 H   0  0  0  0  0  0  0  0  0  0  0  0
  1  2  1  0
  1 22  1  0
  1 23  1  0
  1 24  1  0
  2  3  1  0
  2  4  1  0
  2 25  1  0
  3 26  1  0
  3 27  1  0
  3 28  1  0
  4  5  1  0
  5  6  2  0
  5  7  1  0
  7 12  1  0
  7  8  1  0
  7 29  1  6
  8  9  1  0
  8 30  1  0
  8 31  1  0
  9 10  1  0
  9 11  1  0
 10 32  1  0
 10 33  1  0
 10 34  1  0
 12 11  1  1
 11 35  1  0
 11 36  1  0
 12 21  1  0
 12 13  1  0
 13 14  2  0
 13 15  1  0
 15 16  1  0
 15 37  1  0
 16 21  2  0
 16 17  1  0
 17 18  2  0
 17 38  1  0
 18 19  1  0
 18 39  1  0
 19 20  2  0
 19 40  1  0
 20 21  1  0
 20 41  1  0
M  END
>  <i_m_ct_stereo_status>  (157) 
1

>  <s_m_source_file>  (157) 
/var/tmp/pbs.5076255.sched01/tmp7c02qu8j/38qwqhi24o.sdf

>  <i_m_source_file_index>  (157) 
30

>  <i_lp_mmshare_version>  (157) 
48012

>  <i_f3d_flags>  (157) 
0

>  <s_epik_input>  (157) 
W0NIM11bQ0hdKFtDSDNdKU9DKD1PKVtDQEhdKFtDSDJdTihbQ0gzXSlbQ0gyXTEpW0NAXTEyYzNjKFtOSF1DMj1PKVtjSF1bY0hdW2NIXVtjSF0z

>  <s_epik_cmdline>  (157) 
J2VwaWtfcHl0aG9uJywgJy1waHQnLCAnMi4wJywgJy1waCcsICc3LjAnLCAnLXRuJywgJzgnLCAnLW1hJywgJzIwMCcsICctaW1hZScsICc8aW5maWxlLm1hZT4nLCAnLW9tYWUnLCAnPG91dGZpbGUubWFlPic=

>  <r_epik_Ionization_Penalty>  (157) 
0.967734

>  <r_epik_Ionization_Penalty_Charging>  (157) 
0

>  <r_epik_Ionization_Penalty_Neutral>  (157) 
0.967734

>  <r_epik_State_Penalty>  (157) 
1.01344

>  <r_epik_Charging_Adjusted_Penalty>  (157) 
1.01344

>  <i_epik_Tot_Q>  (157) 
0

>  <i_epik_Tot_abs_Q>  (157) 
0

>  <s_epik_Chemistry_Notes>  (157) 
This compound has an ester and may undergo hydrolysis at high or low pH.

>  <s_lp_Force_Field>  (157) 
OPLS3e

>  <r_lp_Energy>  (157) 
18.7322

>  <b_lp_Chiralities_Consistent>  (157) 
1

>  <s_lp_Variant>  (157) 
48:0-2

>  <s_i_glide_gridfile>  (157) 
pfpi4k_grid

>  <i_i_glide_lignum>  (157) 
30

>  <i_i_glide_rotatable_bonds>  (157) 
3

>  <r_i_docking_score>  (157) 
-3.20547

>  <r_i_glide_ligand_efficiency>  (157) 
-0.152641

>  <r_i_glide_ligand_efficiency_sa>  (157) 
-0.421126

>  <r_i_glide_ligand_efficiency_ln>  (157) 
-0.792545

>  <r_i_glide_gscore>  (157) 
-3.20547

>  <r_i_glide_lipo>  (157) 
-0.270073

>  <r_i_glide_hbond>  (157) 
-0.217759

>  <r_i_glide_metal>  (157) 
-0

>  <r_i_glide_rewards>  (157) 
-1.44313

>  <r_i_glide_evdw>  (157) 
-21.0942

>  <r_i_glide_ecoul>  (157) 
-3.83974

>  <r_i_glide_erotb>  (157) 
0.437598

>  <r_i_glide_esite>  (157) 
-0.0814374

>  <r_i_glide_emodel>  (157) 
-28.9444

>  <r_i_glide_energy>  (157) 
-24.9339

>  <r_i_glide_einternal>  (157) 
2.57167

>  <r_i_glide_intrahb_reward>  (157) 
-0

>  <i_i_glide_confnum>  (157) 
4

>  <i_i_glide_posenum>  (157) 
1

>  <r_i_glide_eff_state_penalty>  (157) 
0

>  <ligand_id>  (157) 
48

>  <original_smiles>  (157) 
CC(C)OC(=O)C1CN(C)CC12C(=O)Nc1ccccc12

>  <smiles>  (157) 
[H]c1c([H])c([H])c2c(c1[H])N([H])C(=O)C21C([H])([H])N(C([H])([H])[H])C([H])([H])C1([H])C(=O)OC([H])(C([H])([H])[H])C([H])([H])[H]

$$$$
48:1:2
     RDKit          3D

 41 43  0  0  1  0  0  0  0  0999 V2000
   -1.1102   -7.4726    4.0146 C   0  0  0  0  0  0  0  0  0  0  0  0
   -0.8352   -8.1380    2.6425 C   0  0  0  0  0  0  0  0  0  0  0  0
   -1.1131   -9.6438    2.7044 C   0  0  0  0  0  0  0  0  0  0  0  0
    0.5274   -7.9969    2.2697 O   0  0  0  0  0  0  0  0  0  0  0  0
    0.9505   -7.0656    1.3877 C   0  0  0  0  0  0  0  0  0  0  0  0
    0.2234   -6.3221    0.7241 O   0  0  0  0  0  0  0  0  0  0  0  0
    2.5013   -7.0061    1.2873 C   0  0  2  0  0  0  0  0  0  0  0  0
    3.1548   -8.4024    1.5458 C   0  0  0  0  0  0  0  0  0  0  0  0
    4.4466   -8.0786    2.1327 N   0  0  0  0  0  0  0  0  0  0  0  0
    5.0193   -9.2352    2.8094 C   0  0  0  0  0  0  0  0  0  0  0  0
    4.1428   -7.0229    3.0853 C   0  0  0  0  0  0  0  0  0  0  0  0
    3.2125   -6.0741    2.3176 C   0  0  2  0  0  0  0  0  0  0  0  0
    2.3104   -5.2577    3.2947 C   0  0  0  0  0  0  0  0  0  0  0  0
    1.5302   -5.7645    4.1100 O   0  0  0  0  0  0  0  0  0  0  0  0
    2.5371   -3.9415    3.1759 N   0  0  0  0  0  0  0  0  0  0  0  0
    3.5605   -3.7262    2.2495 C   0  0  0  0  0  0  0  0  0  0  0  0
    4.1390   -2.4867    1.9832 C   0  0  0  0  0  0  0  0  0  0  0  0
    5.2414   -2.4787    1.0928 C   0  0  0  0  0  0  0  0  0  0  0  0
    5.7071   -3.6744    0.5126 C   0  0  0  0  0  0  0  0  0  0  0  0
    5.0909   -4.9138    0.8095 C   0  0  0  0  0  0  0  0  0  0  0  0
    3.9982   -4.9212    1.6917 C   0  0  0  0  0  0  0  0  0  0  0  0
   -2.1485   -7.6208    4.3341 H   0  0  0  0  0  0  0  0  0  0  0  0
   -0.9437   -6.3940    3.9788 H   0  0  0  0  0  0  0  0  0  0  0  0
   -0.4637   -7.8821    4.8010 H   0  0  0  0  0  0  0  0  0  0  0  0
   -1.4963   -7.6876    1.8984 H   0  0  0  0  0  0  0  0  0  0  0  0
   -2.1548   -9.8328    2.9736 H   0  0  0  0  0  0  0  0  0  0  0  0
   -0.4816  -10.1455    3.4451 H   0  0  0  0  0  0  0  0  0  0  0  0
   -0.9259  -10.1103    1.7377 H   0  0  0  0  0  0  0  0  0  0  0  0
    2.7740   -6.6508    0.2951 H   0  0  0  0  0  0  0  0  0  0  0  0
    2.6289   -8.9975    2.3031 H   0  0  0  0  0  0  0  0  0  0  0  0
    3.2327   -9.0421    0.6565 H   0  0  0  0  0  0  0  0  0  0  0  0
    5.9625   -8.9522    3.2854 H   0  0  0  0  0  0  0  0  0  0  0  0
    5.2176  -10.0399    2.0921 H   0  0  0  0  0  0  0  0  0  0  0  0
    4.3508   -9.6239    3.5873 H   0  0  0  0  0  0  0  0  0  0  0  0
    3.6600   -7.4273    3.9779 H   0  0  0  0  0  0  0  0  0  0  0  0
    5.0613   -6.5322    3.4082 H   0  0  0  0  0  0  0  0  0  0  0  0
    2.0220   -3.2232    3.6898 H   0  0  0  0  0  0  0  0  0  0  0  0
    3.7765   -1.5683    2.4719 H   0  0  0  0  0  0  0  0  0  0  0  0
    5.7129   -1.5420    0.8583 H   0  0  0  0  0  0  0  0  0  0  0  0
    6.5469   -3.6587   -0.1467 H   0  0  0  0  0  0  0  0  0  0  0  0
    5.4687   -5.8443    0.4159 H   0  0  0  0  0  0  0  0  0  0  0  0
  1  2  1  0
  1 22  1  0
  1 23  1  0
  1 24  1  0
  2  3  1  0
  2  4  1  0
  2 25  1  0
  3 26  1  0
  3 27  1  0
  3 28  1  0
  4  5  1  0
  5  6  2  0
  5  7  1  0
  7 12  1  0
  7  8  1  0
  7 29  1  6
  8  9  1  0
  8 30  1  0
  8 31  1  0
  9 10  1  0
  9 11  1  0
 10 32  1  0
 10 33  1  0
 10 34  1  0
 12 11  1  1
 11 35  1  0
 11 36  1  0
 12 21  1  0
 12 13  1  0
 13 14  2  0
 13 15  1  0
 15 16  1  0
 15 37  1  0
 16 21  2  0
 16 17  1  0
 17 18  2  0
 17 38  1  0
 18 19  1  0
 18 39  1  0
 19 20  2  0
 19 40  1  0
 20 21  1  0
 20 41  1  0
M  END
>  <i_m_ct_stereo_status>  (158) 
1

>  <s_m_source_file>  (158) 
/var/tmp/pbs.5076255.sched01/tmp7c02qu8j/38qwqhi24o.sdf

>  <i_m_source_file_index>  (158) 
30

>  <i_lp_mmshare_version>  (158) 
48012

>  <i_f3d_flags>  (158) 
0

>  <s_epik_input>  (158) 
W0NIM11bQ0hdKFtDSDNdKU9DKD1PKVtDQEhdKFtDSDJdTihbQ0gzXSlbQ0gyXTEpW0NAXTEyYzNjKFtOSF1DMj1PKVtjSF1bY0hdW2NIXVtjSF0z

>  <s_epik_cmdline>  (158) 
J2VwaWtfcHl0aG9uJywgJy1waHQnLCAnMi4wJywgJy1waCcsICc3LjAnLCAnLXRuJywgJzgnLCAnLW1hJywgJzIwMCcsICctaW1hZScsICc8aW5maWxlLm1hZT4nLCAnLW9tYWUnLCAnPG91dGZpbGUubWFlPic=

>  <r_epik_Ionization_Penalty>  (158) 
0.967734

>  <r_epik_Ionization_Penalty_Charging>  (158) 
0

>  <r_epik_Ionization_Penalty_Neutral>  (158) 
0.967734

>  <r_epik_State_Penalty>  (158) 
1.01344

>  <r_epik_Charging_Adjusted_Penalty>  (158) 
1.01344

>  <i_epik_Tot_Q>  (158) 
0

>  <i_epik_Tot_abs_Q>  (158) 
0

>  <s_epik_Chemistry_Notes>  (158) 
This compound has an ester and may undergo hydrolysis at high or low pH.

>  <s_lp_Force_Field>  (158) 
OPLS3e

>  <r_lp_Energy>  (158) 
18.7322

>  <b_lp_Chiralities_Consistent>  (158) 
1

>  <s_lp_Variant>  (158) 
48:0-2

>  <s_i_glide_gridfile>  (158) 
pfpi4k_grid

>  <i_i_glide_lignum>  (158) 
30

>  <i_i_glide_rotatable_bonds>  (158) 
3

>  <r_i_docking_score>  (158) 
-3.10363

>  <r_i_glide_ligand_efficiency>  (158) 
-0.147792

>  <r_i_glide_ligand_efficiency_sa>  (158) 
-0.407747

>  <r_i_glide_ligand_efficiency_ln>  (158) 
-0.767367

>  <r_i_glide_gscore>  (158) 
-3.10363

>  <r_i_glide_lipo>  (158) 
-0.230563

>  <r_i_glide_hbond>  (158) 
-0.16

>  <r_i_glide_metal>  (158) 
-0

>  <r_i_glide_rewards>  (158) 
-1.44313

>  <r_i_glide_evdw>  (158) 
-20.1477

>  <r_i_glide_ecoul>  (158) 
-4.19699

>  <r_i_glide_erotb>  (158) 
0.437598

>  <r_i_glide_esite>  (158) 
-0.0706117

>  <r_i_glide_emodel>  (158) 
-27.7811

>  <r_i_glide_energy>  (158) 
-24.3447

>  <r_i_glide_einternal>  (158) 
2.94029

>  <r_i_glide_intrahb_reward>  (158) 
-0

>  <i_i_glide_confnum>  (158) 
3

>  <i_i_glide_posenum>  (158) 
9

>  <r_i_glide_eff_state_penalty>  (158) 
0

>  <ligand_id>  (158) 
48

>  <original_smiles>  (158) 
CC(C)OC(=O)C1CN(C)CC12C(=O)Nc1ccccc12

>  <smiles>  (158) 
[H]c1c([H])c([H])c2c(c1[H])N([H])C(=O)C21C([H])([H])N(C([H])([H])[H])C([H])([H])C1([H])C(=O)OC([H])(C([H])([H])[H])C([H])([H])[H]

$$$$
49:0:0
     RDKit          3D

 65 70  0  0  1  0  0  0  0  0999 V2000
    6.3604  -10.8446    3.4144 C   0  0  0  0  0  0  0  0  0  0  0  0
    6.4990  -10.6936    1.8879 C   0  0  0  0  0  0  0  0  0  0  0  0
    6.9487  -11.6316    1.2154 O   0  0  0  0  0  0  0  0  0  0  0  0
    6.1185   -9.5158    1.3276 O   0  0  0  0  0  0  0  0  0  0  0  0
    5.9310   -8.3262    2.0929 C   0  0  2  0  0  0  0  0  0  0  0  0
    4.6144   -8.2755    2.8531 C   0  0  2  0  0  0  0  0  0  0  0  0
    3.4364   -9.2247    2.6725 C   0  0  0  0  0  0  0  0  0  0  0  0
    2.2121   -8.4929    3.2453 C   0  0  2  0  0  0  0  0  0  0  0  0
    2.4581   -8.0597    4.5780 O   0  0  0  0  0  0  0  0  0  0  0  0
    0.8627   -9.2146    3.2833 C   0  0  0  0  0  0  0  0  0  0  0  0
   -0.2042   -8.0769    3.2733 C   0  0  0  0  0  0  0  0  0  0  0  0
   -1.3401   -8.4404    2.3003 C   0  0  0  0  0  0  0  0  0  0  0  0
   -0.8079   -7.8624    4.6749 C   0  0  0  0  0  0  0  0  0  0  0  0
    0.5573   -6.7930    2.8155 C   0  0  0  0  0  0  0  0  0  0  0  0
    1.9022   -7.3182    2.3200 C   0  0  1  0  0  0  0  0  0  0  0  0
    3.0581   -6.3579    1.9547 C   0  0  1  0  0  0  0  0  0  0  0  0
    2.9862   -6.2104    0.5162 O   0  0  0  0  0  0  0  0  0  0  0  0
    2.9949   -5.0069    1.2376 C   0  0  2  0  0  0  0  0  0  0  0  0
    4.1564   -4.1543    0.8381 C   0  0  0  0  0  0  0  0  0  0  0  0
    3.9885   -2.9166    0.3585 C   0  0  0  0  0  0  0  0  0  0  0  0
    5.2800   -2.2208    0.0490 C   0  0  1  0  0  0  0  0  0  0  0  0
    5.5618   -1.2480    1.0310 O   0  0  0  0  0  0  0  0  0  0  0  0
    6.3041   -3.3716    0.1294 C   0  0  0  0  0  0  0  0  0  0  0  0
    5.6683   -4.4659    1.0236 C   0  0  2  0  0  0  0  0  0  0  0  0
    6.2642   -5.9020    0.7754 C   0  0  1  0  0  0  0  0  0  0  0  0
    7.7795   -5.9914    1.1236 C   0  0  0  0  0  0  0  0  0  0  0  0
    8.2221   -5.9182    2.5913 C   0  0  0  0  0  0  0  0  0  0  0  0
    8.5904   -6.0557    0.2259 O   0  0  0  0  0  0  0  0  0  0  0  0
    5.4324   -7.0665    1.3391 C   0  0  2  0  0  0  0  0  0  0  0  0
    4.4198   -6.7920    2.4796 C   0  0  2  0  0  0  0  0  0  0  0  0
    4.7912   -5.8586    3.6647 C   0  0  0  0  0  0  0  0  0  0  0  0
    5.9050  -10.0095    3.9596 H   0  0  0  0  0  0  0  0  0  0  0  0
    7.3127  -11.0814    3.8981 H   0  0  0  0  0  0  0  0  0  0  0  0
    5.7294  -11.7164    3.5776 H   0  0  0  0  0  0  0  0  0  0  0  0
    6.7519   -8.1591    2.7896 H   0  0  0  0  0  0  0  0  0  0  0  0
    4.8847   -8.2454    3.9013 H   0  0  0  0  0  0  0  0  0  0  0  0
    3.2904   -9.4724    1.6168 H   0  0  0  0  0  0  0  0  0  0  0  0
    3.6213  -10.1495    3.2111 H   0  0  0  0  0  0  0  0  0  0  0  0
    2.5816   -8.8256    5.1172 H   0  0  0  0  0  0  0  0  0  0  0  0
    0.7617   -9.8391    2.3934 H   0  0  0  0  0  0  0  0  0  0  0  0
    0.7689   -9.8828    4.1399 H   0  0  0  0  0  0  0  0  0  0  0  0
   -2.1052   -7.6667    2.2803 H   0  0  0  0  0  0  0  0  0  0  0  0
   -1.8194   -9.3732    2.6014 H   0  0  0  0  0  0  0  0  0  0  0  0
   -0.9748   -8.5698    1.2820 H   0  0  0  0  0  0  0  0  0  0  0  0
   -1.5408   -7.0541    4.6711 H   0  0  0  0  0  0  0  0  0  0  0  0
   -0.0433   -7.6125    5.4133 H   0  0  0  0  0  0  0  0  0  0  0  0
   -1.3138   -8.7631    5.0232 H   0  0  0  0  0  0  0  0  0  0  0  0
    0.0408   -6.2528    2.0242 H   0  0  0  0  0  0  0  0  0  0  0  0
    0.7244   -6.1065    3.6528 H   0  0  0  0  0  0  0  0  0  0  0  0
    1.6732   -7.8045    1.3689 H   0  0  0  0  0  0  0  0  0  0  0  0
    2.0441   -4.4841    1.2053 H   0  0  0  0  0  0  0  0  0  0  0  0
    3.0263   -2.4468    0.2008 H   0  0  0  0  0  0  0  0  0  0  0  0
    5.2366   -1.7671   -0.9426 H   0  0  0  0  0  0  0  0  0  0  0  0
    4.8869   -0.5883    0.9901 H   0  0  0  0  0  0  0  0  0  0  0  0
    6.4225   -3.7757   -0.8783 H   0  0  0  0  0  0  0  0  0  0  0  0
    7.2948   -3.0568    0.4697 H   0  0  0  0  0  0  0  0  0  0  0  0
    5.8984   -4.1713    2.0454 H   0  0  0  0  0  0  0  0  0  0  0  0
    6.2069   -6.0196   -0.3079 H   0  0  0  0  0  0  0  0  0  0  0  0
    7.9341   -6.7596    3.2031 H   0  0  0  0  0  0  0  0  0  0  0  0
    7.7870   -5.0548    3.0259 H   0  0  0  0  0  0  0  0  0  0  0  0
    9.3001   -5.8232    2.6443 H   0  0  0  0  0  0  0  0  0  0  0  0
    4.8950   -7.5105    0.4954 H   0  0  0  0  0  0  0  0  0  0  0  0
    4.4656   -4.8234    3.5256 H   0  0  0  0  0  0  0  0  0  0  0  0
    5.8643   -5.8515    3.8338 H   0  0  0  0  0  0  0  0  0  0  0  0
    4.3396   -6.1786    4.6079 H   0  0  0  0  0  0  0  0  0  0  0  0
  1  2  1  0
  1 32  1  0
  1 33  1  0
  1 34  1  0
  2  3  2  0
  2  4  1  0
  4  5  1  0
  5 29  1  0
  5  6  1  0
  5 35  1  1
  6 30  1  0
  6  7  1  0
  6 36  1  1
  7  8  1  0
  7 37  1  0
  7 38  1  0
  8 15  1  0
  8  9  1  1
  8 10  1  0
  9 39  1  0
 10 11  1  0
 10 40  1  0
 10 41  1  0
 11 12  1  0
 11 13  1  0
 11 14  1  0
 12 42  1  0
 12 43  1  0
 12 44  1  0
 13 45  1  0
 13 46  1  0
 13 47  1  0
 14 15  1  0
 14 48  1  0
 14 49  1  0
 15 16  1  0
 15 50  1  6
 16 18  1  0
 16 30  1  0
 16 17  1  6
 17 18  1  0
 18 19  1  0
 18 51  1  1
 19 24  1  0
 19 20  2  0
 20 21  1  0
 20 52  1  0
 21 22  1  0
 21 23  1  0
 21 53  1  6
 22 54  1  0
 23 24  1  0
 23 55  1  0
 23 56  1  0
 24 25  1  0
 24 57  1  1
 25 26  1  0
 25 29  1  0
 25 58  1  6
 26 27  1  0
 26 28  2  0
 27 59  1  0
 27 60  1  0
 27 61  1  0
 29 30  1  0
 29 62  1  6
 30 31  1  1
 31 63  1  0
 31 64  1  0
 31 65  1  0
M  END
>  <i_m_ct_stereo_status>  (159) 
1

>  <s_m_source_file>  (159) 
/var/tmp/pbs.5076255.sched01/tmp7c02qu8j/38qwqhi24o.sdf

>  <i_m_source_file_index>  (159) 
31

>  <i_lp_mmshare_version>  (159) 
48012

>  <i_f3d_flags>  (159) 
0

>  <s_epik_input>  (159) 
W09IXVtDQEBIXShbQ0gyXTEpW0NIXT1DKFtDQEhdMk8zKVtDQEhdMVtDQEBIXShDKD1PKVtDSDNdKVtDQEBIXShbQ0BASF00T0MoPU8pW0NIM10pW0NAXTUoW0NIM10pW0NASF00W0NIMl1bQ0BAXShbT0hdKShbQ0BASF02W0NAXTIzNSlbQ0gyXUMoW0NIM10pKFtDSDNdKVtDSDJdNg==

>  <s_epik_cmdline>  (159) 
J2VwaWtfcHl0aG9uJywgJy1waHQnLCAnMi4wJywgJy1waCcsICc3LjAnLCAnLXRuJywgJzgnLCAnLW1hJywgJzIwMCcsICctaW1hZScsICc8aW5maWxlLm1hZT4nLCAnLW9tYWUnLCAnPG91dGZpbGUubWFlPic=

>  <r_lp_tautomer_probability>  (159) 
1

>  <r_epik_Ionization_Penalty>  (159) 
3.20847e-07

>  <r_epik_Ionization_Penalty_Charging>  (159) 
0

>  <r_epik_Ionization_Penalty_Neutral>  (159) 
3.20847e-07

>  <r_epik_State_Penalty>  (159) 
-0

>  <r_epik_Charging_Adjusted_Penalty>  (159) 
0

>  <i_epik_Tot_Q>  (159) 
0

>  <i_epik_Tot_abs_Q>  (159) 
0

>  <s_epik_Chemistry_Notes>  (159) 
This compound has an ester and may undergo hydrolysis at high or low pH.

>  <s_lp_Force_Field>  (159) 
OPLS3e

>  <r_lp_Energy>  (159) 
59.8913

>  <b_lp_Chiralities_Consistent>  (159) 
1

>  <s_lp_Variant>  (159) 
49:0-1

>  <s_i_glide_gridfile>  (159) 
pfpi4k_grid

>  <i_i_glide_lignum>  (159) 
31

>  <i_i_glide_rotatable_bonds>  (159) 
5

>  <r_i_docking_score>  (159) 
-3.18366

>  <r_i_glide_ligand_efficiency>  (159) 
-0.102699

>  <r_i_glide_ligand_efficiency_sa>  (159) 
-0.322616

>  <r_i_glide_ligand_efficiency_ln>  (159) 
-0.718014

>  <r_i_glide_gscore>  (159) 
-3.18366

>  <r_i_glide_lipo>  (159) 
-0.444067

>  <r_i_glide_hbond>  (159) 
-0.32

>  <r_i_glide_metal>  (159) 
-0

>  <r_i_glide_rewards>  (159) 
-0.479535

>  <r_i_glide_evdw>  (159) 
-27.328

>  <r_i_glide_ecoul>  (159) 
-4.14023

>  <r_i_glide_erotb>  (159) 
0.107262

>  <r_i_glide_esite>  (159) 
-0.059889

>  <r_i_glide_emodel>  (159) 
-32.3328

>  <r_i_glide_energy>  (159) 
-31.4683

>  <r_i_glide_einternal>  (159) 
7.33385

>  <r_i_glide_intrahb_reward>  (159) 
-0

>  <i_i_glide_confnum>  (159) 
5

>  <i_i_glide_posenum>  (159) 
9

>  <r_i_glide_eff_state_penalty>  (159) 
0

>  <ligand_id>  (159) 
49

>  <original_smiles>  (159) 
CC(=O)OC1C2CC3(O)CC(C)(C)CC3C34OC3C3=CC(O)CC3C(C(C)=O)C1C24C

>  <smiles>  (159) 
[H]OC1([H])C([H])=C2C3([H])OC34C3([H])C([H])([H])C(C([H])([H])[H])(C([H])([H])[H])C([H])([H])C3(O[H])C([H])([H])C3([H])C([H])(OC(=O)C([H])([H])[H])C([H])(C([H])(C(=O)C([H])([H])[H])C2([H])C1([H])[H])C34C([H])([H])[H]

$$$$
49:0:1
     RDKit          3D

 65 70  0  0  1  0  0  0  0  0999 V2000
    8.6933   -7.7563    3.1540 C   0  0  0  0  0  0  0  0  0  0  0  0
    7.9024   -6.4744    3.3404 C   0  0  0  0  0  0  0  0  0  0  0  0
    7.9302   -5.8628    4.4041 O   0  0  0  0  0  0  0  0  0  0  0  0
    7.1853   -6.1490    2.2420 O   0  0  0  0  0  0  0  0  0  0  0  0
    6.3598   -4.9848    2.2382 C   0  0  2  0  0  0  0  0  0  0  0  0
    5.0652   -5.1596    3.0301 C   0  0  2  0  0  0  0  0  0  0  0  0
    4.4777   -6.4850    3.5346 C   0  0  0  0  0  0  0  0  0  0  0  0
    2.9577   -6.2577    3.6895 C   0  0  2  0  0  0  0  0  0  0  0  0
    2.7083   -5.1073    4.4821 O   0  0  0  0  0  0  0  0  0  0  0  0
    2.0761   -7.3687    4.2751 C   0  0  0  0  0  0  0  0  0  0  0  0
    0.6427   -7.0946    3.7180 C   0  0  0  0  0  0  0  0  0  0  0  0
    0.0020   -8.4174    3.2505 C   0  0  0  0  0  0  0  0  0  0  0  0
   -0.2676   -6.4677    4.7941 C   0  0  0  0  0  0  0  0  0  0  0  0
    0.8478   -6.1036    2.5308 C   0  0  0  0  0  0  0  0  0  0  0  0
    2.3539   -6.1028    2.2979 C   0  0  1  0  0  0  0  0  0  0  0  0
    3.0252   -5.0912    1.3431 C   0  0  1  0  0  0  0  0  0  0  0  0
    3.2072   -5.7941    0.1051 O   0  0  0  0  0  0  0  0  0  0  0  0
    2.5121   -4.5995   -0.0178 C   0  0  2  0  0  0  0  0  0  0  0  0
    3.1996   -3.6548   -0.9524 C   0  0  0  0  0  0  0  0  0  0  0  0
    2.6115   -3.1618   -2.0291 C   0  0  0  0  0  0  0  0  0  0  0  0
    3.4954   -2.2680   -2.8476 C   0  0  1  0  0  0  0  0  0  0  0  0
    3.0985   -0.9313   -2.6849 O   0  0  0  0  0  0  0  0  0  0  0  0
    4.8756   -2.5319   -2.2291 C   0  0  0  0  0  0  0  0  0  0  0  0
    4.6288   -3.0813   -0.8062 C   0  0  2  0  0  0  0  0  0  0  0  0
    5.8179   -3.9529   -0.2659 C   0  0  1  0  0  0  0  0  0  0  0  0
    7.1106   -3.1139   -0.0963 C   0  0  0  0  0  0  0  0  0  0  0  0
    8.4480   -3.8526   -0.0812 C   0  0  0  0  0  0  0  0  0  0  0  0
    7.0781   -1.8904    0.0087 O   0  0  0  0  0  0  0  0  0  0  0  0
    5.5035   -4.8079    0.9935 C   0  0  2  0  0  0  0  0  0  0  0  0
    4.2977   -4.4527    1.8904 C   0  0  2  0  0  0  0  0  0  0  0  0
    4.0028   -2.9865    2.2442 C   0  0  0  0  0  0  0  0  0  0  0  0
    8.6557   -8.0557    2.1081 H   0  0  0  0  0  0  0  0  0  0  0  0
    8.2504   -8.5443    3.7610 H   0  0  0  0  0  0  0  0  0  0  0  0
    9.7381   -7.6252    3.4446 H   0  0  0  0  0  0  0  0  0  0  0  0
    6.8535   -4.0496    2.4729 H   0  0  0  0  0  0  0  0  0  0  0  0
    5.1565   -4.4755    3.8615 H   0  0  0  0  0  0  0  0  0  0  0  0
    4.6700   -7.2855    2.8154 H   0  0  0  0  0  0  0  0  0  0  0  0
    4.9407   -6.7758    4.4767 H   0  0  0  0  0  0  0  0  0  0  0  0
    3.0608   -5.2611    5.3470 H   0  0  0  0  0  0  0  0  0  0  0  0
    2.4319   -8.3359    3.9194 H   0  0  0  0  0  0  0  0  0  0  0  0
    2.1098   -7.4009    5.3643 H   0  0  0  0  0  0  0  0  0  0  0  0
   -1.0036   -8.2642    2.8545 H   0  0  0  0  0  0  0  0  0  0  0  0
   -0.0823   -9.1240    4.0781 H   0  0  0  0  0  0  0  0  0  0  0  0
    0.5935   -8.8970    2.4699 H   0  0  0  0  0  0  0  0  0  0  0  0
   -1.2695   -6.2743    4.4065 H   0  0  0  0  0  0  0  0  0  0  0  0
    0.1318   -5.5219    5.1608 H   0  0  0  0  0  0  0  0  0  0  0  0
   -0.3761   -7.1303    5.6530 H   0  0  0  0  0  0  0  0  0  0  0  0
    0.2972   -6.4045    1.6397 H   0  0  0  0  0  0  0  0  0  0  0  0
    0.5348   -5.0957    2.8062 H   0  0  0  0  0  0  0  0  0  0  0  0
    2.5485   -7.0629    1.8265 H   0  0  0  0  0  0  0  0  0  0  0  0
    1.4732   -4.7577   -0.2806 H   0  0  0  0  0  0  0  0  0  0  0  0
    1.5955   -3.3872   -2.3420 H   0  0  0  0  0  0  0  0  0  0  0  0
    3.4511   -2.5346   -3.9058 H   0  0  0  0  0  0  0  0  0  0  0  0
    2.4049   -0.9052   -2.0285 H   0  0  0  0  0  0  0  0  0  0  0  0
    5.3525   -3.3141   -2.8213 H   0  0  0  0  0  0  0  0  0  0  0  0
    5.5370   -1.6600   -2.2498 H   0  0  0  0  0  0  0  0  0  0  0  0
    4.5036   -2.2149   -0.1677 H   0  0  0  0  0  0  0  0  0  0  0  0
    6.0498   -4.6552   -1.0657 H   0  0  0  0  0  0  0  0  0  0  0  0
    8.6331   -4.3193   -1.0464 H   0  0  0  0  0  0  0  0  0  0  0  0
    8.4641   -4.6276    0.6820 H   0  0  0  0  0  0  0  0  0  0  0  0
    9.2580   -3.1549    0.1339 H   0  0  0  0  0  0  0  0  0  0  0  0
    5.4277   -5.8399    0.6720 H   0  0  0  0  0  0  0  0  0  0  0  0
    3.2779   -2.5358    1.5676 H   0  0  0  0  0  0  0  0  0  0  0  0
    4.9116   -2.3887    2.2013 H   0  0  0  0  0  0  0  0  0  0  0  0
    3.5773   -2.8819    3.2429 H   0  0  0  0  0  0  0  0  0  0  0  0
  1  2  1  0
  1 32  1  0
  1 33  1  0
  1 34  1  0
  2  3  2  0
  2  4  1  0
  4  5  1  0
  5 29  1  0
  5  6  1  0
  5 35  1  1
  6 30  1  0
  6  7  1  0
  6 36  1  1
  7  8  1  0
  7 37  1  0
  7 38  1  0
  8 15  1  0
  8  9  1  1
  8 10  1  0
  9 39  1  0
 10 11  1  0
 10 40  1  0
 10 41  1  0
 11 12  1  0
 11 13  1  0
 11 14  1  0
 12 42  1  0
 12 43  1  0
 12 44  1  0
 13 45  1  0
 13 46  1  0
 13 47  1  0
 14 15  1  0
 14 48  1  0
 14 49  1  0
 15 16  1  0
 15 50  1  6
 16 18  1  0
 16 30  1  0
 16 17  1  6
 17 18  1  0
 18 19  1  0
 18 51  1  1
 19 24  1  0
 19 20  2  0
 20 21  1  0
 20 52  1  0
 21 22  1  0
 21 23  1  0
 21 53  1  6
 22 54  1  0
 23 24  1  0
 23 55  1  0
 23 56  1  0
 24 25  1  0
 24 57  1  1
 25 26  1  0
 25 29  1  0
 25 58  1  6
 26 27  1  0
 26 28  2  0
 27 59  1  0
 27 60  1  0
 27 61  1  0
 29 30  1  0
 29 62  1  6
 30 31  1  1
 31 63  1  0
 31 64  1  0
 31 65  1  0
M  END
>  <i_m_ct_stereo_status>  (160) 
1

>  <s_m_source_file>  (160) 
/var/tmp/pbs.5076255.sched01/tmp7c02qu8j/38qwqhi24o.sdf

>  <i_m_source_file_index>  (160) 
31

>  <i_lp_mmshare_version>  (160) 
48012

>  <i_f3d_flags>  (160) 
0

>  <s_epik_input>  (160) 
W09IXVtDQEBIXShbQ0gyXTEpW0NIXT1DKFtDQEhdMk8zKVtDQEhdMVtDQEBIXShDKD1PKVtDSDNdKVtDQEBIXShbQ0BASF00T0MoPU8pW0NIM10pW0NAXTUoW0NIM10pW0NASF00W0NIMl1bQ0BAXShbT0hdKShbQ0BASF02W0NAXTIzNSlbQ0gyXUMoW0NIM10pKFtDSDNdKVtDSDJdNg==

>  <s_epik_cmdline>  (160) 
J2VwaWtfcHl0aG9uJywgJy1waHQnLCAnMi4wJywgJy1waCcsICc3LjAnLCAnLXRuJywgJzgnLCAnLW1hJywgJzIwMCcsICctaW1hZScsICc8aW5maWxlLm1hZT4nLCAnLW9tYWUnLCAnPG91dGZpbGUubWFlPic=

>  <r_lp_tautomer_probability>  (160) 
1

>  <r_epik_Ionization_Penalty>  (160) 
3.20847e-07

>  <r_epik_Ionization_Penalty_Charging>  (160) 
0

>  <r_epik_Ionization_Penalty_Neutral>  (160) 
3.20847e-07

>  <r_epik_State_Penalty>  (160) 
-0

>  <r_epik_Charging_Adjusted_Penalty>  (160) 
0

>  <i_epik_Tot_Q>  (160) 
0

>  <i_epik_Tot_abs_Q>  (160) 
0

>  <s_epik_Chemistry_Notes>  (160) 
This compound has an ester and may undergo hydrolysis at high or low pH.

>  <s_lp_Force_Field>  (160) 
OPLS3e

>  <r_lp_Energy>  (160) 
59.8913

>  <b_lp_Chiralities_Consistent>  (160) 
1

>  <s_lp_Variant>  (160) 
49:0-1

>  <s_i_glide_gridfile>  (160) 
pfpi4k_grid

>  <i_i_glide_lignum>  (160) 
31

>  <i_i_glide_rotatable_bonds>  (160) 
5

>  <r_i_docking_score>  (160) 
-2.74166

>  <r_i_glide_ligand_efficiency>  (160) 
-0.0884406

>  <r_i_glide_ligand_efficiency_sa>  (160) 
-0.277826

>  <r_i_glide_ligand_efficiency_ln>  (160) 
-0.618328

>  <r_i_glide_gscore>  (160) 
-2.74166

>  <r_i_glide_lipo>  (160) 
-0.434813

>  <r_i_glide_hbond>  (160) 
-0.223473

>  <r_i_glide_metal>  (160) 
-0

>  <r_i_glide_rewards>  (160) 
-0.644729

>  <r_i_glide_evdw>  (160) 
-25.093

>  <r_i_glide_ecoul>  (160) 
-1.94168

>  <r_i_glide_erotb>  (160) 
0.107262

>  <r_i_glide_esite>  (160) 
0

>  <r_i_glide_emodel>  (160) 
-30.7171

>  <r_i_glide_energy>  (160) 
-27.0347

>  <r_i_glide_einternal>  (160) 
1.64803

>  <r_i_glide_intrahb_reward>  (160) 
-0

>  <i_i_glide_confnum>  (160) 
2

>  <i_i_glide_posenum>  (160) 
13

>  <r_i_glide_eff_state_penalty>  (160) 
0

>  <ligand_id>  (160) 
49

>  <original_smiles>  (160) 
CC(=O)OC1C2CC3(O)CC(C)(C)CC3C34OC3C3=CC(O)CC3C(C(C)=O)C1C24C

>  <smiles>  (160) 
[H]OC1([H])C([H])=C2C3([H])OC34C3([H])C([H])([H])C(C([H])([H])[H])(C([H])([H])[H])C([H])([H])C3(O[H])C([H])([H])C3([H])C([H])(OC(=O)C([H])([H])[H])C([H])(C([H])(C(=O)C([H])([H])[H])C2([H])C1([H])[H])C34C([H])([H])[H]

$$$$
49:0:2
     RDKit          3D

 65 70  0  0  1  0  0  0  0  0999 V2000
    6.6455  -11.7623    1.1622 C   0  0  0  0  0  0  0  0  0  0  0  0
    6.5278  -10.5608    2.0802 C   0  0  0  0  0  0  0  0  0  0  0  0
    6.9834  -10.5959    3.2236 O   0  0  0  0  0  0  0  0  0  0  0  0
    5.9138   -9.5196    1.5037 O   0  0  0  0  0  0  0  0  0  0  0  0
    5.7570   -8.3266    2.2731 C   0  0  2  0  0  0  0  0  0  0  0  0
    4.4296   -8.2907    3.0421 C   0  0  2  0  0  0  0  0  0  0  0  0
    3.2365   -9.2134    2.8476 C   0  0  0  0  0  0  0  0  0  0  0  0
    1.9964   -8.4519    3.3550 C   0  0  2  0  0  0  0  0  0  0  0  0
    2.2028   -7.9668    4.6749 O   0  0  0  0  0  0  0  0  0  0  0  0
    0.6357   -9.1502    3.3774 C   0  0  0  0  0  0  0  0  0  0  0  0
   -0.4237   -8.0062    3.3123 C   0  0  0  0  0  0  0  0  0  0  0  0
   -1.5392   -8.3891    2.3199 C   0  0  0  0  0  0  0  0  0  0  0  0
   -1.0659   -7.7608    4.6918 C   0  0  0  0  0  0  0  0  0  0  0  0
    0.3638   -6.7435    2.8403 C   0  0  0  0  0  0  0  0  0  0  0  0
    1.7133   -7.2992    2.3957 C   0  0  1  0  0  0  0  0  0  0  0  0
    2.8915   -6.3605    2.0461 C   0  0  1  0  0  0  0  0  0  0  0  0
    2.8580   -6.2278    0.6149 O   0  0  0  0  0  0  0  0  0  0  0  0
    2.8396   -5.0203    1.3042 C   0  0  2  0  0  0  0  0  0  0  0  0
    4.0076   -4.1615    0.9108 C   0  0  0  0  0  0  0  0  0  0  0  0
    3.8536   -2.9430    0.3985 C   0  0  0  0  0  0  0  0  0  0  0  0
    5.1599   -2.2580    0.0965 C   0  0  1  0  0  0  0  0  0  0  0  0
    5.4216   -1.2601    1.0571 O   0  0  0  0  0  0  0  0  0  0  0  0
    6.1692   -3.4131    0.2259 C   0  0  0  0  0  0  0  0  0  0  0  0
    5.5046   -4.4817    1.1249 C   0  0  2  0  0  0  0  0  0  0  0  0
    6.0945   -5.9316    0.9169 C   0  0  1  0  0  0  0  0  0  0  0  0
    7.5901   -6.0163    1.3014 C   0  0  0  0  0  0  0  0  0  0  0  0
    8.0177   -5.9369    2.7753 C   0  0  0  0  0  0  0  0  0  0  0  0
    8.4380   -6.0968    0.4277 O   0  0  0  0  0  0  0  0  0  0  0  0
    5.2555   -7.0892    1.5085 C   0  0  2  0  0  0  0  0  0  0  0  0
    4.2371   -6.8055    2.6336 C   0  0  2  0  0  0  0  0  0  0  0  0
    4.5826   -5.8393    3.7870 C   0  0  0  0  0  0  0  0  0  0  0  0
    6.3270  -11.4587    0.1598 H   0  0  0  0  0  0  0  0  0  0  0  0
    5.9431  -12.5218    1.5238 H   0  0  0  0  0  0  0  0  0  0  0  0
    7.6463  -12.1815    1.1364 H   0  0  0  0  0  0  0  0  0  0  0  0
    6.5621   -8.1766    2.9741 H   0  0  0  0  0  0  0  0  0  0  0  0
    4.7353   -8.3161    4.0824 H   0  0  0  0  0  0  0  0  0  0  0  0
    3.1261   -9.4528    1.7914 H   0  0  0  0  0  0  0  0  0  0  0  0
    3.3807  -10.1487    3.3809 H   0  0  0  0  0  0  0  0  0  0  0  0
    3.0392   -7.5237    4.6987 H   0  0  0  0  0  0  0  0  0  0  0  0
    0.5526   -9.7897    2.5003 H   0  0  0  0  0  0  0  0  0  0  0  0
    0.5158   -9.7954    4.2519 H   0  0  0  0  0  0  0  0  0  0  0  0
   -2.2988   -7.6122    2.2618 H   0  0  0  0  0  0  0  0  0  0  0  0
   -2.0368   -9.3082    2.6270 H   0  0  0  0  0  0  0  0  0  0  0  0
   -1.1430   -8.5458    1.3167 H   0  0  0  0  0  0  0  0  0  0  0  0
   -1.7959   -6.9501    4.6577 H   0  0  0  0  0  0  0  0  0  0  0  0
   -0.3194   -7.5006    5.4444 H   0  0  0  0  0  0  0  0  0  0  0  0
   -1.5816   -8.6559    5.0445 H   0  0  0  0  0  0  0  0  0  0  0  0
   -0.1402   -6.2191    2.0308 H   0  0  0  0  0  0  0  0  0  0  0  0
    0.5029   -6.0349    3.6632 H   0  0  0  0  0  0  0  0  0  0  0  0
    1.4913   -7.7964    1.4481 H   0  0  0  0  0  0  0  0  0  0  0  0
    1.8965   -4.5056    1.2328 H   0  0  0  0  0  0  0  0  0  0  0  0
    2.9027   -2.4635    0.1995 H   0  0  0  0  0  0  0  0  0  0  0  0
    5.1471   -1.8215   -0.9055 H   0  0  0  0  0  0  0  0  0  0  0  0
    4.7917   -0.5601    0.9480 H   0  0  0  0  0  0  0  0  0  0  0  0
    6.3053   -3.8354   -0.7727 H   0  0  0  0  0  0  0  0  0  0  0  0
    7.1587   -3.0944    0.5771 H   0  0  0  0  0  0  0  0  0  0  0  0
    5.7195   -4.1708    2.1388 H   0  0  0  0  0  0  0  0  0  0  0  0
    6.0710   -6.0823   -0.1680 H   0  0  0  0  0  0  0  0  0  0  0  0
    7.6941   -6.7353    3.4166 H   0  0  0  0  0  0  0  0  0  0  0  0
    7.5592   -5.0580    3.2250 H   0  0  0  0  0  0  0  0  0  0  0  0
    9.1045   -5.8366    2.8661 H   0  0  0  0  0  0  0  0  0  0  0  0
    4.7412   -7.5554    0.6817 H   0  0  0  0  0  0  0  0  0  0  0  0
    4.2614   -4.8142    3.5937 H   0  0  0  0  0  0  0  0  0  0  0  0
    5.6510   -5.8105    3.9751 H   0  0  0  0  0  0  0  0  0  0  0  0
    4.1211   -6.1174    4.7343 H   0  0  0  0  0  0  0  0  0  0  0  0
  1  2  1  0
  1 32  1  0
  1 33  1  0
  1 34  1  0
  2  3  2  0
  2  4  1  0
  4  5  1  0
  5 29  1  0
  5  6  1  0
  5 35  1  1
  6 30  1  0
  6  7  1  0
  6 36  1  1
  7  8  1  0
  7 37  1  0
  7 38  1  0
  8 15  1  0
  8  9  1  1
  8 10  1  0
  9 39  1  0
 10 11  1  0
 10 40  1  0
 10 41  1  0
 11 12  1  0
 11 13  1  0
 11 14  1  0
 12 42  1  0
 12 43  1  0
 12 44  1  0
 13 45  1  0
 13 46  1  0
 13 47  1  0
 14 15  1  0
 14 48  1  0
 14 49  1  0
 15 16  1  0
 15 50  1  6
 16 18  1  0
 16 30  1  0
 16 17  1  6
 17 18  1  0
 18 19  1  0
 18 51  1  1
 19 24  1  0
 19 20  2  0
 20 21  1  0
 20 52  1  0
 21 22  1  0
 21 23  1  0
 21 53  1  6
 22 54  1  0
 23 24  1  0
 23 55  1  0
 23 56  1  0
 24 25  1  0
 24 57  1  1
 25 26  1  0
 25 29  1  0
 25 58  1  6
 26 27  1  0
 26 28  2  0
 27 59  1  0
 27 60  1  0
 27 61  1  0
 29 30  1  0
 29 62  1  6
 30 31  1  1
 31 63  1  0
 31 64  1  0
 31 65  1  0
M  END
>  <i_m_ct_stereo_status>  (161) 
1

>  <s_m_source_file>  (161) 
/var/tmp/pbs.5076255.sched01/tmp7c02qu8j/38qwqhi24o.sdf

>  <i_m_source_file_index>  (161) 
31

>  <i_lp_mmshare_version>  (161) 
48012

>  <i_f3d_flags>  (161) 
0

>  <s_epik_input>  (161) 
W09IXVtDQEBIXShbQ0gyXTEpW0NIXT1DKFtDQEhdMk8zKVtDQEhdMVtDQEBIXShDKD1PKVtDSDNdKVtDQEBIXShbQ0BASF00T0MoPU8pW0NIM10pW0NAXTUoW0NIM10pW0NASF00W0NIMl1bQ0BAXShbT0hdKShbQ0BASF02W0NAXTIzNSlbQ0gyXUMoW0NIM10pKFtDSDNdKVtDSDJdNg==

>  <s_epik_cmdline>  (161) 
J2VwaWtfcHl0aG9uJywgJy1waHQnLCAnMi4wJywgJy1waCcsICc3LjAnLCAnLXRuJywgJzgnLCAnLW1hJywgJzIwMCcsICctaW1hZScsICc8aW5maWxlLm1hZT4nLCAnLW9tYWUnLCAnPG91dGZpbGUubWFlPic=

>  <r_lp_tautomer_probability>  (161) 
1

>  <r_epik_Ionization_Penalty>  (161) 
3.20847e-07

>  <r_epik_Ionization_Penalty_Charging>  (161) 
0

>  <r_epik_Ionization_Penalty_Neutral>  (161) 
3.20847e-07

>  <r_epik_State_Penalty>  (161) 
-0

>  <r_epik_Charging_Adjusted_Penalty>  (161) 
0

>  <i_epik_Tot_Q>  (161) 
0

>  <i_epik_Tot_abs_Q>  (161) 
0

>  <s_epik_Chemistry_Notes>  (161) 
This compound has an ester and may undergo hydrolysis at high or low pH.

>  <s_lp_Force_Field>  (161) 
OPLS3e

>  <r_lp_Energy>  (161) 
59.8913

>  <b_lp_Chiralities_Consistent>  (161) 
1

>  <s_lp_Variant>  (161) 
49:0-1

>  <s_i_glide_gridfile>  (161) 
pfpi4k_grid

>  <i_i_glide_lignum>  (161) 
31

>  <i_i_glide_rotatable_bonds>  (161) 
5

>  <r_i_docking_score>  (161) 
-2.41646

>  <r_i_glide_ligand_efficiency>  (161) 
-0.0779504

>  <r_i_glide_ligand_efficiency_sa>  (161) 
-0.244872

>  <r_i_glide_ligand_efficiency_ln>  (161) 
-0.544987

>  <r_i_glide_gscore>  (161) 
-2.41646

>  <r_i_glide_lipo>  (161) 
-0.439327

>  <r_i_glide_hbond>  (161) 
0

>  <r_i_glide_metal>  (161) 
-0

>  <r_i_glide_rewards>  (161) 
-0.51003

>  <r_i_glide_evdw>  (161) 
-28.3295

>  <r_i_glide_ecoul>  (161) 
-0.765754

>  <r_i_glide_erotb>  (161) 
0.107262

>  <r_i_glide_esite>  (161) 
-0.0430305

>  <r_i_glide_emodel>  (161) 
-31.2514

>  <r_i_glide_energy>  (161) 
-29.0952

>  <r_i_glide_einternal>  (161) 
2.38047

>  <r_i_glide_intrahb_reward>  (161) 
-0

>  <i_i_glide_confnum>  (161) 
5

>  <i_i_glide_posenum>  (161) 
10

>  <r_i_glide_eff_state_penalty>  (161) 
0

>  <ligand_id>  (161) 
49

>  <original_smiles>  (161) 
CC(=O)OC1C2CC3(O)CC(C)(C)CC3C34OC3C3=CC(O)CC3C(C(C)=O)C1C24C

>  <smiles>  (161) 
[H]OC1([H])C([H])=C2C3([H])OC34C3([H])C([H])([H])C(C([H])([H])[H])(C([H])([H])[H])C([H])([H])C3(O[H])C([H])([H])C3([H])C([H])(OC(=O)C([H])([H])[H])C([H])(C([H])(C(=O)C([H])([H])[H])C2([H])C1([H])[H])C34C([H])([H])[H]

$$$$
50:0:0
     RDKit          3D

 35 38  0  0  1  0  0  0  0  0999 V2000
    2.7700   -3.0776   -2.2649 C   0  0  0  0  0  0  0  0  0  0  0  0
    4.1753   -2.6061   -2.6678 C   0  0  0  0  0  0  0  0  0  0  0  0
    4.8191   -3.7811   -3.4546 C   0  0  0  0  0  0  0  0  0  0  0  0
    4.0425   -1.4125   -3.6350 C   0  0  0  0  0  0  0  0  0  0  0  0
    5.0668   -2.2442   -1.4739 C   0  0  0  0  0  0  0  0  0  0  0  0
    6.4125   -2.2596   -1.5178 N   0  0  0  0  0  0  0  0  0  0  0  0
    6.9044   -1.8548   -0.2586 N   0  0  0  0  0  0  0  0  0  0  0  0
    5.8691   -1.5581    0.4845 C   0  0  0  0  0  0  0  0  0  0  0  0
    5.3532   -1.0065    2.0747 S   0  0  0  0  0  0  0  0  0  0  0  0
    3.6602   -1.1118    1.4810 C   0  0  0  0  0  0  0  0  0  0  0  0
    2.5291   -0.7770    2.3783 C   0  0  0  0  0  0  0  0  0  0  0  0
    2.3456   -1.4363    3.6162 C   0  0  0  0  0  0  0  0  0  0  0  0
    1.2754   -1.0518    4.4494 C   0  0  0  0  0  0  0  0  0  0  0  0
    0.4034   -0.0265    4.0420 C   0  0  0  0  0  0  0  0  0  0  0  0
   -0.6450    0.3471    4.8115 N   0  0  0  0  0  0  0  0  0  0  0  0
   -1.4131    1.3364    4.3604 C   0  0  0  0  0  0  0  0  0  0  0  0
   -1.2605    1.9915    3.2148 N   0  0  0  0  0  0  0  0  0  0  0  0
   -0.2274    1.6209    2.4284 C   0  0  0  0  0  0  0  0  0  0  0  0
    0.6697    0.5903    2.7868 C   0  0  0  0  0  0  0  0  0  0  0  0
    1.6984    0.2176    1.9874 N   0  0  0  0  0  0  0  0  0  0  0  0
    3.5012   -1.5240    0.2147 N   0  0  0  0  0  0  0  0  0  0  0  0
    4.7503   -1.7704   -0.2530 N   0  0  0  0  0  0  0  0  0  0  0  0
    2.1710   -3.3948   -3.1272 H   0  0  0  0  0  0  0  0  0  0  0  0
    2.1930   -2.2724   -1.8097 H   0  0  0  0  0  0  0  0  0  0  0  0
    2.8384   -3.9125   -1.5591 H   0  0  0  0  0  0  0  0  0  0  0  0
    4.9835   -4.6575   -2.8206 H   0  0  0  0  0  0  0  0  0  0  0  0
    5.7860   -3.5176   -3.8765 H   0  0  0  0  0  0  0  0  0  0  0  0
    4.1960   -4.1043   -4.2891 H   0  0  0  0  0  0  0  0  0  0  0  0
    3.3877   -1.6635   -4.4692 H   0  0  0  0  0  0  0  0  0  0  0  0
    5.0008   -1.1293   -4.0596 H   0  0  0  0  0  0  0  0  0  0  0  0
    3.6163   -0.5412   -3.1389 H   0  0  0  0  0  0  0  0  0  0  0  0
    3.0303   -2.2112    3.9299 H   0  0  0  0  0  0  0  0  0  0  0  0
    1.1119   -1.5377    5.4045 H   0  0  0  0  0  0  0  0  0  0  0  0
   -2.2374    1.6490    4.9827 H   0  0  0  0  0  0  0  0  0  0  0  0
   -0.1235    2.1374    1.4918 H   0  0  0  0  0  0  0  0  0  0  0  0
  1  2  1  0
  1 23  1  0
  1 24  1  0
  1 25  1  0
  2  3  1  0
  2  4  1  0
  2  5  1  0
  3 26  1  0
  3 27  1  0
  3 28  1  0
  4 29  1  0
  4 30  1  0
  4 31  1  0
  5 22  1  0
  5  6  2  0
  6  7  1  0
  7  8  2  0
  8 22  1  0
  8  9  1  0
  9 10  1  0
 10 11  1  0
 10 21  2  0
 11 20  1  0
 11 12  2  0
 12 13  1  0
 12 32  1  0
 13 14  2  0
 13 33  1  0
 14 19  1  0
 14 15  1  0
 15 16  2  0
 16 17  1  0
 16 34  1  0
 17 18  2  0
 18 19  1  0
 18 35  1  0
 19 20  2  0
 21 22  1  0
M  END
>  <i_m_ct_stereo_status>  (162) 
1

>  <s_m_source_file>  (162) 
/var/tmp/pbs.5076255.sched01/tmp7c02qu8j/38qwqhi24o.sdf

>  <i_m_source_file_index>  (162) 
32

>  <i_lp_mmshare_version>  (162) 
48012

>  <i_f3d_flags>  (162) 
0

>  <s_epik_input>  (162) 
W0NIM11DKFtDSDNdKShbQ0gzXSljKG5uMSluKGMxMiluYyhzMiktYyhbY0hdW2NIXTMpbmMoYzM0KVtjSF1uW2NIXW40

>  <s_epik_cmdline>  (162) 
J2VwaWtfcHl0aG9uJywgJy1waHQnLCAnMi4wJywgJy1waCcsICc3LjAnLCAnLXRuJywgJzgnLCAnLW1hJywgJzIwMCcsICctaW1hZScsICc8aW5maWxlLm1hZT4nLCAnLW9tYWUnLCAnPG91dGZpbGUubWFlPic=

>  <r_lp_tautomer_probability>  (162) 
1

>  <r_epik_Ionization_Penalty>  (162) 
2.18678e-07

>  <r_epik_Ionization_Penalty_Charging>  (162) 
0

>  <r_epik_Ionization_Penalty_Neutral>  (162) 
2.18678e-07

>  <r_epik_State_Penalty>  (162) 
-0

>  <r_epik_Charging_Adjusted_Penalty>  (162) 
0

>  <i_epik_Tot_Q>  (162) 
0

>  <i_epik_Tot_abs_Q>  (162) 
0

>  <s_epik_Chemistry_Notes>  (162) 
This compound contains an electron-poor aromatic ring that is susceptible to covalent hydrolysis at low pH, typically resulting in measured values for nitrogen ring protonation that are around two units higher than predicted values.

>  <s_lp_Force_Field>  (162) 
OPLS3e

>  <r_lp_Energy>  (162) 
26.6783

>  <b_lp_Chiralities_Consistent>  (162) 
1

>  <s_lp_Variant>  (162) 
50:0-1

>  <s_i_glide_gridfile>  (162) 
pfpi4k_grid

>  <i_i_glide_lignum>  (162) 
32

>  <i_i_glide_rotatable_bonds>  (162) 
2

>  <r_i_docking_score>  (162) 
-3.94537

>  <r_i_glide_ligand_efficiency>  (162) 
-0.179335

>  <r_i_glide_ligand_efficiency_sa>  (162) 
-0.502504

>  <r_i_glide_ligand_efficiency_ln>  (162) 
-0.964393

>  <r_i_glide_gscore>  (162) 
-3.94537

>  <r_i_glide_lipo>  (162) 
-0.476601

>  <r_i_glide_hbond>  (162) 
0

>  <r_i_glide_metal>  (162) 
-0

>  <r_i_glide_rewards>  (162) 
-1.41605

>  <r_i_glide_evdw>  (162) 
-31.7561

>  <r_i_glide_ecoul>  (162) 
-3.16962

>  <r_i_glide_erotb>  (162) 
0.191279

>  <r_i_glide_esite>  (162) 
-0.180756

>  <r_i_glide_emodel>  (162) 
-40.052

>  <r_i_glide_energy>  (162) 
-34.9258

>  <r_i_glide_einternal>  (162) 
7.2978

>  <r_i_glide_intrahb_reward>  (162) 
-0

>  <i_i_glide_confnum>  (162) 
4

>  <i_i_glide_posenum>  (162) 
23

>  <r_i_glide_eff_state_penalty>  (162) 
0

>  <ligand_id>  (162) 
50

>  <original_smiles>  (162) 
CC(C)(C)c1nnc2sc(-c3ccc4ncncc4n3)nn12

>  <smiles>  (162) 
[H]c1nc([H])c2nc(-c3nn4c(C(C([H])([H])[H])(C([H])([H])[H])C([H])([H])[H])nnc4s3)c([H])c([H])c2n1

$$$$
50:0:1
     RDKit          3D

 35 38  0  0  1  0  0  0  0  0999 V2000
   -2.3393    2.5084    3.2474 C   0  0  0  0  0  0  0  0  0  0  0  0
   -1.1309    2.2665    4.1759 C   0  0  0  0  0  0  0  0  0  0  0  0
    0.1022    2.9251    3.5262 C   0  0  0  0  0  0  0  0  0  0  0  0
   -1.4081    3.0212    5.5016 C   0  0  0  0  0  0  0  0  0  0  0  0
   -0.9447    0.7688    4.4704 C   0  0  0  0  0  0  0  0  0  0  0  0
   -1.7879    0.0569    5.2509 N   0  0  0  0  0  0  0  0  0  0  0  0
   -1.3278   -1.2819    5.2944 N   0  0  0  0  0  0  0  0  0  0  0  0
   -0.2647   -1.3458    4.5358 C   0  0  0  0  0  0  0  0  0  0  0  0
    0.9740   -2.4272    3.9154 S   0  0  0  0  0  0  0  0  0  0  0  0
    1.6441   -1.0321    2.9947 C   0  0  0  0  0  0  0  0  0  0  0  0
    2.8421   -1.1676    2.1233 C   0  0  0  0  0  0  0  0  0  0  0  0
    3.5858   -0.0605    1.6475 C   0  0  0  0  0  0  0  0  0  0  0  0
    4.7342   -0.2894    0.8570 C   0  0  0  0  0  0  0  0  0  0  0  0
    5.1229   -1.6079    0.5332 C   0  0  0  0  0  0  0  0  0  0  0  0
    6.2029   -1.8632   -0.2443 N   0  0  0  0  0  0  0  0  0  0  0  0
    6.4960   -3.1394   -0.4902 C   0  0  0  0  0  0  0  0  0  0  0  0
    5.8280   -4.1980   -0.0480 N   0  0  0  0  0  0  0  0  0  0  0  0
    4.7450   -3.9636    0.7223 C   0  0  0  0  0  0  0  0  0  0  0  0
    4.3228   -2.6578    1.0657 C   0  0  0  0  0  0  0  0  0  0  0  0
    3.2343   -2.4357    1.8403 N   0  0  0  0  0  0  0  0  0  0  0  0
    1.0085    0.1412    3.1753 N   0  0  0  0  0  0  0  0  0  0  0  0
   -0.0256   -0.1141    4.0249 N   0  0  0  0  0  0  0  0  0  0  0  0
   -2.4811    3.5712    3.0523 H   0  0  0  0  0  0  0  0  0  0  0  0
   -3.2692    2.1507    3.6850 H   0  0  0  0  0  0  0  0  0  0  0  0
   -2.2167    2.0150    2.2832 H   0  0  0  0  0  0  0  0  0  0  0  0
    0.3019    2.4902    2.5448 H   0  0  0  0  0  0  0  0  0  0  0  0
    0.9769    2.7915    4.1683 H   0  0  0  0  0  0  0  0  0  0  0  0
   -0.0333    3.9944    3.3392 H   0  0  0  0  0  0  0  0  0  0  0  0
   -1.5760    4.0840    5.3307 H   0  0  0  0  0  0  0  0  0  0  0  0
   -0.5807    2.9301    6.2056 H   0  0  0  0  0  0  0  0  0  0  0  0
   -2.3037    2.6524    6.0015 H   0  0  0  0  0  0  0  0  0  0  0  0
    3.3028    0.9557    1.8938 H   0  0  0  0  0  0  0  0  0  0  0  0
    5.3214    0.5368    0.4836 H   0  0  0  0  0  0  0  0  0  0  0  0
    7.3634   -3.3383   -1.1054 H   0  0  0  0  0  0  0  0  0  0  0  0
    4.2106   -4.8386    1.0639 H   0  0  0  0  0  0  0  0  0  0  0  0
  1  2  1  0
  1 23  1  0
  1 24  1  0
  1 25  1  0
  2  3  1  0
  2  4  1  0
  2  5  1  0
  3 26  1  0
  3 27  1  0
  3 28  1  0
  4 29  1  0
  4 30  1  0
  4 31  1  0
  5 22  1  0
  5  6  2  0
  6  7  1  0
  7  8  2  0
  8 22  1  0
  8  9  1  0
  9 10  1  0
 10 11  1  0
 10 21  2  0
 11 20  1  0
 11 12  2  0
 12 13  1  0
 12 32  1  0
 13 14  2  0
 13 33  1  0
 14 19  1  0
 14 15  1  0
 15 16  2  0
 16 17  1  0
 16 34  1  0
 17 18  2  0
 18 19  1  0
 18 35  1  0
 19 20  2  0
 21 22  1  0
M  END
>  <i_m_ct_stereo_status>  (163) 
1

>  <s_m_source_file>  (163) 
/var/tmp/pbs.5076255.sched01/tmp7c02qu8j/38qwqhi24o.sdf

>  <i_m_source_file_index>  (163) 
32

>  <i_lp_mmshare_version>  (163) 
48012

>  <i_f3d_flags>  (163) 
0

>  <s_epik_input>  (163) 
W0NIM11DKFtDSDNdKShbQ0gzXSljKG5uMSluKGMxMiluYyhzMiktYyhbY0hdW2NIXTMpbmMoYzM0KVtjSF1uW2NIXW40

>  <s_epik_cmdline>  (163) 
J2VwaWtfcHl0aG9uJywgJy1waHQnLCAnMi4wJywgJy1waCcsICc3LjAnLCAnLXRuJywgJzgnLCAnLW1hJywgJzIwMCcsICctaW1hZScsICc8aW5maWxlLm1hZT4nLCAnLW9tYWUnLCAnPG91dGZpbGUubWFlPic=

>  <r_lp_tautomer_probability>  (163) 
1

>  <r_epik_Ionization_Penalty>  (163) 
2.18678e-07

>  <r_epik_Ionization_Penalty_Charging>  (163) 
0

>  <r_epik_Ionization_Penalty_Neutral>  (163) 
2.18678e-07

>  <r_epik_State_Penalty>  (163) 
-0

>  <r_epik_Charging_Adjusted_Penalty>  (163) 
0

>  <i_epik_Tot_Q>  (163) 
0

>  <i_epik_Tot_abs_Q>  (163) 
0

>  <s_epik_Chemistry_Notes>  (163) 
This compound contains an electron-poor aromatic ring that is susceptible to covalent hydrolysis at low pH, typically resulting in measured values for nitrogen ring protonation that are around two units higher than predicted values.

>  <s_lp_Force_Field>  (163) 
OPLS3e

>  <r_lp_Energy>  (163) 
26.6783

>  <b_lp_Chiralities_Consistent>  (163) 
1

>  <s_lp_Variant>  (163) 
50:0-1

>  <s_i_glide_gridfile>  (163) 
pfpi4k_grid

>  <i_i_glide_lignum>  (163) 
32

>  <i_i_glide_rotatable_bonds>  (163) 
2

>  <r_i_docking_score>  (163) 
-3.74902

>  <r_i_glide_ligand_efficiency>  (163) 
-0.17041

>  <r_i_glide_ligand_efficiency_sa>  (163) 
-0.477496

>  <r_i_glide_ligand_efficiency_ln>  (163) 
-0.916398

>  <r_i_glide_gscore>  (163) 
-3.74902

>  <r_i_glide_lipo>  (163) 
-0.303116

>  <r_i_glide_hbond>  (163) 
0

>  <r_i_glide_metal>  (163) 
-0

>  <r_i_glide_rewards>  (163) 
-1.38746

>  <r_i_glide_evdw>  (163) 
-26.7436

>  <r_i_glide_ecoul>  (163) 
-5.06729

>  <r_i_glide_erotb>  (163) 
0.191279

>  <r_i_glide_esite>  (163) 
-0.152448

>  <r_i_glide_emodel>  (163) 
-39.3318

>  <r_i_glide_energy>  (163) 
-31.8109

>  <r_i_glide_einternal>  (163) 
1.5353

>  <r_i_glide_intrahb_reward>  (163) 
-0

>  <i_i_glide_confnum>  (163) 
1

>  <i_i_glide_posenum>  (163) 
2

>  <r_i_glide_eff_state_penalty>  (163) 
0

>  <ligand_id>  (163) 
50

>  <original_smiles>  (163) 
CC(C)(C)c1nnc2sc(-c3ccc4ncncc4n3)nn12

>  <smiles>  (163) 
[H]c1nc([H])c2nc(-c3nn4c(C(C([H])([H])[H])(C([H])([H])[H])C([H])([H])[H])nnc4s3)c([H])c([H])c2n1

$$$$
50:0:2
     RDKit          3D

 35 38  0  0  1  0  0  0  0  0999 V2000
    3.9555   -1.3404   -3.9685 C   0  0  0  0  0  0  0  0  0  0  0  0
    3.8271   -2.6281   -3.1073 C   0  0  0  0  0  0  0  0  0  0  0  0
    2.3395   -3.0173   -3.1693 C   0  0  0  0  0  0  0  0  0  0  0  0
    4.6943   -3.7157   -3.7655 C   0  0  0  0  0  0  0  0  0  0  0  0
    4.3094   -2.3493   -1.6826 C   0  0  0  0  0  0  0  0  0  0  0  0
    5.2869   -1.4679   -1.3907 N   0  0  0  0  0  0  0  0  0  0  0  0
    5.4985   -1.4934    0.0078 N   0  0  0  0  0  0  0  0  0  0  0  0
    4.6994   -2.4051    0.4983 C   0  0  0  0  0  0  0  0  0  0  0  0
    4.1979   -3.2117    1.9785 S   0  0  0  0  0  0  0  0  0  0  0  0
    3.0963   -4.2318    0.9791 C   0  0  0  0  0  0  0  0  0  0  0  0
    2.2248   -5.2778    1.5841 C   0  0  0  0  0  0  0  0  0  0  0  0
    1.4449   -6.1825    0.8223 C   0  0  0  0  0  0  0  0  0  0  0  0
    0.6535   -7.1466    1.4890 C   0  0  0  0  0  0  0  0  0  0  0  0
    0.6454   -7.2028    2.8995 C   0  0  0  0  0  0  0  0  0  0  0  0
   -0.1052   -8.1023    3.5676 N   0  0  0  0  0  0  0  0  0  0  0  0
   -0.0591   -8.0966    4.8978 C   0  0  0  0  0  0  0  0  0  0  0  0
    0.6407   -7.2473    5.6454 N   0  0  0  0  0  0  0  0  0  0  0  0
    1.4008   -6.3388    4.9968 C   0  0  0  0  0  0  0  0  0  0  0  0
    1.4518   -6.2549    3.5851 C   0  0  0  0  0  0  0  0  0  0  0  0
    2.2061   -5.3309    2.9409 N   0  0  0  0  0  0  0  0  0  0  0  0
    3.1100   -3.9734   -0.3432 N   0  0  0  0  0  0  0  0  0  0  0  0
    3.9926   -2.9494   -0.5183 N   0  0  0  0  0  0  0  0  0  0  0  0
    3.6077   -1.4885   -4.9888 H   0  0  0  0  0  0  0  0  0  0  0  0
    4.9893   -1.0164   -4.0521 H   0  0  0  0  0  0  0  0  0  0  0  0
    3.3820   -0.5069   -3.5586 H   0  0  0  0  0  0  0  0  0  0  0  0
    1.7461   -2.2559   -2.6667 H   0  0  0  0  0  0  0  0  0  0  0  0
    2.1395   -3.9630   -2.6724 H   0  0  0  0  0  0  0  0  0  0  0  0
    1.9744   -3.1311   -4.1947 H   0  0  0  0  0  0  0  0  0  0  0  0
    4.3787   -3.8919   -4.7888 H   0  0  0  0  0  0  0  0  0  0  0  0
    4.6174   -4.6654   -3.2391 H   0  0  0  0  0  0  0  0  0  0  0  0
    5.7475   -3.4464   -3.7973 H   0  0  0  0  0  0  0  0  0  0  0  0
    1.4862   -6.1653   -0.2600 H   0  0  0  0  0  0  0  0  0  0  0  0
    0.0628   -7.8613    0.9357 H   0  0  0  0  0  0  0  0  0  0  0  0
   -0.6566   -8.8356    5.4202 H   0  0  0  0  0  0  0  0  0  0  0  0
    1.9623   -5.6637    5.6252 H   0  0  0  0  0  0  0  0  0  0  0  0
  1  2  1  0
  1 23  1  0
  1 24  1  0
  1 25  1  0
  2  3  1  0
  2  4  1  0
  2  5  1  0
  3 26  1  0
  3 27  1  0
  3 28  1  0
  4 29  1  0
  4 30  1  0
  4 31  1  0
  5 22  1  0
  5  6  2  0
  6  7  1  0
  7  8  2  0
  8 22  1  0
  8  9  1  0
  9 10  1  0
 10 11  1  0
 10 21  2  0
 11 20  1  0
 11 12  2  0
 12 13  1  0
 12 32  1  0
 13 14  2  0
 13 33  1  0
 14 19  1  0
 14 15  1  0
 15 16  2  0
 16 17  1  0
 16 34  1  0
 17 18  2  0
 18 19  1  0
 18 35  1  0
 19 20  2  0
 21 22  1  0
M  END
>  <i_m_ct_stereo_status>  (164) 
1

>  <s_m_source_file>  (164) 
/var/tmp/pbs.5076255.sched01/tmp7c02qu8j/38qwqhi24o.sdf

>  <i_m_source_file_index>  (164) 
32

>  <i_lp_mmshare_version>  (164) 
48012

>  <i_f3d_flags>  (164) 
0

>  <s_epik_input>  (164) 
W0NIM11DKFtDSDNdKShbQ0gzXSljKG5uMSluKGMxMiluYyhzMiktYyhbY0hdW2NIXTMpbmMoYzM0KVtjSF1uW2NIXW40

>  <s_epik_cmdline>  (164) 
J2VwaWtfcHl0aG9uJywgJy1waHQnLCAnMi4wJywgJy1waCcsICc3LjAnLCAnLXRuJywgJzgnLCAnLW1hJywgJzIwMCcsICctaW1hZScsICc8aW5maWxlLm1hZT4nLCAnLW9tYWUnLCAnPG91dGZpbGUubWFlPic=

>  <r_lp_tautomer_probability>  (164) 
1

>  <r_epik_Ionization_Penalty>  (164) 
2.18678e-07

>  <r_epik_Ionization_Penalty_Charging>  (164) 
0

>  <r_epik_Ionization_Penalty_Neutral>  (164) 
2.18678e-07

>  <r_epik_State_Penalty>  (164) 
-0

>  <r_epik_Charging_Adjusted_Penalty>  (164) 
0

>  <i_epik_Tot_Q>  (164) 
0

>  <i_epik_Tot_abs_Q>  (164) 
0

>  <s_epik_Chemistry_Notes>  (164) 
This compound contains an electron-poor aromatic ring that is susceptible to covalent hydrolysis at low pH, typically resulting in measured values for nitrogen ring protonation that are around two units higher than predicted values.

>  <s_lp_Force_Field>  (164) 
OPLS3e

>  <r_lp_Energy>  (164) 
26.6783

>  <b_lp_Chiralities_Consistent>  (164) 
1

>  <s_lp_Variant>  (164) 
50:0-1

>  <s_i_glide_gridfile>  (164) 
pfpi4k_grid

>  <i_i_glide_lignum>  (164) 
32

>  <i_i_glide_rotatable_bonds>  (164) 
2

>  <r_i_docking_score>  (164) 
-3.41357

>  <r_i_glide_ligand_efficiency>  (164) 
-0.155162

>  <r_i_glide_ligand_efficiency_sa>  (164) 
-0.434771

>  <r_i_glide_ligand_efficiency_ln>  (164) 
-0.834402

>  <r_i_glide_gscore>  (164) 
-3.41357

>  <r_i_glide_lipo>  (164) 
-0.412897

>  <r_i_glide_hbond>  (164) 
0

>  <r_i_glide_metal>  (164) 
-0

>  <r_i_glide_rewards>  (164) 
-1.29263

>  <r_i_glide_evdw>  (164) 
-30.0398

>  <r_i_glide_ecoul>  (164) 
-1.88941

>  <r_i_glide_erotb>  (164) 
0.191279

>  <r_i_glide_esite>  (164) 
-0.113923

>  <r_i_glide_emodel>  (164) 
-39.0444

>  <r_i_glide_energy>  (164) 
-31.9292

>  <r_i_glide_einternal>  (164) 
0.786897

>  <r_i_glide_intrahb_reward>  (164) 
-0

>  <i_i_glide_confnum>  (164) 
3

>  <i_i_glide_posenum>  (164) 
20

>  <r_i_glide_eff_state_penalty>  (164) 
0

>  <ligand_id>  (164) 
50

>  <original_smiles>  (164) 
CC(C)(C)c1nnc2sc(-c3ccc4ncncc4n3)nn12

>  <smiles>  (164) 
[H]c1nc([H])c2nc(-c3nn4c(C(C([H])([H])[H])(C([H])([H])[H])C([H])([H])[H])nnc4s3)c([H])c([H])c2n1

$$$$
51:0:0
     RDKit          3D

 58 62  0  0  1  0  0  0  0  0999 V2000
    4.7157  -11.7850    3.7493 C   0  0  0  0  0  0  0  0  0  0  0  0
    3.3304  -11.4336    4.3312 C   0  0  2  0  0  0  0  0  0  0  0  0
    2.3403  -10.6436    3.0368 S   0  0  0  0  0  0  0  0  0  0  0  0
    2.4405   -9.0383    3.8467 C   0  0  2  0  0  0  0  0  0  0  0  0
    1.1425   -8.2563    3.6396 C   0  0  0  0  0  0  0  0  0  0  0  0
    1.4782   -6.8057    3.9940 C   0  0  0  0  0  0  0  0  0  0  0  0
    2.9652   -6.6283    3.6225 C   0  0  2  0  0  0  0  0  0  0  0  0
    3.3192   -5.5184    2.5673 C   0  0  2  0  0  0  0  0  0  0  0  0
    2.3181   -5.2777    1.4142 C   0  0  0  0  0  0  0  0  0  0  0  0
    2.7570   -4.1857    0.4151 C   0  0  2  0  0  0  0  0  0  0  0  0
    1.9139   -4.2196   -0.6183 F   0  0  0  0  0  0  0  0  0  0  0  0
    4.2031   -4.3234   -0.1218 C   0  0  1  0  0  0  0  0  0  0  0  0
    4.5313   -3.0890   -1.0236 C   0  0  2  0  0  0  0  0  0  0  0  0
    5.7615   -3.4475   -2.2573 Cl  0  0  0  0  0  0  0  0  0  0  0  0
    4.9567   -1.8503   -0.2325 C   0  0  0  0  0  0  0  0  0  0  0  0
    4.6394   -0.7154   -0.6016 O   0  0  0  0  0  0  0  0  0  0  0  0
    5.8471   -2.0452    0.9918 C   0  0  0  0  0  0  0  0  0  0  0  0
    5.3881   -3.2463    1.8440 C   0  0  0  0  0  0  0  0  0  0  0  0
    5.2265   -4.5699    1.0423 C   0  0  2  0  0  0  0  0  0  0  0  0
    6.6210   -4.9778    0.5061 C   0  0  0  0  0  0  0  0  0  0  0  0
    4.7246   -5.7400    1.9582 C   0  0  2  0  0  0  0  0  0  0  0  0
    4.8113   -7.1514    1.3037 C   0  0  0  0  0  0  0  0  0  0  0  0
    3.8505   -8.2137    1.8773 C   0  0  0  0  0  0  0  0  0  0  0  0
    3.5819   -8.0537    3.3881 C   0  0  2  0  0  0  0  0  0  0  0  0
    4.9201   -8.2157    4.1924 C   0  0  0  0  0  0  0  0  0  0  0  0
    2.5878   -9.3099    5.2561 O   0  0  0  0  0  0  0  0  0  0  0  0
    3.3217  -10.4589    5.5040 C   0  0  0  0  0  0  0  0  0  0  0  0
    3.8794  -10.6723    6.5841 O   0  0  0  0  0  0  0  0  0  0  0  0
    5.3689  -12.2433    4.5030 H   0  0  0  0  0  0  0  0  0  0  0  0
    5.2249  -10.9508    3.2922 H   0  0  0  0  0  0  0  0  0  0  0  0
    4.5943  -12.5703    2.9690 H   0  0  0  0  0  0  0  0  0  0  0  0
    2.8220  -12.3322    4.6732 H   0  0  0  0  0  0  0  0  0  0  0  0
    0.9322   -8.2932    2.5871 H   0  0  0  0  0  0  0  0  0  0  0  0
    0.2512   -8.6451    4.1606 H   0  0  0  0  0  0  0  0  0  0  0  0
    0.7866   -6.1038    3.5234 H   0  0  0  0  0  0  0  0  0  0  0  0
    1.3468   -6.6869    5.0713 H   0  0  0  0  0  0  0  0  0  0  0  0
    3.4018   -6.2570    4.5423 H   0  0  0  0  0  0  0  0  0  0  0  0
    3.3334   -4.5912    3.1375 H   0  0  0  0  0  0  0  0  0  0  0  0
    2.0864   -6.2002    0.8817 H   0  0  0  0  0  0  0  0  0  0  0  0
    1.3906   -4.9296    1.8516 H   0  0  0  0  0  0  0  0  0  0  0  0
    2.6160   -3.2043    0.8684 H   0  0  0  0  0  0  0  0  0  0  0  0
    4.2105   -5.1974   -0.7741 H   0  0  0  0  0  0  0  0  0  0  0  0
    3.6477   -2.8179   -1.6033 H   0  0  0  0  0  0  0  0  0  0  0  0
    6.8709   -2.1728    0.6483 H   0  0  0  0  0  0  0  0  0  0  0  0
    5.8410   -1.1343    1.5917 H   0  0  0  0  0  0  0  0  0  0  0  0
    6.0858   -3.3912    2.6742 H   0  0  0  0  0  0  0  0  0  0  0  0
    4.4431   -2.9512    2.2933 H   0  0  0  0  0  0  0  0  0  0  0  0
    7.2716   -5.3056    1.3181 H   0  0  0  0  0  0  0  0  0  0  0  0
    7.1417   -4.1709   -0.0075 H   0  0  0  0  0  0  0  0  0  0  0  0
    6.5390   -5.7988   -0.2046 H   0  0  0  0  0  0  0  0  0  0  0  0
    5.4134   -5.7347    2.8065 H   0  0  0  0  0  0  0  0  0  0  0  0
    4.6569   -7.1041    0.2186 H   0  0  0  0  0  0  0  0  0  0  0  0
    5.8191   -7.5276    1.4338 H   0  0  0  0  0  0  0  0  0  0  0  0
    2.9060   -8.1682    1.3351 H   0  0  0  0  0  0  0  0  0  0  0  0
    4.2362   -9.2133    1.6584 H   0  0  0  0  0  0  0  0  0  0  0  0
    5.6862   -7.5074    3.8545 H   0  0  0  0  0  0  0  0  0  0  0  0
    5.3267   -9.1876    4.1287 H   0  0  0  0  0  0  0  0  0  0  0  0
    4.7690   -7.9241    5.2451 H   0  0  0  0  0  0  0  0  0  0  0  0
  1  2  1  0
  1 29  1  0
  1 30  1  0
  1 31  1  0
  2 27  1  0
  2  3  1  0
  2 32  1  1
  3  4  1  0
  4 24  1  0
  4  5  1  0
  4 26  1  1
  5  6  1  0
  5 33  1  0
  5 34  1  0
  6  7  1  0
  6 35  1  0
  6 36  1  0
  7 24  1  0
  7  8  1  0
  7 37  1  1
  8 21  1  0
  8  9  1  0
  8 38  1  1
  9 10  1  0
  9 39  1  0
  9 40  1  0
 10 11  1  0
 10 12  1  0
 10 41  1  1
 12 19  1  0
 12 13  1  0
 12 42  1  6
 13 14  1  0
 13 15  1  0
 13 43  1  6
 15 16  2  0
 15 17  1  0
 17 18  1  0
 17 44  1  0
 17 45  1  0
 18 19  1  0
 18 46  1  0
 18 47  1  0
 19 20  1  6
 19 21  1  0
 20 48  1  0
 20 49  1  0
 20 50  1  0
 21 22  1  0
 21 51  1  1
 22 23  1  0
 22 52  1  0
 22 53  1  0
 23 24  1  0
 23 54  1  0
 23 55  1  0
 24 25  1  1
 25 56  1  0
 25 57  1  0
 25 58  1  0
 26 27  1  0
 27 28  2  0
M  END
>  <i_m_ct_stereo_status>  (165) 
1

>  <s_m_source_file>  (165) 
/var/tmp/pbs.5076255.sched01/tmp7c02qu8j/38qwqhi24o.sdf

>  <i_m_source_file_index>  (165) 
33

>  <i_lp_mmshare_version>  (165) 
48012

>  <i_f3d_flags>  (165) 
0

>  <s_epik_input>  (165) 
TzFDKD1PKVtDQEhdKFtDSDNdKVNbQ0BdMTJbQ0BdMyhbQ0gzXSlbQ0BIXShbQ0gyXVtDSDJdMilbQ0BIXTRbQ0BASF0oW0NIMl1bQ0gyXTMpW0NAQF01KFtDSDNdKVtDQEBIXShbQ0BASF0oRilbQ0gyXTQpW0NASF0oQ2wpQyg9TylbQ0gyXVtDSDJdNQ==

>  <s_epik_cmdline>  (165) 
J2VwaWtfcHl0aG9uJywgJy1waHQnLCAnMi4wJywgJy1waCcsICc3LjAnLCAnLXRuJywgJzgnLCAnLW1hJywgJzIwMCcsICctaW1hZScsICc8aW5maWxlLm1hZT4nLCAnLW9tYWUnLCAnPG91dGZpbGUubWFlPic=

>  <r_lp_tautomer_probability>  (165) 
1

>  <r_epik_Ionization_Penalty>  (165) 
5.78013e-11

>  <r_epik_Ionization_Penalty_Charging>  (165) 
0

>  <r_epik_Ionization_Penalty_Neutral>  (165) 
5.78013e-11

>  <r_epik_State_Penalty>  (165) 
-0

>  <r_epik_Charging_Adjusted_Penalty>  (165) 
0

>  <i_epik_Tot_Q>  (165) 
0

>  <i_epik_Tot_abs_Q>  (165) 
0

>  <s_epik_Chemistry_Notes>  (165) 
This compound has an ester and may undergo hydrolysis at high or low pH.

>  <s_lp_Force_Field>  (165) 
OPLS3e

>  <r_lp_Energy>  (165) 
48.5218

>  <b_lp_Chiralities_Consistent>  (165) 
1

>  <s_lp_Variant>  (165) 
51:0-1

>  <s_i_glide_gridfile>  (165) 
pfpi4k_grid

>  <i_i_glide_lignum>  (165) 
33

>  <i_i_glide_rotatable_bonds>  (165) 
0

>  <r_i_docking_score>  (165) 
-2.6381

>  <r_i_glide_ligand_efficiency>  (165) 
-0.0942178

>  <r_i_glide_ligand_efficiency_sa>  (165) 
-0.286101

>  <r_i_glide_ligand_efficiency_ln>  (165) 
-0.60895

>  <r_i_glide_gscore>  (165) 
-2.6381

>  <r_i_glide_lipo>  (165) 
-0.669217

>  <r_i_glide_hbond>  (165) 
0

>  <r_i_glide_metal>  (165) 
-0

>  <r_i_glide_rewards>  (165) 
-0.484167

>  <r_i_glide_evdw>  (165) 
-28.3773

>  <r_i_glide_ecoul>  (165) 
0.350375

>  <r_i_glide_erotb>  (165) 
0

>  <r_i_glide_esite>  (165) 
-0.118405

>  <r_i_glide_emodel>  (165) 
-31.1303

>  <r_i_glide_energy>  (165) 
-28.027

>  <r_i_glide_einternal>  (165) 
0

>  <r_i_glide_intrahb_reward>  (165) 
-0

>  <i_i_glide_confnum>  (165) 
1

>  <i_i_glide_posenum>  (165) 
13

>  <r_i_glide_eff_state_penalty>  (165) 
0

>  <ligand_id>  (165) 
51

>  <original_smiles>  (165) 
CC1SC2(CCC3C4CC(F)C5C(Cl)C(=O)CCC5(C)C4CCC32C)OC1=O

>  <smiles>  (165) 
[H]C([H])([H])C1([H])SC2(OC1=O)C([H])([H])C([H])([H])C1([H])C3([H])C([H])([H])C([H])(F)C4([H])C([H])(Cl)C(=O)C([H])([H])C([H])([H])C4(C([H])([H])[H])C3([H])C([H])([H])C([H])([H])C21C([H])([H])[H]

$$$$
51:0:1
     RDKit          3D

 58 62  0  0  1  0  0  0  0  0999 V2000
    2.4018   -3.1883   -3.5514 C   0  0  0  0  0  0  0  0  0  0  0  0
    3.7638   -2.4726   -3.7106 C   0  0  2  0  0  0  0  0  0  0  0  0
    5.0939   -3.6111   -3.2749 S   0  0  0  0  0  0  0  0  0  0  0  0
    5.4726   -2.6873   -1.7624 C   0  0  2  0  0  0  0  0  0  0  0  0
    6.9846   -2.7186   -1.4826 C   0  0  0  0  0  0  0  0  0  0  0  0
    7.1345   -2.3152   -0.0200 C   0  0  0  0  0  0  0  0  0  0  0  0
    5.8407   -2.8212    0.6744 C   0  0  2  0  0  0  0  0  0  0  0  0
    6.0119   -3.8615    1.8482 C   0  0  2  0  0  0  0  0  0  0  0  0
    7.1699   -4.8955    1.7353 C   0  0  0  0  0  0  0  0  0  0  0  0
    7.2445   -5.8825    2.9303 C   0  0  2  0  0  0  0  0  0  0  0  0
    8.1529   -6.8118    2.6358 F   0  0  0  0  0  0  0  0  0  0  0  0
    5.9034   -6.5541    3.3180 C   0  0  1  0  0  0  0  0  0  0  0  0
    6.1191   -7.4037    4.6158 C   0  0  2  0  0  0  0  0  0  0  0  0
    4.9732   -8.7664    4.6952 Cl  0  0  0  0  0  0  0  0  0  0  0  0
    6.0577   -6.5870    5.9079 C   0  0  0  0  0  0  0  0  0  0  0  0
    6.8150   -6.8327    6.8593 O   0  0  0  0  0  0  0  0  0  0  0  0
    5.0271   -5.4747    6.0180 C   0  0  0  0  0  0  0  0  0  0  0  0
    4.9419   -4.6504    4.7125 C   0  0  0  0  0  0  0  0  0  0  0  0
    4.7339   -5.5114    3.4256 C   0  0  2  0  0  0  0  0  0  0  0  0
    3.3531   -6.2134    3.5389 C   0  0  0  0  0  0  0  0  0  0  0  0
    4.6972   -4.6099    2.1452 C   0  0  2  0  0  0  0  0  0  0  0  0
    4.2120   -5.3495    0.8731 C   0  0  0  0  0  0  0  0  0  0  0  0
    4.7032   -4.7384   -0.4402 C   0  0  0  0  0  0  0  0  0  0  0  0
    4.7998   -3.1990   -0.4295 C   0  0  2  0  0  0  0  0  0  0  0  0
    3.4045   -2.5443   -0.1398 C   0  0  0  0  0  0  0  0  0  0  0  0
    5.0842   -1.3394   -2.0084 O   0  0  0  0  0  0  0  0  0  0  0  0
    4.0035   -1.2409   -2.8596 C   0  0  0  0  0  0  0  0  0  0  0  0
    3.3099   -0.2581   -3.0499 O   0  0  0  0  0  0  0  0  0  0  0  0
    1.5727   -2.5216   -3.7840 H   0  0  0  0  0  0  0  0  0  0  0  0
    2.2783   -3.6358   -2.5726 H   0  0  0  0  0  0  0  0  0  0  0  0
    2.3562   -3.9691   -4.3251 H   0  0  0  0  0  0  0  0  0  0  0  0
    3.8876   -2.1026   -4.7370 H   0  0  0  0  0  0  0  0  0  0  0  0
    7.2747   -3.7587   -1.5614 H   0  0  0  0  0  0  0  0  0  0  0  0
    7.6298   -2.1798   -2.1891 H   0  0  0  0  0  0  0  0  0  0  0  0
    8.0697   -2.6837    0.4083 H   0  0  0  0  0  0  0  0  0  0  0  0
    7.1685   -1.2268    0.0465 H   0  0  0  0  0  0  0  0  0  0  0  0
    5.4597   -1.9230    1.1658 H   0  0  0  0  0  0  0  0  0  0  0  0
    6.2012   -3.2341    2.7158 H   0  0  0  0  0  0  0  0  0  0  0  0
    7.1329   -5.4524    0.7998 H   0  0  0  0  0  0  0  0  0  0  0  0
    8.1210   -4.3708    1.7195 H   0  0  0  0  0  0  0  0  0  0  0  0
    7.6586   -5.4065    3.8196 H   0  0  0  0  0  0  0  0  0  0  0  0
    5.6815   -7.2610    2.5178 H   0  0  0  0  0  0  0  0  0  0  0  0
    7.1008   -7.8788    4.5830 H   0  0  0  0  0  0  0  0  0  0  0  0
    4.0663   -5.9230    6.2589 H   0  0  0  0  0  0  0  0  0  0  0  0
    5.2761   -4.8200    6.8548 H   0  0  0  0  0  0  0  0  0  0  0  0
    4.1462   -3.9017    4.8023 H   0  0  0  0  0  0  0  0  0  0  0  0
    5.8735   -4.0888    4.6516 H   0  0  0  0  0  0  0  0  0  0  0  0
    2.5447   -5.4873    3.4416 H   0  0  0  0  0  0  0  0  0  0  0  0
    3.2053   -6.7169    4.4950 H   0  0  0  0  0  0  0  0  0  0  0  0
    3.2197   -6.9751    2.7676 H   0  0  0  0  0  0  0  0  0  0  0  0
    3.9598   -3.8405    2.3735 H   0  0  0  0  0  0  0  0  0  0  0  0
    4.4929   -6.4010    0.8778 H   0  0  0  0  0  0  0  0  0  0  0  0
    3.1281   -5.3369    0.8528 H   0  0  0  0  0  0  0  0  0  0  0  0
    5.6645   -5.1708   -0.7243 H   0  0  0  0  0  0  0  0  0  0  0  0
    4.0339   -5.0726   -1.2089 H   0  0  0  0  0  0  0  0  0  0  0  0
    2.9831   -2.9233    0.7919 H   0  0  0  0  0  0  0  0  0  0  0  0
    2.7033   -2.7229   -0.9332 H   0  0  0  0  0  0  0  0  0  0  0  0
    3.5220   -1.4687    0.0552 H   0  0  0  0  0  0  0  0  0  0  0  0
  1  2  1  0
  1 29  1  0
  1 30  1  0
  1 31  1  0
  2 27  1  0
  2  3  1  0
  2 32  1  6
  3  4  1  0
  4 24  1  0
  4  5  1  0
  4 26  1  6
  5  6  1  0
  5 33  1  0
  5 34  1  0
  6  7  1  0
  6 35  1  0
  6 36  1  0
  7 24  1  0
  7  8  1  0
  7 37  1  1
  8 21  1  0
  8  9  1  0
  8 38  1  1
  9 10  1  0
  9 39  1  0
  9 40  1  0
 10 11  1  0
 10 12  1  0
 10 41  1  1
 12 19  1  0
 12 13  1  0
 12 42  1  6
 13 14  1  0
 13 15  1  0
 13 43  1  6
 15 16  2  0
 15 17  1  0
 17 18  1  0
 17 44  1  0
 17 45  1  0
 18 19  1  0
 18 46  1  0
 18 47  1  0
 19 20  1  1
 19 21  1  0
 20 48  1  0
 20 49  1  0
 20 50  1  0
 21 22  1  0
 21 51  1  1
 22 23  1  0
 22 52  1  0
 22 53  1  0
 23 24  1  0
 23 54  1  0
 23 55  1  0
 24 25  1  1
 25 56  1  0
 25 57  1  0
 25 58  1  0
 26 27  1  0
 27 28  2  0
M  END
>  <i_m_ct_stereo_status>  (166) 
1

>  <s_m_source_file>  (166) 
/var/tmp/pbs.5076255.sched01/tmp7c02qu8j/38qwqhi24o.sdf

>  <i_m_source_file_index>  (166) 
33

>  <i_lp_mmshare_version>  (166) 
48012

>  <i_f3d_flags>  (166) 
0

>  <s_epik_input>  (166) 
TzFDKD1PKVtDQEhdKFtDSDNdKVNbQ0BdMTJbQ0BdMyhbQ0gzXSlbQ0BIXShbQ0gyXVtDSDJdMilbQ0BIXTRbQ0BASF0oW0NIMl1bQ0gyXTMpW0NAQF01KFtDSDNdKVtDQEBIXShbQ0BASF0oRilbQ0gyXTQpW0NASF0oQ2wpQyg9TylbQ0gyXVtDSDJdNQ==

>  <s_epik_cmdline>  (166) 
J2VwaWtfcHl0aG9uJywgJy1waHQnLCAnMi4wJywgJy1waCcsICc3LjAnLCAnLXRuJywgJzgnLCAnLW1hJywgJzIwMCcsICctaW1hZScsICc8aW5maWxlLm1hZT4nLCAnLW9tYWUnLCAnPG91dGZpbGUubWFlPic=

>  <r_lp_tautomer_probability>  (166) 
1

>  <r_epik_Ionization_Penalty>  (166) 
5.78013e-11

>  <r_epik_Ionization_Penalty_Charging>  (166) 
0

>  <r_epik_Ionization_Penalty_Neutral>  (166) 
5.78013e-11

>  <r_epik_State_Penalty>  (166) 
-0

>  <r_epik_Charging_Adjusted_Penalty>  (166) 
0

>  <i_epik_Tot_Q>  (166) 
0

>  <i_epik_Tot_abs_Q>  (166) 
0

>  <s_epik_Chemistry_Notes>  (166) 
This compound has an ester and may undergo hydrolysis at high or low pH.

>  <s_lp_Force_Field>  (166) 
OPLS3e

>  <r_lp_Energy>  (166) 
48.5218

>  <b_lp_Chiralities_Consistent>  (166) 
1

>  <s_lp_Variant>  (166) 
51:0-1

>  <s_i_glide_gridfile>  (166) 
pfpi4k_grid

>  <i_i_glide_lignum>  (166) 
33

>  <i_i_glide_rotatable_bonds>  (166) 
0

>  <r_i_docking_score>  (166) 
-2.59599

>  <r_i_glide_ligand_efficiency>  (166) 
-0.0927138

>  <r_i_glide_ligand_efficiency_sa>  (166) 
-0.281534

>  <r_i_glide_ligand_efficiency_ln>  (166) 
-0.59923

>  <r_i_glide_gscore>  (166) 
-2.59599

>  <r_i_glide_lipo>  (166) 
-0.863159

>  <r_i_glide_hbond>  (166) 
0

>  <r_i_glide_metal>  (166) 
-0

>  <r_i_glide_rewards>  (166) 
-0.484167

>  <r_i_glide_evdw>  (166) 
-28.8455

>  <r_i_glide_ecoul>  (166) 
1.53827

>  <r_i_glide_erotb>  (166) 
0

>  <r_i_glide_esite>  (166) 
-0.0371255

>  <r_i_glide_emodel>  (166) 
-30.2784

>  <r_i_glide_energy>  (166) 
-27.3072

>  <r_i_glide_einternal>  (166) 
0

>  <r_i_glide_intrahb_reward>  (166) 
-0

>  <i_i_glide_confnum>  (166) 
1

>  <i_i_glide_posenum>  (166) 
3

>  <r_i_glide_eff_state_penalty>  (166) 
0

>  <ligand_id>  (166) 
51

>  <original_smiles>  (166) 
CC1SC2(CCC3C4CC(F)C5C(Cl)C(=O)CCC5(C)C4CCC32C)OC1=O

>  <smiles>  (166) 
[H]C([H])([H])C1([H])SC2(OC1=O)C([H])([H])C([H])([H])C1([H])C3([H])C([H])([H])C([H])(F)C4([H])C([H])(Cl)C(=O)C([H])([H])C([H])([H])C4(C([H])([H])[H])C3([H])C([H])([H])C([H])([H])C21C([H])([H])[H]

$$$$
51:0:2
     RDKit          3D

 58 62  0  0  1  0  0  0  0  0999 V2000
    4.5754   -3.6698   -3.8374 C   0  0  0  0  0  0  0  0  0  0  0  0
    4.9122   -2.3765   -3.0946 C   0  0  2  0  0  0  0  0  0  0  0  0
    5.9457   -2.7286   -1.6381 S   0  0  0  0  0  0  0  0  0  0  0  0
    4.5867   -2.2224   -0.5342 C   0  0  2  0  0  0  0  0  0  0  0  0
    5.1501   -1.5226    0.7124 C   0  0  0  0  0  0  0  0  0  0  0  0
    4.0253   -1.5492    1.7398 C   0  0  0  0  0  0  0  0  0  0  0  0
    3.2215   -2.8318    1.4334 C   0  0  2  0  0  0  0  0  0  0  0  0
    3.0888   -3.8961    2.5890 C   0  0  2  0  0  0  0  0  0  0  0  0
    4.3000   -4.0866    3.5318 C   0  0  0  0  0  0  0  0  0  0  0  0
    4.0796   -5.1692    4.6107 C   0  0  2  0  0  0  0  0  0  0  0  0
    5.2431   -5.3531    5.2380 F   0  0  0  0  0  0  0  0  0  0  0  0
    3.5566   -6.5342    4.0809 C   0  0  1  0  0  0  0  0  0  0  0  0
    3.2831   -7.4880    5.2929 C   0  0  2  0  0  0  0  0  0  0  0  0
    3.4365   -9.2010    4.8236 Cl  0  0  0  0  0  0  0  0  0  0  0  0
    1.9357   -7.2351    5.9748 C   0  0  0  0  0  0  0  0  0  0  0  0
    1.8160   -7.2956    7.2049 O   0  0  0  0  0  0  0  0  0  0  0  0
    0.7313   -6.9133    5.1023 C   0  0  0  0  0  0  0  0  0  0  0  0
    1.0932   -5.9225    3.9710 C   0  0  0  0  0  0  0  0  0  0  0  0
    2.3311   -6.3497    3.1212 C   0  0  2  0  0  0  0  0  0  0  0  0
    1.9655   -7.6681    2.3824 C   0  0  0  0  0  0  0  0  0  0  0  0
    2.6644   -5.2741    2.0292 C   0  0  2  0  0  0  0  0  0  0  0  0
    3.6900   -5.7660    0.9635 C   0  0  0  0  0  0  0  0  0  0  0  0
    4.4661   -4.6569    0.2299 C   0  0  0  0  0  0  0  0  0  0  0  0
    3.6620   -3.3694    0.0406 C   0  0  2  0  0  0  0  0  0  0  0  0
    2.3944   -3.6552   -0.8274 C   0  0  0  0  0  0  0  0  0  0  0  0
    3.8276   -1.2752   -1.2477 O   0  0  0  0  0  0  0  0  0  0  0  0
    3.7517   -1.5070   -2.5949 C   0  0  0  0  0  0  0  0  0  0  0  0
    2.9342   -1.0251   -3.3799 O   0  0  0  0  0  0  0  0  0  0  0  0
    3.8893   -3.5146   -4.6753 H   0  0  0  0  0  0  0  0  0  0  0  0
    4.1390   -4.3667   -3.1221 H   0  0  0  0  0  0  0  0  0  0  0  0
    5.4824   -4.1338   -4.2438 H   0  0  0  0  0  0  0  0  0  0  0  0
    5.3906   -1.7179   -3.8021 H   0  0  0  0  0  0  0  0  0  0  0  0
    5.9352   -2.1658    1.0774 H   0  0  0  0  0  0  0  0  0  0  0  0
    5.5890   -0.5235    0.5595 H   0  0  0  0  0  0  0  0  0  0  0  0
    4.4059   -1.4739    2.7605 H   0  0  0  0  0  0  0  0  0  0  0  0
    3.3955   -0.6717    1.5772 H   0  0  0  0  0  0  0  0  0  0  0  0
    2.2082   -2.4498    1.3213 H   0  0  0  0  0  0  0  0  0  0  0  0
    2.2819   -3.5166    3.2202 H   0  0  0  0  0  0  0  0  0  0  0  0
    5.2090   -4.2986    2.9727 H   0  0  0  0  0  0  0  0  0  0  0  0
    4.4876   -3.1664    4.0779 H   0  0  0  0  0  0  0  0  0  0  0  0
    3.4077   -4.7814    5.3783 H   0  0  0  0  0  0  0  0  0  0  0  0
    4.3799   -6.9849    3.5235 H   0  0  0  0  0  0  0  0  0  0  0  0
    4.0582   -7.3525    6.0489 H   0  0  0  0  0  0  0  0  0  0  0  0
    0.3461   -7.8481    4.7000 H   0  0  0  0  0  0  0  0  0  0  0  0
   -0.0654   -6.4974    5.7220 H   0  0  0  0  0  0  0  0  0  0  0  0
    0.2227   -5.7653    3.3296 H   0  0  0  0  0  0  0  0  0  0  0  0
    1.2830   -4.9683    4.4629 H   0  0  0  0  0  0  0  0  0  0  0  0
    1.2233   -7.4859    1.6050 H   0  0  0  0  0  0  0  0  0  0  0  0
    1.5409   -8.4229    3.0450 H   0  0  0  0  0  0  0  0  0  0  0  0
    2.8378   -8.1305    1.9152 H   0  0  0  0  0  0  0  0  0  0  0  0
    1.7219   -5.1155    1.5167 H   0  0  0  0  0  0  0  0  0  0  0  0
    4.4031   -6.4762    1.3799 H   0  0  0  0  0  0  0  0  0  0  0  0
    3.1482   -6.3117    0.1972 H   0  0  0  0  0  0  0  0  0  0  0  0
    5.3754   -4.4246    0.7928 H   0  0  0  0  0  0  0  0  0  0  0  0
    4.8256   -5.0355   -0.7309 H   0  0  0  0  0  0  0  0  0  0  0  0
    1.7709   -4.4543   -0.4211 H   0  0  0  0  0  0  0  0  0  0  0  0
    2.6156   -3.9058   -1.8717 H   0  0  0  0  0  0  0  0  0  0  0  0
    1.7791   -2.7650   -0.8352 H   0  0  0  0  0  0  0  0  0  0  0  0
  1  2  1  0
  1 29  1  0
  1 30  1  0
  1 31  1  0
  2 27  1  0
  2  3  1  0
  2 32  1  6
  3  4  1  0
  4 24  1  0
  4  5  1  0
  4 26  1  6
  5  6  1  0
  5 33  1  0
  5 34  1  0
  6  7  1  0
  6 35  1  0
  6 36  1  0
  7 24  1  0
  7  8  1  0
  7 37  1  6
  8 21  1  0
  8  9  1  0
  8 38  1  1
  9 10  1  0
  9 39  1  0
  9 40  1  0
 10 11  1  0
 10 12  1  0
 10 41  1  1
 12 19  1  0
 12 13  1  0
 12 42  1  6
 13 14  1  0
 13 15  1  0
 13 43  1  1
 15 16  2  0
 15 17  1  0
 17 18  1  0
 17 44  1  0
 17 45  1  0
 18 19  1  0
 18 46  1  0
 18 47  1  0
 19 20  1  6
 19 21  1  0
 20 48  1  0
 20 49  1  0
 20 50  1  0
 21 22  1  0
 21 51  1  6
 22 23  1  0
 22 52  1  0
 22 53  1  0
 23 24  1  0
 23 54  1  0
 23 55  1  0
 24 25  1  6
 25 56  1  0
 25 57  1  0
 25 58  1  0
 26 27  1  0
 27 28  2  0
M  END
>  <i_m_ct_stereo_status>  (167) 
1

>  <s_m_source_file>  (167) 
/var/tmp/pbs.5076255.sched01/tmp7c02qu8j/38qwqhi24o.sdf

>  <i_m_source_file_index>  (167) 
33

>  <i_lp_mmshare_version>  (167) 
48012

>  <i_f3d_flags>  (167) 
0

>  <s_epik_input>  (167) 
TzFDKD1PKVtDQEhdKFtDSDNdKVNbQ0BdMTJbQ0BdMyhbQ0gzXSlbQ0BIXShbQ0gyXVtDSDJdMilbQ0BIXTRbQ0BASF0oW0NIMl1bQ0gyXTMpW0NAQF01KFtDSDNdKVtDQEBIXShbQ0BASF0oRilbQ0gyXTQpW0NASF0oQ2wpQyg9TylbQ0gyXVtDSDJdNQ==

>  <s_epik_cmdline>  (167) 
J2VwaWtfcHl0aG9uJywgJy1waHQnLCAnMi4wJywgJy1waCcsICc3LjAnLCAnLXRuJywgJzgnLCAnLW1hJywgJzIwMCcsICctaW1hZScsICc8aW5maWxlLm1hZT4nLCAnLW9tYWUnLCAnPG91dGZpbGUubWFlPic=

>  <r_lp_tautomer_probability>  (167) 
1

>  <r_epik_Ionization_Penalty>  (167) 
5.78013e-11

>  <r_epik_Ionization_Penalty_Charging>  (167) 
0

>  <r_epik_Ionization_Penalty_Neutral>  (167) 
5.78013e-11

>  <r_epik_State_Penalty>  (167) 
-0

>  <r_epik_Charging_Adjusted_Penalty>  (167) 
0

>  <i_epik_Tot_Q>  (167) 
0

>  <i_epik_Tot_abs_Q>  (167) 
0

>  <s_epik_Chemistry_Notes>  (167) 
This compound has an ester and may undergo hydrolysis at high or low pH.

>  <s_lp_Force_Field>  (167) 
OPLS3e

>  <r_lp_Energy>  (167) 
48.5218

>  <b_lp_Chiralities_Consistent>  (167) 
1

>  <s_lp_Variant>  (167) 
51:0-1

>  <s_i_glide_gridfile>  (167) 
pfpi4k_grid

>  <i_i_glide_lignum>  (167) 
33

>  <i_i_glide_rotatable_bonds>  (167) 
0

>  <r_i_docking_score>  (167) 
-2.19507

>  <r_i_glide_ligand_efficiency>  (167) 
-0.0783953

>  <r_i_glide_ligand_efficiency_sa>  (167) 
-0.238054

>  <r_i_glide_ligand_efficiency_ln>  (167) 
-0.506686

>  <r_i_glide_gscore>  (167) 
-2.19507

>  <r_i_glide_lipo>  (167) 
-0.268077

>  <r_i_glide_hbond>  (167) 
0

>  <r_i_glide_metal>  (167) 
-0

>  <r_i_glide_rewards>  (167) 
-0.484171

>  <r_i_glide_evdw>  (167) 
-28.5847

>  <r_i_glide_ecoul>  (167) 
0.213634

>  <r_i_glide_erotb>  (167) 
0

>  <r_i_glide_esite>  (167) 
-0.0456297

>  <r_i_glide_emodel>  (167) 
-30.6708

>  <r_i_glide_energy>  (167) 
-28.3711

>  <r_i_glide_einternal>  (167) 
0

>  <r_i_glide_intrahb_reward>  (167) 
-0

>  <i_i_glide_confnum>  (167) 
1

>  <i_i_glide_posenum>  (167) 
21

>  <r_i_glide_eff_state_penalty>  (167) 
0

>  <ligand_id>  (167) 
51

>  <original_smiles>  (167) 
CC1SC2(CCC3C4CC(F)C5C(Cl)C(=O)CCC5(C)C4CCC32C)OC1=O

>  <smiles>  (167) 
[H]C([H])([H])C1([H])SC2(OC1=O)C([H])([H])C([H])([H])C1([H])C3([H])C([H])([H])C([H])(F)C4([H])C([H])(Cl)C(=O)C([H])([H])C([H])([H])C4(C([H])([H])[H])C3([H])C([H])([H])C([H])([H])C21C([H])([H])[H]

$$$$
52:0:0
     RDKit          3D

 36 39  0  0  1  0  0  0  0  0999 V2000
    1.9161   -0.4507    4.9524 O   0  0  0  0  0  0  0  0  0  0  0  0
    0.9643   -0.9645    3.9517 S   0  0  0  0  0  0  0  0  0  0  0  0
    0.3010   -2.2553    4.1673 O   0  0  0  0  0  0  0  0  0  0  0  0
   -0.3611    0.2833    3.6291 C   0  0  0  0  0  0  0  0  0  0  0  0
   -0.1082    1.6480    4.2280 C   0  0  0  0  0  0  0  0  0  0  0  0
   -1.0995    0.7137    4.8785 C   0  0  0  0  0  0  0  0  0  0  0  0
    1.7872   -1.0361    2.4396 N   0  0  0  0  0  0  0  0  0  0  0  0
    2.3314    0.1882    1.8238 C   0  0  0  0  0  0  0  0  0  0  0  0
    3.8545    0.1205    1.6061 C   0  0  0  0  0  0  0  0  0  0  0  0
    4.3001   -1.1579    0.8867 C   0  0  0  0  0  0  0  0  0  0  0  0
    3.7951   -2.3547    1.7089 C   0  0  0  0  0  0  0  0  0  0  0  0
    2.2701   -2.3191    1.8897 C   0  0  0  0  0  0  0  0  0  0  0  0
    5.8457   -1.2675    0.6502 C   0  0  0  0  0  0  0  0  0  0  0  0
    5.8255   -1.9003   -0.6389 N   0  0  0  0  0  0  0  0  0  0  0  0
    6.7207   -2.6506   -1.3048 N   0  0  0  0  0  0  0  0  0  0  0  0
    5.9776   -3.0472   -2.3575 C   0  0  0  0  0  0  0  0  0  0  0  0
    4.6755   -2.5836   -2.4204 N   0  0  0  0  0  0  0  0  0  0  0  0
    4.6994   -1.8868   -1.3036 C   0  0  0  0  0  0  0  0  0  0  0  0
    3.7883   -1.2740   -0.4851 N   0  0  0  0  0  0  0  0  0  0  0  0
   -0.9031    0.1477    2.6940 H   0  0  0  0  0  0  0  0  0  0  0  0
    0.8222    1.8360    4.7579 H   0  0  0  0  0  0  0  0  0  0  0  0
   -0.5087    2.4994    3.6833 H   0  0  0  0  0  0  0  0  0  0  0  0
   -2.1510    0.9748    4.7744 H   0  0  0  0  0  0  0  0  0  0  0  0
   -0.8162    0.2978    5.8437 H   0  0  0  0  0  0  0  0  0  0  0  0
    1.8338    0.3166    0.8647 H   0  0  0  0  0  0  0  0  0  0  0  0
    2.0726    1.0671    2.4186 H   0  0  0  0  0  0  0  0  0  0  0  0
    4.1648    0.9708    1.0072 H   0  0  0  0  0  0  0  0  0  0  0  0
    4.3591    0.2151    2.5702 H   0  0  0  0  0  0  0  0  0  0  0  0
    4.0466   -3.2749    1.1772 H   0  0  0  0  0  0  0  0  0  0  0  0
    4.2982   -2.4113    2.6777 H   0  0  0  0  0  0  0  0  0  0  0  0
    1.9636   -3.1643    2.5052 H   0  0  0  0  0  0  0  0  0  0  0  0
    1.8172   -2.4580    0.9097 H   0  0  0  0  0  0  0  0  0  0  0  0
    6.3237   -0.2982    0.5162 H   0  0  0  0  0  0  0  0  0  0  0  0
    6.3938   -1.8368    1.4025 H   0  0  0  0  0  0  0  0  0  0  0  0
    6.4002   -3.6951   -3.1182 H   0  0  0  0  0  0  0  0  0  0  0  0
    2.7892   -1.2897   -0.7074 H   0  0  0  0  0  0  0  0  0  0  0  0
  1  2  2  0
  2  3  2  0
  2  4  1  0
  2  7  1  0
  4  6  1  0
  4  5  1  0
  4 20  1  0
  5  6  1  0
  5 21  1  0
  5 22  1  0
  6 23  1  0
  6 24  1  0
  7 12  1  0
  7  8  1  0
  8  9  1  0
  8 25  1  0
  8 26  1  0
  9 10  1  0
  9 27  1  0
  9 28  1  0
 10 19  1  0
 10 11  1  0
 10 13  1  0
 11 12  1  0
 11 29  1  0
 11 30  1  0
 12 31  1  0
 12 32  1  0
 13 14  1  0
 13 33  1  0
 13 34  1  0
 14 18  1  0
 14 15  1  0
 15 16  2  0
 16 17  1  0
 16 35  1  0
 17 18  2  0
 18 19  1  0
 19 36  1  0
M  END
>  <i_m_ct_stereo_status>  (168) 
1

>  <s_m_source_file>  (168) 
/var/tmp/pbs.5076255.sched01/tmp7c02qu8j/38qwqhi24o.sdf

>  <i_m_source_file_index>  (168) 
34

>  <i_lp_mmshare_version>  (168) 
48012

>  <i_f3d_flags>  (168) 
0

>  <s_epik_input>  (168) 
W0NIMl0xW0NIMl1bQ0hdMVMoPU8pKD1PKU4oW0NIMl1bQ0gyXTIpW0NIMl1bQ0gyXUMyM1tDSDJdbjRjKFtOSF0zKW5bY0hdbjQ=

>  <s_epik_cmdline>  (168) 
J2VwaWtfcHl0aG9uJywgJy1waHQnLCAnMi4wJywgJy1waCcsICc3LjAnLCAnLXRuJywgJzgnLCAnLW1hJywgJzIwMCcsICctaW1hZScsICc8aW5maWxlLm1hZT4nLCAnLW9tYWUnLCAnPG91dGZpbGUubWFlPic=

>  <r_lp_tautomer_probability>  (168) 
1

>  <r_epik_Ionization_Penalty>  (168) 
0.00532581

>  <r_epik_Ionization_Penalty_Charging>  (168) 
0

>  <r_epik_Ionization_Penalty_Neutral>  (168) 
0.00532581

>  <r_epik_State_Penalty>  (168) 
-0

>  <r_epik_Charging_Adjusted_Penalty>  (168) 
0

>  <i_epik_Tot_Q>  (168) 
0

>  <i_epik_Tot_abs_Q>  (168) 
0

>  <s_lp_Force_Field>  (168) 
OPLS3e

>  <r_lp_Energy>  (168) 
43.2472

>  <b_lp_Chiralities_Consistent>  (168) 
1

>  <s_lp_Variant>  (168) 
52:0-1

>  <s_i_glide_gridfile>  (168) 
pfpi4k_grid

>  <i_i_glide_lignum>  (168) 
34

>  <i_i_glide_rotatable_bonds>  (168) 
2

>  <r_i_docking_score>  (168) 
-3.52554

>  <r_i_glide_ligand_efficiency>  (168) 
-0.185555

>  <r_i_glide_ligand_efficiency_sa>  (168) 
-0.495134

>  <r_i_glide_ligand_efficiency_ln>  (168) 
-0.8938

>  <r_i_glide_gscore>  (168) 
-3.52554

>  <r_i_glide_lipo>  (168) 
-0.153262

>  <r_i_glide_hbond>  (168) 
-0.184556

>  <r_i_glide_metal>  (168) 
-0

>  <r_i_glide_rewards>  (168) 
-1.71845

>  <r_i_glide_evdw>  (168) 
-26.0425

>  <r_i_glide_ecoul>  (168) 
-2.92365

>  <r_i_glide_erotb>  (168) 
0.451102

>  <r_i_glide_esite>  (168) 
-0.179697

>  <r_i_glide_emodel>  (168) 
-34.0627

>  <r_i_glide_energy>  (168) 
-28.9662

>  <r_i_glide_einternal>  (168) 
2.99089

>  <r_i_glide_intrahb_reward>  (168) 
-0

>  <i_i_glide_confnum>  (168) 
2

>  <i_i_glide_posenum>  (168) 
11

>  <r_i_glide_eff_state_penalty>  (168) 
0

>  <ligand_id>  (168) 
52

>  <original_smiles>  (168) 
O=S(=O)(C1CC1)N1CCC2(CC1)Cn1ncnc1N2

>  <smiles>  (168) 
[H]c1nc2n(n1)C([H])([H])C1(N2[H])C([H])([H])C([H])([H])N(S(=O)(=O)C2([H])C([H])([H])C2([H])[H])C([H])([H])C1([H])[H]

$$$$
52:0:1
     RDKit          3D

 36 39  0  0  1  0  0  0  0  0999 V2000
    6.4013   -1.7413   -0.6586 O   0  0  0  0  0  0  0  0  0  0  0  0
    5.0017   -1.3108   -0.5432 S   0  0  0  0  0  0  0  0  0  0  0  0
    4.6252   -0.2921    0.4514 O   0  0  0  0  0  0  0  0  0  0  0  0
    4.4649   -0.6888   -2.2177 C   0  0  0  0  0  0  0  0  0  0  0  0
    3.2122   -1.2794   -2.8123 C   0  0  0  0  0  0  0  0  0  0  0  0
    4.5667   -1.6897   -3.3507 C   0  0  0  0  0  0  0  0  0  0  0  0
    4.0718   -2.7284   -0.2154 N   0  0  0  0  0  0  0  0  0  0  0  0
    4.3611   -4.0086   -0.8875 C   0  0  0  0  0  0  0  0  0  0  0  0
    4.5954   -5.1525    0.1046 C   0  0  0  0  0  0  0  0  0  0  0  0
    3.4582   -5.2463    1.1340 C   0  0  0  0  0  0  0  0  0  0  0  0
    3.2946   -3.8737    1.8249 C   0  0  0  0  0  0  0  0  0  0  0  0
    3.0186   -2.7485    0.8105 C   0  0  0  0  0  0  0  0  0  0  0  0
    3.6549   -6.3760    2.1999 C   0  0  0  0  0  0  0  0  0  0  0  0
    2.2888   -6.7985    2.3286 N   0  0  0  0  0  0  0  0  0  0  0  0
    1.6034   -7.3819    3.3270 N   0  0  0  0  0  0  0  0  0  0  0  0
    0.3542   -7.3331    2.8284 C   0  0  0  0  0  0  0  0  0  0  0  0
    0.1828   -6.6604    1.6228 N   0  0  0  0  0  0  0  0  0  0  0  0
    1.4563   -6.4115    1.3990 C   0  0  0  0  0  0  0  0  0  0  0  0
    2.1754   -5.6155    0.5344 N   0  0  0  0  0  0  0  0  0  0  0  0
    4.7610    0.3373   -2.4169 H   0  0  0  0  0  0  0  0  0  0  0  0
    2.6345   -1.9891   -2.2243 H   0  0  0  0  0  0  0  0  0  0  0  0
    2.6199   -0.6063   -3.4303 H   0  0  0  0  0  0  0  0  0  0  0  0
    4.8297   -1.2926   -4.3288 H   0  0  0  0  0  0  0  0  0  0  0  0
    4.9147   -2.7017   -3.1670 H   0  0  0  0  0  0  0  0  0  0  0  0
    3.5177   -4.2334   -1.5412 H   0  0  0  0  0  0  0  0  0  0  0  0
    5.2560   -3.9398   -1.5035 H   0  0  0  0  0  0  0  0  0  0  0  0
    4.7065   -6.0855   -0.4512 H   0  0  0  0  0  0  0  0  0  0  0  0
    5.5527   -4.9734    0.5967 H   0  0  0  0  0  0  0  0  0  0  0  0
    2.4562   -3.9144    2.5232 H   0  0  0  0  0  0  0  0  0  0  0  0
    4.1857   -3.6273    2.4150 H   0  0  0  0  0  0  0  0  0  0  0  0
    2.9490   -1.8028    1.3465 H   0  0  0  0  0  0  0  0  0  0  0  0
    2.0567   -2.8811    0.3169 H   0  0  0  0  0  0  0  0  0  0  0  0
    4.2195   -7.2192    1.8065 H   0  0  0  0  0  0  0  0  0  0  0  0
    4.1067   -6.0452    3.1342 H   0  0  0  0  0  0  0  0  0  0  0  0
   -0.4721   -7.7537    3.3864 H   0  0  0  0  0  0  0  0  0  0  0  0
    1.7601   -5.0401   -0.1876 H   0  0  0  0  0  0  0  0  0  0  0  0
  1  2  2  0
  2  3  2  0
  2  4  1  0
  2  7  1  0
  4  6  1  0
  4  5  1  0
  4 20  1  0
  5  6  1  0
  5 21  1  0
  5 22  1  0
  6 23  1  0
  6 24  1  0
  7 12  1  0
  7  8  1  0
  8  9  1  0
  8 25  1  0
  8 26  1  0
  9 10  1  0
  9 27  1  0
  9 28  1  0
 10 19  1  0
 10 11  1  0
 10 13  1  0
 11 12  1  0
 11 29  1  0
 11 30  1  0
 12 31  1  0
 12 32  1  0
 13 14  1  0
 13 33  1  0
 13 34  1  0
 14 18  1  0
 14 15  1  0
 15 16  2  0
 16 17  1  0
 16 35  1  0
 17 18  2  0
 18 19  1  0
 19 36  1  0
M  END
>  <i_m_ct_stereo_status>  (169) 
1

>  <s_m_source_file>  (169) 
/var/tmp/pbs.5076255.sched01/tmp7c02qu8j/38qwqhi24o.sdf

>  <i_m_source_file_index>  (169) 
34

>  <i_lp_mmshare_version>  (169) 
48012

>  <i_f3d_flags>  (169) 
0

>  <s_epik_input>  (169) 
W0NIMl0xW0NIMl1bQ0hdMVMoPU8pKD1PKU4oW0NIMl1bQ0gyXTIpW0NIMl1bQ0gyXUMyM1tDSDJdbjRjKFtOSF0zKW5bY0hdbjQ=

>  <s_epik_cmdline>  (169) 
J2VwaWtfcHl0aG9uJywgJy1waHQnLCAnMi4wJywgJy1waCcsICc3LjAnLCAnLXRuJywgJzgnLCAnLW1hJywgJzIwMCcsICctaW1hZScsICc8aW5maWxlLm1hZT4nLCAnLW9tYWUnLCAnPG91dGZpbGUubWFlPic=

>  <r_lp_tautomer_probability>  (169) 
1

>  <r_epik_Ionization_Penalty>  (169) 
0.00532581

>  <r_epik_Ionization_Penalty_Charging>  (169) 
0

>  <r_epik_Ionization_Penalty_Neutral>  (169) 
0.00532581

>  <r_epik_State_Penalty>  (169) 
-0

>  <r_epik_Charging_Adjusted_Penalty>  (169) 
0

>  <i_epik_Tot_Q>  (169) 
0

>  <i_epik_Tot_abs_Q>  (169) 
0

>  <s_lp_Force_Field>  (169) 
OPLS3e

>  <r_lp_Energy>  (169) 
43.2472

>  <b_lp_Chiralities_Consistent>  (169) 
1

>  <s_lp_Variant>  (169) 
52:0-1

>  <s_i_glide_gridfile>  (169) 
pfpi4k_grid

>  <i_i_glide_lignum>  (169) 
34

>  <i_i_glide_rotatable_bonds>  (169) 
2

>  <r_i_docking_score>  (169) 
-3.44549

>  <r_i_glide_ligand_efficiency>  (169) 
-0.181341

>  <r_i_glide_ligand_efficiency_sa>  (169) 
-0.483892

>  <r_i_glide_ligand_efficiency_ln>  (169) 
-0.873505

>  <r_i_glide_gscore>  (169) 
-3.44549

>  <r_i_glide_lipo>  (169) 
-0.0922218

>  <r_i_glide_hbond>  (169) 
-0.127374

>  <r_i_glide_metal>  (169) 
-0

>  <r_i_glide_rewards>  (169) 
-1.47715

>  <r_i_glide_evdw>  (169) 
-25.3063

>  <r_i_glide_ecoul>  (169) 
-4.38401

>  <r_i_glide_erotb>  (169) 
0.451102

>  <r_i_glide_esite>  (169) 
-0.276921

>  <r_i_glide_emodel>  (169) 
-31.6691

>  <r_i_glide_energy>  (169) 
-29.6903

>  <r_i_glide_einternal>  (169) 
8.40198

>  <r_i_glide_intrahb_reward>  (169) 
-0

>  <i_i_glide_confnum>  (169) 
5

>  <i_i_glide_posenum>  (169) 
2

>  <r_i_glide_eff_state_penalty>  (169) 
0

>  <ligand_id>  (169) 
52

>  <original_smiles>  (169) 
O=S(=O)(C1CC1)N1CCC2(CC1)Cn1ncnc1N2

>  <smiles>  (169) 
[H]c1nc2n(n1)C([H])([H])C1(N2[H])C([H])([H])C([H])([H])N(S(=O)(=O)C2([H])C([H])([H])C2([H])[H])C([H])([H])C1([H])[H]

$$$$
52:0:2
     RDKit          3D

 36 39  0  0  1  0  0  0  0  0999 V2000
    7.4096   -8.4346    1.2817 O   0  0  0  0  0  0  0  0  0  0  0  0
    6.8384   -7.4951    2.2558 S   0  0  0  0  0  0  0  0  0  0  0  0
    7.1034   -7.6766    3.6939 O   0  0  0  0  0  0  0  0  0  0  0  0
    7.3484   -5.7780    1.7946 C   0  0  0  0  0  0  0  0  0  0  0  0
    8.3052   -5.6802    0.6245 C   0  0  0  0  0  0  0  0  0  0  0  0
    8.8190   -5.5184    2.0342 C   0  0  0  0  0  0  0  0  0  0  0  0
    5.1269   -7.4901    2.0313 N   0  0  0  0  0  0  0  0  0  0  0  0
    4.4758   -8.1617    0.8830 C   0  0  0  0  0  0  0  0  0  0  0  0
    3.4308   -9.1931    1.3531 C   0  0  0  0  0  0  0  0  0  0  0  0
    2.4244   -8.5774    2.3449 C   0  0  0  0  0  0  0  0  0  0  0  0
    3.2132   -7.9665    3.5257 C   0  0  0  0  0  0  0  0  0  0  0  0
    4.2367   -6.9164    3.0518 C   0  0  0  0  0  0  0  0  0  0  0  0
    1.3408   -9.5820    2.8799 C   0  0  0  0  0  0  0  0  0  0  0  0
    0.2233   -8.6836    2.9292 N   0  0  0  0  0  0  0  0  0  0  0  0
   -0.9036   -8.6597    3.6650 N   0  0  0  0  0  0  0  0  0  0  0  0
   -1.3919   -7.4595    3.3253 C   0  0  0  0  0  0  0  0  0  0  0  0
   -0.6216   -6.6838    2.4795 N   0  0  0  0  0  0  0  0  0  0  0  0
    0.3399   -7.5600    2.2823 C   0  0  0  0  0  0  0  0  0  0  0  0
    1.5965   -7.5327    1.7328 N   0  0  0  0  0  0  0  0  0  0  0  0
    6.6279   -4.9983    2.0470 H   0  0  0  0  0  0  0  0  0  0  0  0
    8.6151   -6.5788    0.0950 H   0  0  0  0  0  0  0  0  0  0  0  0
    8.2571   -4.7793    0.0208 H   0  0  0  0  0  0  0  0  0  0  0  0
    9.1143   -4.5148    2.3159 H   0  0  0  0  0  0  0  0  0  0  0  0
    9.4501   -6.3135    2.4280 H   0  0  0  0  0  0  0  0  0  0  0  0
    4.0061   -7.3968    0.2624 H   0  0  0  0  0  0  0  0  0  0  0  0
    5.2079   -8.6616    0.2492 H   0  0  0  0  0  0  0  0  0  0  0  0
    2.9128   -9.6084    0.4910 H   0  0  0  0  0  0  0  0  0  0  0  0
    3.9496  -10.0377    1.8141 H   0  0  0  0  0  0  0  0  0  0  0  0
    2.5194   -7.4793    4.2115 H   0  0  0  0  0  0  0  0  0  0  0  0
    3.7220   -8.7476    4.1050 H   0  0  0  0  0  0  0  0  0  0  0  0
    4.8049   -6.5495    3.9076 H   0  0  0  0  0  0  0  0  0  0  0  0
    3.7285   -6.0478    2.6295 H   0  0  0  0  0  0  0  0  0  0  0  0
    1.0913  -10.3554    2.1601 H   0  0  0  0  0  0  0  0  0  0  0  0
    1.5611  -10.0432    3.8397 H   0  0  0  0  0  0  0  0  0  0  0  0
   -2.3348   -7.1255    3.7358 H   0  0  0  0  0  0  0  0  0  0  0  0
    1.9954   -6.6670    1.4031 H   0  0  0  0  0  0  0  0  0  0  0  0
  1  2  2  0
  2  3  2  0
  2  4  1  0
  2  7  1  0
  4  6  1  0
  4  5  1  0
  4 20  1  0
  5  6  1  0
  5 21  1  0
  5 22  1  0
  6 23  1  0
  6 24  1  0
  7 12  1  0
  7  8  1  0
  8  9  1  0
  8 25  1  0
  8 26  1  0
  9 10  1  0
  9 27  1  0
  9 28  1  0
 10 19  1  0
 10 11  1  0
 10 13  1  0
 11 12  1  0
 11 29  1  0
 11 30  1  0
 12 31  1  0
 12 32  1  0
 13 14  1  0
 13 33  1  0
 13 34  1  0
 14 18  1  0
 14 15  1  0
 15 16  2  0
 16 17  1  0
 16 35  1  0
 17 18  2  0
 18 19  1  0
 19 36  1  0
M  END
>  <i_m_ct_stereo_status>  (170) 
1

>  <s_m_source_file>  (170) 
/var/tmp/pbs.5076255.sched01/tmp7c02qu8j/38qwqhi24o.sdf

>  <i_m_source_file_index>  (170) 
34

>  <i_lp_mmshare_version>  (170) 
48012

>  <i_f3d_flags>  (170) 
0

>  <s_epik_input>  (170) 
W0NIMl0xW0NIMl1bQ0hdMVMoPU8pKD1PKU4oW0NIMl1bQ0gyXTIpW0NIMl1bQ0gyXUMyM1tDSDJdbjRjKFtOSF0zKW5bY0hdbjQ=

>  <s_epik_cmdline>  (170) 
J2VwaWtfcHl0aG9uJywgJy1waHQnLCAnMi4wJywgJy1waCcsICc3LjAnLCAnLXRuJywgJzgnLCAnLW1hJywgJzIwMCcsICctaW1hZScsICc8aW5maWxlLm1hZT4nLCAnLW9tYWUnLCAnPG91dGZpbGUubWFlPic=

>  <r_lp_tautomer_probability>  (170) 
1

>  <r_epik_Ionization_Penalty>  (170) 
0.00532581

>  <r_epik_Ionization_Penalty_Charging>  (170) 
0

>  <r_epik_Ionization_Penalty_Neutral>  (170) 
0.00532581

>  <r_epik_State_Penalty>  (170) 
-0

>  <r_epik_Charging_Adjusted_Penalty>  (170) 
0

>  <i_epik_Tot_Q>  (170) 
0

>  <i_epik_Tot_abs_Q>  (170) 
0

>  <s_lp_Force_Field>  (170) 
OPLS3e

>  <r_lp_Energy>  (170) 
43.2472

>  <b_lp_Chiralities_Consistent>  (170) 
1

>  <s_lp_Variant>  (170) 
52:0-1

>  <s_i_glide_gridfile>  (170) 
pfpi4k_grid

>  <i_i_glide_lignum>  (170) 
34

>  <i_i_glide_rotatable_bonds>  (170) 
2

>  <r_i_docking_score>  (170) 
-3.34922

>  <r_i_glide_ligand_efficiency>  (170) 
-0.176275

>  <r_i_glide_ligand_efficiency_sa>  (170) 
-0.470372

>  <r_i_glide_ligand_efficiency_ln>  (170) 
-0.8491

>  <r_i_glide_gscore>  (170) 
-3.34922

>  <r_i_glide_lipo>  (170) 
-0.103262

>  <r_i_glide_hbond>  (170) 
-0.16

>  <r_i_glide_metal>  (170) 
-0

>  <r_i_glide_rewards>  (170) 
-1.57506

>  <r_i_glide_evdw>  (170) 
-23.0725

>  <r_i_glide_ecoul>  (170) 
-4.09643

>  <r_i_glide_erotb>  (170) 
0.451102

>  <r_i_glide_esite>  (170) 
-0.193911

>  <r_i_glide_emodel>  (170) 
-32.4777

>  <r_i_glide_energy>  (170) 
-27.1689

>  <r_i_glide_einternal>  (170) 
2.07741

>  <r_i_glide_intrahb_reward>  (170) 
-0

>  <i_i_glide_confnum>  (170) 
2

>  <i_i_glide_posenum>  (170) 
3

>  <r_i_glide_eff_state_penalty>  (170) 
0

>  <ligand_id>  (170) 
52

>  <original_smiles>  (170) 
O=S(=O)(C1CC1)N1CCC2(CC1)Cn1ncnc1N2

>  <smiles>  (170) 
[H]c1nc2n(n1)C([H])([H])C1(N2[H])C([H])([H])C([H])([H])N(S(=O)(=O)C2([H])C([H])([H])C2([H])[H])C([H])([H])C1([H])[H]

$$$$
53:0:0
     RDKit          3D

 67 72  0  0  1  0  0  0  0  0999 V2000
    0.2455   -9.7926    4.3019 C   0  0  0  0  0  0  0  0  0  0  0  0
    1.4708   -9.0538    3.7536 C   0  0  1  0  0  0  0  0  0  0  0  0
    2.2321   -8.4348    4.9682 C   0  0  0  0  0  0  0  0  0  0  0  0
    3.5569   -7.6553    4.7835 C   0  0  0  0  0  0  0  0  0  0  0  0
    4.1364   -7.2472    5.7969 O   0  0  0  0  0  0  0  0  0  0  0  0
    4.1721   -7.3405    3.3926 C   0  0  1  0  0  0  0  0  0  0  0  0
    4.5472   -8.6538    2.6399 C   0  0  0  0  0  0  0  0  0  0  0  0
    5.6193   -8.5084    1.5374 C   0  0  0  0  0  0  0  0  0  0  0  0
    5.2020   -9.7455    3.5512 C   0  0  0  0  0  0  0  0  0  0  0  0
    3.1850   -9.0274    2.0239 C   0  0  1  0  0  0  0  0  0  0  0  0
    2.3337   -9.9753    2.9053 C   0  0  0  0  0  0  0  0  0  0  0  0
    2.3552   -7.6962    1.9139 C   0  0  1  0  0  0  0  0  0  0  0  0
    1.0538   -8.0517    2.6743 C   0  0  0  0  0  0  0  0  0  0  0  0
    3.1917   -6.4883    2.5074 C   0  0  1  0  0  0  0  0  0  0  0  0
    2.2723   -5.5341    3.3527 C   0  0  0  0  0  0  0  0  0  0  0  0
    3.8149   -5.5896    1.3517 C   0  0  1  0  0  0  0  0  0  0  0  0
    3.9841   -6.2398    0.0810 O   0  0  0  0  0  0  0  0  0  0  0  0
    2.9880   -5.2020    0.1649 C   0  0  2  0  0  0  0  0  0  0  0  0
    3.3411   -3.8447   -0.3409 C   0  0  1  0  0  0  0  0  0  0  0  0
    2.3508   -3.0063    0.2342 O   0  0  0  0  0  0  0  0  0  0  0  0
    4.7682   -3.5864    0.2037 C   0  0  1  0  0  0  0  0  0  0  0  0
    5.2845   -2.0884    0.1691 C   0  0  0  0  0  0  0  0  0  0  0  0
    6.8289   -2.0151    0.0865 C   0  0  0  0  0  0  0  0  0  0  0  0
    4.7640   -1.3493   -1.0886 C   0  0  0  0  0  0  0  0  0  0  0  0
    4.8759   -1.3506    1.4431 C   0  0  0  0  0  0  0  0  0  0  0  0
    4.4053   -0.2127    1.4272 O   0  0  0  0  0  0  0  0  0  0  0  0
    5.1529   -2.0715    2.7350 C   0  0  0  0  0  0  0  0  0  0  0  0
    4.4872   -3.4413    2.7378 C   0  0  0  0  0  0  0  0  0  0  0  0
    4.8416   -4.4169    1.5671 C   0  0  1  0  0  0  0  0  0  0  0  0
    6.2889   -4.9703    1.7685 C   0  0  0  0  0  0  0  0  0  0  0  0
    6.6340   -5.2802    2.9238 O   0  0  0  0  0  0  0  0  0  0  0  0
    7.0727   -5.0787    0.7970 O   0  0  0  0  0  0  0  0  0  0  0  0
   -0.4136   -9.1163    4.8477 H   0  0  0  0  0  0  0  0  0  0  0  0
    0.5441  -10.5836    4.9916 H   0  0  0  0  0  0  0  0  0  0  0  0
   -0.3389  -10.2529    3.5048 H   0  0  0  0  0  0  0  0  0  0  0  0
    1.5517   -7.7635    5.4974 H   0  0  0  0  0  0  0  0  0  0  0  0
    2.4574   -9.2386    5.6691 H   0  0  0  0  0  0  0  0  0  0  0  0
    5.0684   -6.8071    3.6491 H   0  0  0  0  0  0  0  0  0  0  0  0
    5.8425   -9.4819    1.1035 H   0  0  0  0  0  0  0  0  0  0  0  0
    6.5452   -8.0910    1.9251 H   0  0  0  0  0  0  0  0  0  0  0  0
    5.3306   -7.9093    0.6962 H   0  0  0  0  0  0  0  0  0  0  0  0
    5.3568  -10.6754    2.9945 H   0  0  0  0  0  0  0  0  0  0  0  0
    4.6463  -10.0169    4.4531 H   0  0  0  0  0  0  0  0  0  0  0  0
    6.1860   -9.4084    3.8941 H   0  0  0  0  0  0  0  0  0  0  0  0
    3.3282   -9.4997    1.0465 H   0  0  0  0  0  0  0  0  0  0  0  0
    2.8729  -10.7226    3.4803 H   0  0  0  0  0  0  0  0  0  0  0  0
    1.6814  -10.5416    2.2396 H   0  0  0  0  0  0  0  0  0  0  0  0
    2.0646   -7.5660    0.8819 H   0  0  0  0  0  0  0  0  0  0  0  0
    0.3901   -8.5631    1.9699 H   0  0  0  0  0  0  0  0  0  0  0  0
    0.4221   -7.2424    3.0254 H   0  0  0  0  0  0  0  0  0  0  0  0
    1.6862   -4.8814    2.7014 H   0  0  0  0  0  0  0  0  0  0  0  0
    2.8253   -4.9274    4.0558 H   0  0  0  0  0  0  0  0  0  0  0  0
    1.5654   -5.9938    4.0355 H   0  0  0  0  0  0  0  0  0  0  0  0
    1.9697   -5.5433    0.0049 H   0  0  0  0  0  0  0  0  0  0  0  0
    3.2717   -3.8334   -1.4361 H   0  0  0  0  0  0  0  0  0  0  0  0
    2.1784   -2.2415   -0.3013 H   0  0  0  0  0  0  0  0  0  0  0  0
    5.3745   -4.1110   -0.5369 H   0  0  0  0  0  0  0  0  0  0  0  0
    7.2123   -2.5450   -0.7902 H   0  0  0  0  0  0  0  0  0  0  0  0
    7.3111   -2.4289    0.9678 H   0  0  0  0  0  0  0  0  0  0  0  0
    7.1666   -0.9746    0.0448 H   0  0  0  0  0  0  0  0  0  0  0  0
    5.0409   -1.8727   -2.0066 H   0  0  0  0  0  0  0  0  0  0  0  0
    5.1771   -0.3361   -1.1428 H   0  0  0  0  0  0  0  0  0  0  0  0
    3.6787   -1.2241   -1.0767 H   0  0  0  0  0  0  0  0  0  0  0  0
    6.2171   -2.1961    2.8765 H   0  0  0  0  0  0  0  0  0  0  0  0
    4.7792   -1.4822    3.5710 H   0  0  0  0  0  0  0  0  0  0  0  0
    4.7570   -3.8662    3.7065 H   0  0  0  0  0  0  0  0  0  0  0  0
    3.4164   -3.2592    2.7188 H   0  0  0  0  0  0  0  0  0  0  0  0
  2  1  1  1
  1 33  1  0
  1 34  1  0
  1 35  1  0
  2 11  1  0
  2 13  1  0
  2  3  1  0
  3  4  1  0
  3 36  1  0
  3 37  1  0
  4  5  2  0
  4  6  1  0
  6 14  1  0
  6  7  1  0
  6 38  1  1
  7  8  1  0
  7  9  1  0
  7 10  1  0
  8 39  1  0
  8 40  1  0
  8 41  1  0
  9 42  1  0
  9 43  1  0
  9 44  1  0
 10 11  1  0
 10 12  1  0
 10 45  1  6
 11 46  1  0
 11 47  1  0
 12 13  1  0
 12 14  1  0
 12 48  1  6
 13 49  1  0
 13 50  1  0
 14 15  1  1
 14 16  1  0
 15 51  1  0
 15 52  1  0
 15 53  1  0
 16 18  1  0
 16 29  1  0
 16 17  1  6
 17 18  1  0
 18 19  1  0
 18 54  1  1
 19 20  1  0
 19 21  1  0
 19 55  1  6
 20 56  1  0
 21 29  1  0
 21 22  1  0
 21 57  1  6
 22 23  1  0
 22 24  1  0
 22 25  1  0
 23 58  1  0
 23 59  1  0
 23 60  1  0
 24 61  1  0
 24 62  1  0
 24 63  1  0
 25 26  2  0
 25 27  1  0
 27 28  1  0
 27 64  1  0
 27 65  1  0
 28 29  1  0
 28 66  1  0
 28 67  1  0
 29 30  1  1
 30 31  2  0
 30 32  1  0
M  CHG  1  32  -1
M  END
>  <i_m_ct_stereo_status>  (171) 
1

>  <s_m_source_file>  (171) 
/var/tmp/pbs.5076255.sched01/tmp7c02qu8j/38qwqhi24o.sdf

>  <i_m_source_file_index>  (171) 
35

>  <i_lp_mmshare_version>  (171) 
48012

>  <i_f3d_flags>  (171) 
0

>  <s_epik_input>  (171) 
W0NIM11bQ0BAXTEyW0NIMl1DKD1PKVtDQEhdM0MoW0NIM10pKFtDSDNdKVtDQEBIXShbQ0gyXTEpW0NAQEhdKFtDSDJdMilbQ0BdMyhbQ0gzXSlbQ0BdNDVbQ0BIXShPNClbQ0BASF0oW09IXSlbQ0BASF02W0NAQF01KEMoPU8pW09IXSlbQ0gyXVtDSDJdQyg9TylDNihbQ0gzXSlbQ0gzXQ==

>  <s_epik_cmdline>  (171) 
J2VwaWtfcHl0aG9uJywgJy1waHQnLCAnMi4wJywgJy1waCcsICc3LjAnLCAnLXRuJywgJzgnLCAnLW1hJywgJzIwMCcsICctaW1hZScsICc8aW5maWxlLm1hZT4nLCAnLW9tYWUnLCAnPG91dGZpbGUubWFlPic=

>  <r_lp_tautomer_probability>  (171) 
0.99995

>  <r_epik_Ionization_Penalty>  (171) 
0.00114469

>  <r_epik_Ionization_Penalty_Charging>  (171) 
0.00114459

>  <r_epik_Ionization_Penalty_Neutral>  (171) 
1.02819e-07

>  <r_epik_State_Penalty>  (171) 
0.000752946

>  <r_epik_Charging_Adjusted_Penalty>  (171) 
0.00189754

>  <i_epik_Tot_Q>  (171) 
-1

>  <i_epik_Tot_abs_Q>  (171) 
1

>  <s_lp_Force_Field>  (171) 
OPLS3e

>  <r_lp_Energy>  (171) 
69.4162

>  <b_lp_Chiralities_Consistent>  (171) 
1

>  <s_lp_Variant>  (171) 
53:0-1

>  <s_i_glide_gridfile>  (171) 
pfpi4k_grid

>  <i_i_glide_lignum>  (171) 
35

>  <i_i_glide_rotatable_bonds>  (171) 
3

>  <r_i_docking_score>  (171) 
-2.56529

>  <r_i_glide_ligand_efficiency>  (171) 
-0.0801652

>  <r_i_glide_ligand_efficiency_sa>  (171) 
-0.254509

>  <r_i_glide_ligand_efficiency_ln>  (171) 
-0.574438

>  <r_i_glide_gscore>  (171) 
-2.56529

>  <r_i_glide_lipo>  (171) 
-0.281718

>  <r_i_glide_hbond>  (171) 
-0.139787

>  <r_i_glide_metal>  (171) 
-0

>  <r_i_glide_rewards>  (171) 
-0.555569

>  <r_i_glide_evdw>  (171) 
-29.0357

>  <r_i_glide_ecoul>  (171) 
-1.58694

>  <r_i_glide_erotb>  (171) 
0.10162

>  <r_i_glide_esite>  (171) 
-1.05863e-05

>  <r_i_glide_emodel>  (171) 
-33.6074

>  <r_i_glide_energy>  (171) 
-30.6226

>  <r_i_glide_einternal>  (171) 
1.57319

>  <r_i_glide_intrahb_reward>  (171) 
-0

>  <i_i_glide_confnum>  (171) 
5

>  <i_i_glide_posenum>  (171) 
5

>  <r_i_glide_eff_state_penalty>  (171) 
0

>  <ligand_id>  (171) 
53

>  <original_smiles>  (171) 
CC12CC(=O)C3C(C)(C)C(C1)C(C2)C3(C)C12OC1C(O)C1C(C)(C)C(=O)CCC12C(=O)O

>  <smiles>  (171) 
[H]OC1([H])C2([H])OC2(C2(C([H])([H])[H])C3([H])C(=O)C([H])([H])C4(C([H])([H])[H])C([H])([H])C([H])(C2([H])C4([H])[H])C3(C([H])([H])[H])C([H])([H])[H])C2(C(=O)[O-])C([H])([H])C([H])([H])C(=O)C(C([H])([H])[H])(C([H])([H])[H])C12[H]

$$$$
54:1:0
     RDKit          3D

 78 84  0  0  1  0  0  0  0  0999 V2000
    3.4223    0.5031    4.6205 C   0  0  0  0  0  0  0  0  0  0  0  0
    4.0610    0.5419    3.2268 C   0  0  0  0  0  0  0  0  0  0  0  0
    3.6797   -0.6460    2.3120 C   0  0  1  0  0  0  0  0  0  0  0  0
    4.0848   -0.4250    0.8305 C   0  0  0  0  0  0  0  0  0  0  0  0
    3.5840   -1.1239   -0.2240 C   0  0  0  0  0  0  0  0  0  0  0  0
    4.1376   -1.4707   -1.5953 C   0  0  1  0  0  0  0  0  0  0  0  0
    3.0046   -1.3020   -2.6358 C   0  0  0  0  0  0  0  0  0  0  0  0
    5.0610   -0.5025   -2.0073 O   0  0  0  0  0  0  0  0  0  0  0  0
    4.8490   -2.9146   -1.6285 C   0  0  1  0  0  0  0  0  0  0  0  0
    5.1542   -3.2113   -3.1193 C   0  0  0  0  0  0  0  0  0  0  0  0
    6.2635   -2.9742   -0.9602 C   0  0  0  0  0  0  0  0  0  0  0  0
    6.6820   -1.9752    0.1270 C   0  0  0  0  0  0  0  0  0  0  0  0
    6.2014   -2.1594    1.5781 C   0  0  1  0  0  0  0  0  0  0  0  0
    6.5454   -1.0387    2.3318 O   0  0  0  0  0  0  0  0  0  0  0  0
    5.0289   -3.0846    2.0068 C   0  0  2  0  0  0  0  0  0  0  0  0
    5.7807   -4.4942    1.9560 C   0  0  2  0  0  0  0  0  0  0  0  0
    5.3872   -5.4117    0.9631 O   0  0  0  0  0  0  0  0  0  0  0  0
    4.0520   -5.6706    0.9038 C   0  0  1  0  0  0  0  0  0  0  0  0
    3.8430   -6.7963    0.1261 O   0  0  0  0  0  0  0  0  0  0  0  0
    4.6241   -7.9681    0.3776 C   0  0  0  0  0  0  0  0  0  0  0  0
    3.6091   -6.1294    2.4238 C   0  0  2  0  0  0  0  0  0  0  0  0
    2.3356   -5.5190    2.9824 C   0  0  1  0  0  0  0  0  0  0  0  0
    1.7536   -6.3597    3.9862 O   0  0  0  0  0  0  0  0  0  0  0  0
    0.9616   -7.4333    3.4704 C   0  0  0  0  0  0  0  0  0  0  0  0
    2.9300   -4.2195    3.6172 C   0  0  1  0  0  0  0  0  0  0  0  0
    4.0194   -4.7937    4.5252 C   0  0  1  0  0  0  0  0  0  0  0  0
    3.5079   -5.2792    5.7554 O   0  0  0  0  0  0  0  0  0  0  0  0
    4.6208   -5.8986    3.6207 C   0  0  1  0  0  0  0  0  0  0  0  0
    4.8610   -7.1160    4.3183 O   0  0  0  0  0  0  0  0  0  0  0  0
    5.9200   -5.3163    3.1810 C   0  0  0  0  0  0  0  0  0  0  0  0
    6.9773   -5.5017    3.7706 O   0  0  0  0  0  0  0  0  0  0  0  0
    3.4550   -3.2202    2.5115 C   0  0  2  0  0  0  0  0  0  0  0  0
    2.2029   -3.1197    1.6230 C   0  0  0  0  0  0  0  0  0  0  0  0
    2.2195   -3.9996    0.3553 C   0  0  0  0  0  0  0  0  0  0  0  0
    3.5432   -4.4974    0.1309 N   0  0  0  0  0  0  0  0  0  0  0  0
    4.0202   -4.2097   -1.2362 C   0  0  0  0  0  0  0  0  0  0  0  0
    4.1844   -2.0474    2.8886 C   0  0  2  0  0  0  0  0  0  0  0  0
    3.7247    1.3760    5.1982 H   0  0  0  0  0  0  0  0  0  0  0  0
    3.7217   -0.3749    5.1931 H   0  0  0  0  0  0  0  0  0  0  0  0
    2.3340    0.5087    4.5541 H   0  0  0  0  0  0  0  0  0  0  0  0
    3.7081    1.4471    2.7381 H   0  0  0  0  0  0  0  0  0  0  0  0
    5.1312    0.6608    3.3550 H   0  0  0  0  0  0  0  0  0  0  0  0
    2.5954   -0.5877    2.3652 H   0  0  0  0  0  0  0  0  0  0  0  0
    5.0028    0.1140    0.6866 H   0  0  0  0  0  0  0  0  0  0  0  0
    2.6313   -1.5592   -0.1588 H   0  0  0  0  0  0  0  0  0  0  0  0
    2.2460   -2.0765   -2.5312 H   0  0  0  0  0  0  0  0  0  0  0  0
    3.3632   -1.3197   -3.6657 H   0  0  0  0  0  0  0  0  0  0  0  0
    2.5029   -0.3406   -2.5217 H   0  0  0  0  0  0  0  0  0  0  0  0
    4.7848    0.3400   -1.6662 H   0  0  0  0  0  0  0  0  0  0  0  0
    5.7743   -4.0996   -3.2392 H   0  0  0  0  0  0  0  0  0  0  0  0
    5.7040   -2.3820   -3.5436 H   0  0  0  0  0  0  0  0  0  0  0  0
    4.2603   -3.3726   -3.7243 H   0  0  0  0  0  0  0  0  0  0  0  0
    6.4848   -3.9869   -0.6386 H   0  0  0  0  0  0  0  0  0  0  0  0
    7.0121   -2.8098   -1.7362 H   0  0  0  0  0  0  0  0  0  0  0  0
    7.7675   -2.0495    0.1784 H   0  0  0  0  0  0  0  0  0  0  0  0
    6.5690   -0.9489   -0.2005 H   0  0  0  0  0  0  0  0  0  0  0  0
    7.0180   -2.6357    2.0611 H   0  0  0  0  0  0  0  0  0  0  0  0
    5.9830   -0.3155    2.0813 H   0  0  0  0  0  0  0  0  0  0  0  0
    6.8035   -4.4100    1.6070 H   0  0  0  0  0  0  0  0  0  0  0  0
    4.5535   -8.6064   -0.4967 H   0  0  0  0  0  0  0  0  0  0  0  0
    4.2898   -8.5902    1.2061 H   0  0  0  0  0  0  0  0  0  0  0  0
    5.6744   -7.7404    0.5416 H   0  0  0  0  0  0  0  0  0  0  0  0
    3.3979   -7.1827    2.3959 H   0  0  0  0  0  0  0  0  0  0  0  0
    1.5271   -5.3995    2.2711 H   0  0  0  0  0  0  0  0  0  0  0  0
    0.6138   -8.0624    4.2884 H   0  0  0  0  0  0  0  0  0  0  0  0
    1.4999   -8.0848    2.7777 H   0  0  0  0  0  0  0  0  0  0  0  0
    0.0837   -7.0483    2.9474 H   0  0  0  0  0  0  0  0  0  0  0  0
    2.1845   -3.6966    4.2252 H   0  0  0  0  0  0  0  0  0  0  0  0
    4.7306   -4.0190    4.8174 H   0  0  0  0  0  0  0  0  0  0  0  0
    2.8711   -5.9567    5.5548 H   0  0  0  0  0  0  0  0  0  0  0  0
    4.0389   -7.4839    4.6140 H   0  0  0  0  0  0  0  0  0  0  0  0
    1.3302   -3.3461    2.2256 H   0  0  0  0  0  0  0  0  0  0  0  0
    1.8273   -2.1310    1.4360 H   0  0  0  0  0  0  0  0  0  0  0  0
    1.5326   -4.8464    0.3692 H   0  0  0  0  0  0  0  0  0  0  0  0
    1.8584   -3.4134   -0.4912 H   0  0  0  0  0  0  0  0  0  0  0  0
    3.1524   -4.2442   -1.8931 H   0  0  0  0  0  0  0  0  0  0  0  0
    4.6295   -5.0668   -1.5227 H   0  0  0  0  0  0  0  0  0  0  0  0
    4.4937   -2.0011    3.9233 H   0  0  0  0  0  0  0  0  0  0  0  0
  1  2  1  0
  1 38  1  0
  1 39  1  0
  1 40  1  0
  2  3  1  0
  2 41  1  0
  2 42  1  0
  3 37  1  0
  3  4  1  0
  3 43  1  6
  4  5  2  3
  4 44  1  0
  5  6  1  0
  5 45  1  0
  6  7  1  0
  6  8  1  6
  6  9  1  0
  7 46  1  0
  7 47  1  0
  7 48  1  0
  8 49  1  0
  9 36  1  0
  9 10  1  6
  9 11  1  0
 10 50  1  0
 10 51  1  0
 10 52  1  0
 11 12  1  0
 11 53  1  0
 11 54  1  0
 12 13  1  0
 12 55  1  0
 12 56  1  0
 13 14  1  0
 13 15  1  0
 13 57  1  1
 14 58  1  0
 15 32  1  6
 15 37  1  0
 15 16  1  0
 16 30  1  0
 16 17  1  0
 16 59  1  6
 17 18  1  0
 18 35  1  0
 18 19  1  6
 18 21  1  0
 19 20  1  0
 20 60  1  0
 20 61  1  0
 20 62  1  0
 21 28  1  0
 21 22  1  0
 21 63  1  6
 22 23  1  0
 22 25  1  0
 22 64  1  6
 23 24  1  0
 24 65  1  0
 24 66  1  0
 24 67  1  0
 25 26  1  0
 25 32  1  0
 25 68  1  1
 26 27  1  0
 26 28  1  0
 26 69  1  1
 27 70  1  0
 28 29  1  1
 28 30  1  0
 29 71  1  0
 30 31  2  0
 32 33  1  6
 32 37  1  0
 33 34  1  0
 33 72  1  0
 33 73  1  0
 34 35  1  0
 34 74  1  0
 34 75  1  0
 35 36  1  0
 36 76  1  0
 36 77  1  0
 37 78  1  1
M  END
>  <i_m_ct_stereo_status>  (172) 
1

>  <s_m_source_file>  (172) 
/var/tmp/pbs.5076255.sched01/tmp7c02qu8j/38qwqhi24o.sdf

>  <i_m_source_file_index>  (172) 
37

>  <i_lp_mmshare_version>  (172) 
48012

>  <i_f3d_flags>  (172) 
0

>  <s_epik_input>  (172) 
W0NIM11bQ0gyXVtDSF0oW0NASF0xMikvW0NIXT1bQ0hdXFtDQEBdKFtDSDNdKShbT0hdKVtDQEBdKFtDSDNdKShbQ0gyXVtDSDJdW0NASF0zW09IXSlbQ0gyXU4oW0NIMl1bQ0gyXTQpW0NAXShPW0NIM10pKFtDQEBIXTVbQ0BASF0oT1tDSDNdKVtDQEBIXTZbQ0BdMjRbQ0BdMTM3KU9bQ0BASF03Qyg9TylbQ0BAXTUoW09IXSlbQ0BASF02W09IXQ==

>  <s_epik_cmdline>  (172) 
J2VwaWtfcHl0aG9uJywgJy1waHQnLCAnMi4wJywgJy1waCcsICc3LjAnLCAnLXRuJywgJzgnLCAnLW1hJywgJzIwMCcsICctaW1hZScsICc8aW5maWxlLm1hZT4nLCAnLW9tYWUnLCAnPG91dGZpbGUubWFlPic=

>  <r_lp_tautomer_probability>  (172) 
0.99995

>  <r_epik_Ionization_Penalty>  (172) 
0.00145693

>  <r_epik_Ionization_Penalty_Charging>  (172) 
0

>  <r_epik_Ionization_Penalty_Neutral>  (172) 
0.00145693

>  <r_epik_State_Penalty>  (172) 
0.000973563

>  <r_epik_Charging_Adjusted_Penalty>  (172) 
0.000973563

>  <i_epik_Tot_Q>  (172) 
0

>  <i_epik_Tot_abs_Q>  (172) 
0

>  <s_lp_Force_Field>  (172) 
OPLS3e

>  <r_lp_Energy>  (172) 
237.936

>  <b_lp_Chiralities_Consistent>  (172) 
1

>  <s_lp_Variant>  (172) 
54:0-2

>  <s_i_glide_gridfile>  (172) 
pfpi4k_grid

>  <i_i_glide_lignum>  (172) 
37

>  <i_i_glide_rotatable_bonds>  (172) 
7

>  <r_i_docking_score>  (172) 
-2.60743

>  <r_i_glide_ligand_efficiency>  (172) 
-0.0704712

>  <r_i_glide_ligand_efficiency_sa>  (172) 
-0.234826

>  <r_i_glide_ligand_efficiency_ln>  (172) 
-0.565491

>  <r_i_glide_gscore>  (172) 
-2.60743

>  <r_i_glide_lipo>  (172) 
-0.584504

>  <r_i_glide_hbond>  (172) 
-0.254346

>  <r_i_glide_metal>  (172) 
-0

>  <r_i_glide_rewards>  (172) 
-0.584437

>  <r_i_glide_evdw>  (172) 
-12.4026

>  <r_i_glide_ecoul>  (172) 
-3.76011

>  <r_i_glide_erotb>  (172) 
0

>  <r_i_glide_esite>  (172) 
0

>  <r_i_glide_emodel>  (172) 
-18.2092

>  <r_i_glide_energy>  (172) 
-16.1627

>  <r_i_glide_einternal>  (172) 
4.36513

>  <r_i_glide_intrahb_reward>  (172) 
-0.5

>  <i_i_glide_confnum>  (172) 
1

>  <i_i_glide_posenum>  (172) 
19

>  <r_i_glide_eff_state_penalty>  (172) 
0

>  <ligand_id>  (172) 
54

>  <original_smiles>  (172) 
CCC1C=CC(C)(O)C2(C)CCC(O)C34C5OC6(OC)C7C(OC)C(C(O)C7(O)C5=O)C3(CCN6C2)C14

>  <smiles>  (172) 
[H]OC1([H])C2(O[H])C(=O)C3([H])OC4(OC([H])([H])[H])N5C([H])([H])C([H])([H])C6(C1([H])C([H])(OC([H])([H])[H])C42[H])C1([H])C([H])(C([H])([H])C([H])([H])[H])C([H])=C([H])C(O[H])(C([H])([H])[H])C(C([H])([H])[H])(C5([H])[H])C([H])([H])C([H])([H])C([H])(O[H])C316

$$$$
55:0:0
     RDKit          3D

 18 18  0  0  1  0  0  0  0  0999 V2000
   -1.4788   -7.6059    3.5403 C   0  0  0  0  0  0  0  0  0  0  0  0
    0.0451   -7.7712    3.6414 C   0  0  2  0  0  0  0  0  0  0  0  0
    0.6713   -8.1858    2.2979 C   0  0  0  0  0  0  0  0  0  0  0  0
    0.6376   -7.1141    1.2903 C   0  0  0  0  0  0  0  0  0  0  0  0
    0.6096   -6.2671    0.5029 N   0  0  0  0  0  0  0  0  0  0  0  0
    0.3573   -8.7991    4.5808 O   0  0  0  0  0  0  0  0  0  0  0  0
    0.3647   -8.5211    5.9169 C   0  0  0  0  0  0  0  0  0  0  0  0
    0.2045   -9.4686    6.9716 C   0  0  0  0  0  0  0  0  0  0  0  0
    0.2860   -8.9894    8.1918 N   0  0  0  0  0  0  0  0  0  0  0  0
    0.6136   -7.3601    7.9998 S   0  0  0  0  0  0  0  0  0  0  0  0
    0.5858   -7.2871    6.3245 N   0  0  0  0  0  0  0  0  0  0  0  0
   -1.7500   -6.8153    2.8461 H   0  0  0  0  0  0  0  0  0  0  0  0
   -1.9157   -7.3617    4.5078 H   0  0  0  0  0  0  0  0  0  0  0  0
   -1.9525   -8.5244    3.1932 H   0  0  0  0  0  0  0  0  0  0  0  0
    0.5037   -6.8196    3.9038 H   0  0  0  0  0  0  0  0  0  0  0  0
    1.7174   -8.4532    2.4382 H   0  0  0  0  0  0  0  0  0  0  0  0
    0.1682   -9.0584    1.8857 H   0  0  0  0  0  0  0  0  0  0  0  0
    0.0307  -10.5287    6.8457 H   0  0  0  0  0  0  0  0  0  0  0  0
  1  2  1  0
  1 12  1  0
  1 13  1  0
  1 14  1  0
  2  3  1  0
  2  6  1  0
  2 15  1  1
  3  4  1  0
  3 16  1  0
  3 17  1  0
  4  5  3  0
  6  7  1  0
  7 11  2  0
  7  8  1  0
  8  9  2  0
  8 18  1  0
  9 10  1  0
 10 11  1  0
M  END
>  <i_m_ct_stereo_status>  (173) 
1

>  <s_m_source_file>  (173) 
/var/tmp/pbs.5076255.sched01/tmp7c02qu8j/38qwqhi24o.sdf

>  <i_m_source_file_index>  (173) 
38

>  <i_lp_mmshare_version>  (173) 
48012

>  <i_f3d_flags>  (173) 
0

>  <s_epik_input>  (173) 
TiNDW0NIMl1bQ0BASF0oW0NIM10pT2MxW2NIXW5zbjE=

>  <s_epik_cmdline>  (173) 
J2VwaWtfcHl0aG9uJywgJy1waHQnLCAnMi4wJywgJy1waCcsICc3LjAnLCAnLXRuJywgJzgnLCAnLW1hJywgJzIwMCcsICctaW1hZScsICc8aW5maWxlLm1hZT4nLCAnLW9tYWUnLCAnPG91dGZpbGUubWFlPic=

>  <r_lp_tautomer_probability>  (173) 
1

>  <r_epik_Ionization_Penalty>  (173) 
6.80462e-10

>  <r_epik_Ionization_Penalty_Charging>  (173) 
0

>  <r_epik_Ionization_Penalty_Neutral>  (173) 
6.80462e-10

>  <r_epik_State_Penalty>  (173) 
-0

>  <r_epik_Charging_Adjusted_Penalty>  (173) 
0

>  <i_epik_Tot_Q>  (173) 
0

>  <i_epik_Tot_abs_Q>  (173) 
0

>  <s_lp_Force_Field>  (173) 
OPLS3e

>  <r_lp_Energy>  (173) 
-2.24303

>  <b_lp_Chiralities_Consistent>  (173) 
1

>  <s_lp_Variant>  (173) 
55:0-1

>  <s_i_glide_gridfile>  (173) 
pfpi4k_grid

>  <i_i_glide_lignum>  (173) 
38

>  <i_i_glide_rotatable_bonds>  (173) 
4

>  <r_i_docking_score>  (173) 
-2.99887

>  <r_i_glide_ligand_efficiency>  (173) 
-0.272625

>  <r_i_glide_ligand_efficiency_sa>  (173) 
-0.606312

>  <r_i_glide_ligand_efficiency_ln>  (173) 
-0.882567

>  <r_i_glide_gscore>  (173) 
-2.99887

>  <r_i_glide_lipo>  (173) 
0

>  <r_i_glide_hbond>  (173) 
-0.225781

>  <r_i_glide_metal>  (173) 
-0

>  <r_i_glide_rewards>  (173) 
-2.25

>  <r_i_glide_evdw>  (173) 
-13.7246

>  <r_i_glide_ecoul>  (173) 
-5.52717

>  <r_i_glide_erotb>  (173) 
1.07572

>  <r_i_glide_esite>  (173) 
-0.083505

>  <r_i_glide_emodel>  (173) 
-22.9739

>  <r_i_glide_energy>  (173) 
-19.2517

>  <r_i_glide_einternal>  (173) 
1.32372

>  <r_i_glide_intrahb_reward>  (173) 
-0

>  <i_i_glide_confnum>  (173) 
2

>  <i_i_glide_posenum>  (173) 
20

>  <r_i_glide_eff_state_penalty>  (173) 
0

>  <ligand_id>  (173) 
55

>  <original_smiles>  (173) 
CC(CC#N)Oc1cnsn1

>  <smiles>  (173) 
[H]c1nsnc1OC([H])(C([H])([H])[H])C([H])([H])C#N

$$$$
55:0:1
     RDKit          3D

 18 18  0  0  1  0  0  0  0  0999 V2000
   -1.7786   -8.9060    2.6721 C   0  0  0  0  0  0  0  0  0  0  0  0
   -0.2785   -8.6178    2.6587 C   0  0  2  0  0  0  0  0  0  0  0  0
    0.2869   -8.4294    4.0833 C   0  0  0  0  0  0  0  0  0  0  0  0
   -0.2223   -7.2203    4.7613 C   0  0  0  0  0  0  0  0  0  0  0  0
   -0.6118   -6.2605    5.2852 N   0  0  0  0  0  0  0  0  0  0  0  0
   -0.0732   -7.4494    1.8635 O   0  0  0  0  0  0  0  0  0  0  0  0
    1.2048   -7.1245    1.5478 C   0  0  0  0  0  0  0  0  0  0  0  0
    2.4280   -7.8264    1.8418 C   0  0  0  0  0  0  0  0  0  0  0  0
    3.5083   -7.1850    1.4834 N   0  0  0  0  0  0  0  0  0  0  0  0
    3.0190   -5.7743    0.7538 S   0  0  0  0  0  0  0  0  0  0  0  0
    1.3672   -5.9850    0.9018 N   0  0  0  0  0  0  0  0  0  0  0  0
   -1.9613   -9.8271    3.2252 H   0  0  0  0  0  0  0  0  0  0  0  0
   -2.1887   -9.0487    1.6657 H   0  0  0  0  0  0  0  0  0  0  0  0
   -2.3542   -8.1116    3.1604 H   0  0  0  0  0  0  0  0  0  0  0  0
    0.2077   -9.4358    2.1470 H   0  0  0  0  0  0  0  0  0  0  0  0
    0.0373   -9.3103    4.6789 H   0  0  0  0  0  0  0  0  0  0  0  0
    1.3710   -8.3320    4.0862 H   0  0  0  0  0  0  0  0  0  0  0  0
    2.5249   -8.7837    2.3543 H   0  0  0  0  0  0  0  0  0  0  0  0
  1  2  1  0
  1 12  1  0
  1 13  1  0
  1 14  1  0
  2  3  1  0
  2  6  1  0
  2 15  1  6
  3  4  1  0
  3 16  1  0
  3 17  1  0
  4  5  3  0
  6  7  1  0
  7 11  2  0
  7  8  1  0
  8  9  2  0
  8 18  1  0
  9 10  1  0
 10 11  1  0
M  END
>  <i_m_ct_stereo_status>  (174) 
1

>  <s_m_source_file>  (174) 
/var/tmp/pbs.5076255.sched01/tmp7c02qu8j/38qwqhi24o.sdf

>  <i_m_source_file_index>  (174) 
38

>  <i_lp_mmshare_version>  (174) 
48012

>  <i_f3d_flags>  (174) 
0

>  <s_epik_input>  (174) 
TiNDW0NIMl1bQ0BASF0oW0NIM10pT2MxW2NIXW5zbjE=

>  <s_epik_cmdline>  (174) 
J2VwaWtfcHl0aG9uJywgJy1waHQnLCAnMi4wJywgJy1waCcsICc3LjAnLCAnLXRuJywgJzgnLCAnLW1hJywgJzIwMCcsICctaW1hZScsICc8aW5maWxlLm1hZT4nLCAnLW9tYWUnLCAnPG91dGZpbGUubWFlPic=

>  <r_lp_tautomer_probability>  (174) 
1

>  <r_epik_Ionization_Penalty>  (174) 
6.80462e-10

>  <r_epik_Ionization_Penalty_Charging>  (174) 
0

>  <r_epik_Ionization_Penalty_Neutral>  (174) 
6.80462e-10

>  <r_epik_State_Penalty>  (174) 
-0

>  <r_epik_Charging_Adjusted_Penalty>  (174) 
0

>  <i_epik_Tot_Q>  (174) 
0

>  <i_epik_Tot_abs_Q>  (174) 
0

>  <s_lp_Force_Field>  (174) 
OPLS3e

>  <r_lp_Energy>  (174) 
-2.24303

>  <b_lp_Chiralities_Consistent>  (174) 
1

>  <s_lp_Variant>  (174) 
55:0-1

>  <s_i_glide_gridfile>  (174) 
pfpi4k_grid

>  <i_i_glide_lignum>  (174) 
38

>  <i_i_glide_rotatable_bonds>  (174) 
4

>  <r_i_docking_score>  (174) 
-2.87931

>  <r_i_glide_ligand_efficiency>  (174) 
-0.261756

>  <r_i_glide_ligand_efficiency_sa>  (174) 
-0.582139

>  <r_i_glide_ligand_efficiency_ln>  (174) 
-0.847381

>  <r_i_glide_gscore>  (174) 
-2.87931

>  <r_i_glide_lipo>  (174) 
-0.0914245

>  <r_i_glide_hbond>  (174) 
-0.16

>  <r_i_glide_metal>  (174) 
-0

>  <r_i_glide_rewards>  (174) 
-2.25

>  <r_i_glide_evdw>  (174) 
-15.6005

>  <r_i_glide_ecoul>  (174) 
-4.30021

>  <r_i_glide_erotb>  (174) 
1.07572

>  <r_i_glide_esite>  (174) 
-0.0285493

>  <r_i_glide_emodel>  (174) 
-22.9057

>  <r_i_glide_energy>  (174) 
-19.9007

>  <r_i_glide_einternal>  (174) 
2.24516

>  <r_i_glide_intrahb_reward>  (174) 
-0

>  <i_i_glide_confnum>  (174) 
4

>  <i_i_glide_posenum>  (174) 
6

>  <r_i_glide_eff_state_penalty>  (174) 
0

>  <ligand_id>  (174) 
55

>  <original_smiles>  (174) 
CC(CC#N)Oc1cnsn1

>  <smiles>  (174) 
[H]c1nsnc1OC([H])(C([H])([H])[H])C([H])([H])C#N

$$$$
55:0:2
     RDKit          3D

 18 18  0  0  1  0  0  0  0  0999 V2000
    0.6099   -5.0838    4.9399 C   0  0  0  0  0  0  0  0  0  0  0  0
   -0.1036   -6.0890    5.8618 C   0  0  2  0  0  0  0  0  0  0  0  0
    0.2054   -5.8285    7.3436 C   0  0  0  0  0  0  0  0  0  0  0  0
   -0.2370   -4.5051    7.8119 C   0  0  0  0  0  0  0  0  0  0  0  0
   -0.5856   -3.4625    8.1780 N   0  0  0  0  0  0  0  0  0  0  0  0
    0.3281   -7.4215    5.5716 O   0  0  0  0  0  0  0  0  0  0  0  0
   -0.1295   -8.0591    4.4568 C   0  0  0  0  0  0  0  0  0  0  0  0
    0.3801   -9.3043    3.9579 C   0  0  0  0  0  0  0  0  0  0  0  0
   -0.2077   -9.7614    2.8793 N   0  0  0  0  0  0  0  0  0  0  0  0
   -1.3947   -8.6512    2.5081 S   0  0  0  0  0  0  0  0  0  0  0  0
   -1.1157   -7.5539    3.7397 N   0  0  0  0  0  0  0  0  0  0  0  0
    0.2691   -4.0667    5.1245 H   0  0  0  0  0  0  0  0  0  0  0  0
    0.4295   -5.2942    3.8883 H   0  0  0  0  0  0  0  0  0  0  0  0
    1.6873   -5.1072    5.0939 H   0  0  0  0  0  0  0  0  0  0  0  0
   -1.1855   -6.0043    5.7467 H   0  0  0  0  0  0  0  0  0  0  0  0
   -0.2838   -6.5780    7.9663 H   0  0  0  0  0  0  0  0  0  0  0  0
    1.2783   -5.9065    7.5359 H   0  0  0  0  0  0  0  0  0  0  0  0
    1.1840   -9.8843    4.3854 H   0  0  0  0  0  0  0  0  0  0  0  0
  1  2  1  0
  1 12  1  0
  1 13  1  0
  1 14  1  0
  2  3  1  0
  2  6  1  0
  2 15  1  1
  3  4  1  0
  3 16  1  0
  3 17  1  0
  4  5  3  0
  6  7  1  0
  7 11  2  0
  7  8  1  0
  8  9  2  0
  8 18  1  0
  9 10  1  0
 10 11  1  0
M  END
>  <i_m_ct_stereo_status>  (175) 
1

>  <s_m_source_file>  (175) 
/var/tmp/pbs.5076255.sched01/tmp7c02qu8j/38qwqhi24o.sdf

>  <i_m_source_file_index>  (175) 
38

>  <i_lp_mmshare_version>  (175) 
48012

>  <i_f3d_flags>  (175) 
0

>  <s_epik_input>  (175) 
TiNDW0NIMl1bQ0BASF0oW0NIM10pT2MxW2NIXW5zbjE=

>  <s_epik_cmdline>  (175) 
J2VwaWtfcHl0aG9uJywgJy1waHQnLCAnMi4wJywgJy1waCcsICc3LjAnLCAnLXRuJywgJzgnLCAnLW1hJywgJzIwMCcsICctaW1hZScsICc8aW5maWxlLm1hZT4nLCAnLW9tYWUnLCAnPG91dGZpbGUubWFlPic=

>  <r_lp_tautomer_probability>  (175) 
1

>  <r_epik_Ionization_Penalty>  (175) 
6.80462e-10

>  <r_epik_Ionization_Penalty_Charging>  (175) 
0

>  <r_epik_Ionization_Penalty_Neutral>  (175) 
6.80462e-10

>  <r_epik_State_Penalty>  (175) 
-0

>  <r_epik_Charging_Adjusted_Penalty>  (175) 
0

>  <i_epik_Tot_Q>  (175) 
0

>  <i_epik_Tot_abs_Q>  (175) 
0

>  <s_lp_Force_Field>  (175) 
OPLS3e

>  <r_lp_Energy>  (175) 
-2.24303

>  <b_lp_Chiralities_Consistent>  (175) 
1

>  <s_lp_Variant>  (175) 
55:0-1

>  <s_i_glide_gridfile>  (175) 
pfpi4k_grid

>  <i_i_glide_lignum>  (175) 
38

>  <i_i_glide_rotatable_bonds>  (175) 
4

>  <r_i_docking_score>  (175) 
-2.45925

>  <r_i_glide_ligand_efficiency>  (175) 
-0.223568

>  <r_i_glide_ligand_efficiency_sa>  (175) 
-0.497211

>  <r_i_glide_ligand_efficiency_ln>  (175) 
-0.723756

>  <r_i_glide_gscore>  (175) 
-2.45925

>  <r_i_glide_lipo>  (175) 
-0.0682667

>  <r_i_glide_hbond>  (175) 
-0.0714695

>  <r_i_glide_metal>  (175) 
-0

>  <r_i_glide_rewards>  (175) 
-2.25

>  <r_i_glide_evdw>  (175) 
-16.2318

>  <r_i_glide_ecoul>  (175) 
-2.16521

>  <r_i_glide_erotb>  (175) 
1.07572

>  <r_i_glide_esite>  (175) 
-0.00885684

>  <r_i_glide_emodel>  (175) 
-21.8132

>  <r_i_glide_energy>  (175) 
-18.397

>  <r_i_glide_einternal>  (175) 
0.555986

>  <r_i_glide_intrahb_reward>  (175) 
-0

>  <i_i_glide_confnum>  (175) 
2

>  <i_i_glide_posenum>  (175) 
3

>  <r_i_glide_eff_state_penalty>  (175) 
0

>  <ligand_id>  (175) 
55

>  <original_smiles>  (175) 
CC(CC#N)Oc1cnsn1

>  <smiles>  (175) 
[H]c1nsnc1OC([H])(C([H])([H])[H])C([H])([H])C#N

$$$$
56:0:0
     RDKit          3D

 44 47  0  0  1  0  0  0  0  0999 V2000
    5.6465   -0.6556    2.1802 C   0  0  0  0  0  0  0  0  0  0  0  0
    4.6916   -1.5325    1.3528 C   0  0  2  0  0  0  0  0  0  0  0  0
    3.6032   -0.6652    0.6704 C   0  0  0  0  0  0  0  0  0  0  0  0
    2.5731   -0.0821    1.6588 C   0  0  0  0  0  0  0  0  0  0  0  0
    1.8643   -1.1920    2.4611 C   0  0  2  0  0  0  0  0  0  0  0  0
    0.8516   -0.6941    3.4991 C   0  0  0  0  0  0  0  0  0  0  0  0
    0.4389    0.6553    3.5953 C   0  0  0  0  0  0  0  0  0  0  0  0
   -0.4733    1.0473    4.5957 C   0  0  0  0  0  0  0  0  0  0  0  0
   -0.9906    0.0981    5.5021 C   0  0  0  0  0  0  0  0  0  0  0  0
   -1.8664    0.4839    6.4786 O   0  0  0  0  0  0  0  0  0  0  0  0
   -0.5881   -1.2449    5.4038 C   0  0  0  0  0  0  0  0  0  0  0  0
    0.3302   -1.6372    4.4080 C   0  0  0  0  0  0  0  0  0  0  0  0
    0.7545   -3.0853    4.2715 C   0  0  0  0  0  0  0  0  0  0  0  0
    2.2555   -3.2597    3.9883 C   0  0  0  0  0  0  0  0  0  0  0  0
    2.8972   -2.1206    3.1513 C   0  0  1  0  0  0  0  0  0  0  0  0
    4.0272   -2.6297    2.2099 C   0  0  1  0  0  0  0  0  0  0  0  0
    3.6437   -3.7372    1.2066 C   0  0  0  0  0  0  0  0  0  0  0  0
    4.6014   -3.5890    0.0103 C   0  0  0  0  0  0  0  0  0  0  0  0
    5.4902   -2.3803    0.3347 C   0  0  1  0  0  0  0  0  0  0  0  0
    5.9086   -1.6723   -0.8178 O   0  0  0  0  0  0  0  0  0  0  0  0
    6.1343    0.0705    1.5318 H   0  0  0  0  0  0  0  0  0  0  0  0
    6.4269   -1.2552    2.6471 H   0  0  0  0  0  0  0  0  0  0  0  0
    5.1333   -0.1160    2.9758 H   0  0  0  0  0  0  0  0  0  0  0  0
    4.0774    0.1442    0.1161 H   0  0  0  0  0  0  0  0  0  0  0  0
    3.0621   -1.2552   -0.0714 H   0  0  0  0  0  0  0  0  0  0  0  0
    3.0561    0.6334    2.3249 H   0  0  0  0  0  0  0  0  0  0  0  0
    1.8326    0.4785    1.0859 H   0  0  0  0  0  0  0  0  0  0  0  0
    1.3029   -1.7922    1.7477 H   0  0  0  0  0  0  0  0  0  0  0  0
    0.8162    1.4078    2.9189 H   0  0  0  0  0  0  0  0  0  0  0  0
   -0.7689    2.0840    4.6653 H   0  0  0  0  0  0  0  0  0  0  0  0
   -2.0305    1.4171    6.4481 H   0  0  0  0  0  0  0  0  0  0  0  0
   -0.9799   -1.9789    6.0919 H   0  0  0  0  0  0  0  0  0  0  0  0
    0.4425   -3.6718    5.1354 H   0  0  0  0  0  0  0  0  0  0  0  0
    0.2168   -3.4779    3.4141 H   0  0  0  0  0  0  0  0  0  0  0  0
    2.7746   -3.2922    4.9435 H   0  0  0  0  0  0  0  0  0  0  0  0
    2.4227   -4.2402    3.5430 H   0  0  0  0  0  0  0  0  0  0  0  0
    3.3911   -1.4753    3.8805 H   0  0  0  0  0  0  0  0  0  0  0  0
    4.8044   -3.0552    2.8476 H   0  0  0  0  0  0  0  0  0  0  0  0
    3.7340   -4.7252    1.6621 H   0  0  0  0  0  0  0  0  0  0  0  0
    2.6094   -3.6247    0.8719 H   0  0  0  0  0  0  0  0  0  0  0  0
    5.2008   -4.4884   -0.1415 H   0  0  0  0  0  0  0  0  0  0  0  0
    4.0209   -3.4331   -0.9002 H   0  0  0  0  0  0  0  0  0  0  0  0
    6.3886   -2.7610    0.8235 H   0  0  0  0  0  0  0  0  0  0  0  0
    5.1293   -1.3889   -1.2781 H   0  0  0  0  0  0  0  0  0  0  0  0
  2  1  1  1
  1 21  1  0
  1 22  1  0
  1 23  1  0
  2 16  1  0
  2 19  1  0
  2  3  1  0
  3  4  1  0
  3 24  1  0
  3 25  1  0
  4  5  1  0
  4 26  1  0
  4 27  1  0
  5 15  1  0
  5  6  1  0
  5 28  1  6
  6 12  2  0
  6  7  1  0
  7  8  2  0
  7 29  1  0
  8  9  1  0
  8 30  1  0
  9 10  1  0
  9 11  2  0
 10 31  1  0
 11 12  1  0
 11 32  1  0
 12 13  1  0
 13 14  1  0
 13 33  1  0
 13 34  1  0
 14 15  1  0
 14 35  1  0
 14 36  1  0
 15 16  1  0
 15 37  1  1
 16 17  1  0
 16 38  1  1
 17 18  1  0
 17 39  1  0
 17 40  1  0
 18 19  1  0
 18 41  1  0
 18 42  1  0
 19 20  1  0
 19 43  1  1
 20 44  1  0
M  END
>  <i_m_ct_stereo_status>  (176) 
1

>  <s_m_source_file>  (176) 
/var/tmp/pbs.5076255.sched01/tmpbaygurib/766rrai79r.sdf

>  <i_m_source_file_index>  (176) 
1

>  <i_lp_mmshare_version>  (176) 
48012

>  <i_f3d_flags>  (176) 
0

>  <s_epik_input>  (176) 
W09IXVtDQEBIXTFbQ0gyXVtDSDJdW0NAQEhdKFtDQEBdMTJbQ0gzXSlbQ0BIXTNbQ0BIXShbQ0gyXVtDSDJdMiljNGMoW0NIMl1bQ0gyXTMpW2NIXWMoW09IXSlbY0hdW2NIXTQ=

>  <s_epik_cmdline>  (176) 
J2VwaWtfcHl0aG9uJywgJy1waHQnLCAnMi4wJywgJy1waCcsICc3LjAnLCAnLXRuJywgJzgnLCAnLW1hJywgJzIwMCcsICctaW1hZScsICc8aW5maWxlLm1hZT4nLCAnLW9tYWUnLCAnPG91dGZpbGUubWFlPic=

>  <r_lp_tautomer_probability>  (176) 
1

>  <r_epik_Ionization_Penalty>  (176) 
0.000144805

>  <r_epik_Ionization_Penalty_Charging>  (176) 
0

>  <r_epik_Ionization_Penalty_Neutral>  (176) 
0.000144805

>  <r_epik_State_Penalty>  (176) 
-0

>  <r_epik_Charging_Adjusted_Penalty>  (176) 
0

>  <i_epik_Tot_Q>  (176) 
0

>  <i_epik_Tot_abs_Q>  (176) 
0

>  <s_lp_Force_Field>  (176) 
OPLS3e

>  <r_lp_Energy>  (176) 
35.5411

>  <b_lp_Chiralities_Consistent>  (176) 
1

>  <s_lp_Variant>  (176) 
56:0-1

>  <s_i_glide_gridfile>  (176) 
pfpi4k_grid

>  <i_i_glide_lignum>  (176) 
1

>  <i_i_glide_rotatable_bonds>  (176) 
2

>  <r_i_docking_score>  (176) 
-3.67883

>  <r_i_glide_ligand_efficiency>  (176) 
-0.183941

>  <r_i_glide_ligand_efficiency_sa>  (176) 
-0.499294

>  <r_i_glide_ligand_efficiency_ln>  (176) 
-0.920689

>  <r_i_glide_gscore>  (176) 
-3.67883

>  <r_i_glide_lipo>  (176) 
-0.211598

>  <r_i_glide_hbond>  (176) 
-0.200182

>  <r_i_glide_metal>  (176) 
-0

>  <r_i_glide_rewards>  (176) 
-1.55194

>  <r_i_glide_evdw>  (176) 
-20.1101

>  <r_i_glide_ecoul>  (176) 
-4.73066

>  <r_i_glide_erotb>  (176) 
0

>  <r_i_glide_esite>  (176) 
0

>  <r_i_glide_emodel>  (176) 
-31.1471

>  <r_i_glide_energy>  (176) 
-24.8408

>  <r_i_glide_einternal>  (176) 
0.00188345

>  <r_i_glide_intrahb_reward>  (176) 
-0

>  <i_i_glide_confnum>  (176) 
2

>  <i_i_glide_posenum>  (176) 
29

>  <r_i_glide_eff_state_penalty>  (176) 
0

>  <ligand_id>  (176) 
56

>  <original_smiles>  (176) 
CC12CCC3c4ccc(O)cc4CCC3C1CCC2O

>  <smiles>  (176) 
[H]Oc1c([H])c([H])c2c(c1[H])C([H])([H])C([H])([H])C1([H])C2([H])C([H])([H])C([H])([H])C2(C([H])([H])[H])C([H])(O[H])C([H])([H])C([H])([H])C12[H]

$$$$
56:0:1
     RDKit          3D

 44 47  0  0  1  0  0  0  0  0999 V2000
    4.0077   -1.2935    1.3691 C   0  0  0  0  0  0  0  0  0  0  0  0
    3.7713   -1.5761    2.8690 C   0  0  2  0  0  0  0  0  0  0  0  0
    2.3359   -2.1184    3.1159 C   0  0  0  0  0  0  0  0  0  0  0  0
    1.2410   -1.0520    2.9245 C   0  0  0  0  0  0  0  0  0  0  0  0
    1.4627    0.1643    3.8466 C   0  0  2  0  0  0  0  0  0  0  0  0
    0.4357    1.2914    3.6904 C   0  0  0  0  0  0  0  0  0  0  0  0
   -0.7288    1.1751    2.9003 C   0  0  0  0  0  0  0  0  0  0  0  0
   -1.6146    2.2607    2.7807 C   0  0  0  0  0  0  0  0  0  0  0  0
   -1.3455    3.4780    3.4355 C   0  0  0  0  0  0  0  0  0  0  0  0
   -2.1938    4.5353    3.2804 O   0  0  0  0  0  0  0  0  0  0  0  0
   -0.1874    3.6002    4.2241 C   0  0  0  0  0  0  0  0  0  0  0  0
    0.6950    2.5098    4.3526 C   0  0  0  0  0  0  0  0  0  0  0  0
    1.9339    2.6123    5.2196 C   0  0  0  0  0  0  0  0  0  0  0  0
    3.1793    1.9725    4.5762 C   0  0  0  0  0  0  0  0  0  0  0  0
    2.8923    0.7422    3.6731 C   0  0  1  0  0  0  0  0  0  0  0  0
    4.0192   -0.3266    3.7407 C   0  0  1  0  0  0  0  0  0  0  0  0
    4.3601   -0.8766    5.1420 C   0  0  0  0  0  0  0  0  0  0  0  0
    4.9174   -2.2914    4.9265 C   0  0  0  0  0  0  0  0  0  0  0  0
    4.8587   -2.5297    3.4147 C   0  0  1  0  0  0  0  0  0  0  0  0
    4.6380   -3.8911    3.1117 O   0  0  0  0  0  0  0  0  0  0  0  0
    3.8750   -2.1981    0.7746 H   0  0  0  0  0  0  0  0  0  0  0  0
    5.0194   -0.9272    1.1891 H   0  0  0  0  0  0  0  0  0  0  0  0
    3.3206   -0.5427    0.9813 H   0  0  0  0  0  0  0  0  0  0  0  0
    2.1390   -2.9642    2.4567 H   0  0  0  0  0  0  0  0  0  0  0  0
    2.2569   -2.5133    4.1302 H   0  0  0  0  0  0  0  0  0  0  0  0
    1.2043   -0.7409    1.8799 H   0  0  0  0  0  0  0  0  0  0  0  0
    0.2756   -1.5051    3.1468 H   0  0  0  0  0  0  0  0  0  0  0  0
    1.3685   -0.1870    4.8717 H   0  0  0  0  0  0  0  0  0  0  0  0
   -0.9556    0.2697    2.3615 H   0  0  0  0  0  0  0  0  0  0  0  0
   -2.4916    2.1629    2.1590 H   0  0  0  0  0  0  0  0  0  0  0  0
   -2.7646    4.3971    2.5375 H   0  0  0  0  0  0  0  0  0  0  0  0
    0.0276    4.5358    4.7172 H   0  0  0  0  0  0  0  0  0  0  0  0
    2.1279    3.6480    5.4977 H   0  0  0  0  0  0  0  0  0  0  0  0
    1.7006    2.0793    6.1433 H   0  0  0  0  0  0  0  0  0  0  0  0
    3.6614    2.7238    3.9506 H   0  0  0  0  0  0  0  0  0  0  0  0
    3.9047    1.7495    5.3569 H   0  0  0  0  0  0  0  0  0  0  0  0
    2.9093    1.1249    2.6502 H   0  0  0  0  0  0  0  0  0  0  0  0
    4.9306    0.1477    3.3718 H   0  0  0  0  0  0  0  0  0  0  0  0
    5.0914   -0.2432    5.6459 H   0  0  0  0  0  0  0  0  0  0  0  0
    3.4721   -0.9240    5.7774 H   0  0  0  0  0  0  0  0  0  0  0  0
    5.9338   -2.3962    5.3073 H   0  0  0  0  0  0  0  0  0  0  0  0
    4.3025   -3.0130    5.4652 H   0  0  0  0  0  0  0  0  0  0  0  0
    5.8218   -2.2430    2.9902 H   0  0  0  0  0  0  0  0  0  0  0  0
    5.3847   -4.3884    3.4131 H   0  0  0  0  0  0  0  0  0  0  0  0
  2  1  1  6
  1 21  1  0
  1 22  1  0
  1 23  1  0
  2 16  1  0
  2 19  1  0
  2  3  1  0
  3  4  1  0
  3 24  1  0
  3 25  1  0
  4  5  1  0
  4 26  1  0
  4 27  1  0
  5 15  1  0
  5  6  1  0
  5 28  1  1
  6 12  2  0
  6  7  1  0
  7  8  2  0
  7 29  1  0
  8  9  1  0
  8 30  1  0
  9 10  1  0
  9 11  2  0
 10 31  1  0
 11 12  1  0
 11 32  1  0
 12 13  1  0
 13 14  1  0
 13 33  1  0
 13 34  1  0
 14 15  1  0
 14 35  1  0
 14 36  1  0
 15 16  1  0
 15 37  1  6
 16 17  1  0
 16 38  1  6
 17 18  1  0
 17 39  1  0
 17 40  1  0
 18 19  1  0
 18 41  1  0
 18 42  1  0
 19 20  1  0
 19 43  1  6
 20 44  1  0
M  END
>  <i_m_ct_stereo_status>  (177) 
1

>  <s_m_source_file>  (177) 
/var/tmp/pbs.5076255.sched01/tmpbaygurib/766rrai79r.sdf

>  <i_m_source_file_index>  (177) 
1

>  <i_lp_mmshare_version>  (177) 
48012

>  <i_f3d_flags>  (177) 
0

>  <s_epik_input>  (177) 
W09IXVtDQEBIXTFbQ0gyXVtDSDJdW0NAQEhdKFtDQEBdMTJbQ0gzXSlbQ0BIXTNbQ0BIXShbQ0gyXVtDSDJdMiljNGMoW0NIMl1bQ0gyXTMpW2NIXWMoW09IXSlbY0hdW2NIXTQ=

>  <s_epik_cmdline>  (177) 
J2VwaWtfcHl0aG9uJywgJy1waHQnLCAnMi4wJywgJy1waCcsICc3LjAnLCAnLXRuJywgJzgnLCAnLW1hJywgJzIwMCcsICctaW1hZScsICc8aW5maWxlLm1hZT4nLCAnLW9tYWUnLCAnPG91dGZpbGUubWFlPic=

>  <r_lp_tautomer_probability>  (177) 
1

>  <r_epik_Ionization_Penalty>  (177) 
0.000144805

>  <r_epik_Ionization_Penalty_Charging>  (177) 
0

>  <r_epik_Ionization_Penalty_Neutral>  (177) 
0.000144805

>  <r_epik_State_Penalty>  (177) 
-0

>  <r_epik_Charging_Adjusted_Penalty>  (177) 
0

>  <i_epik_Tot_Q>  (177) 
0

>  <i_epik_Tot_abs_Q>  (177) 
0

>  <s_lp_Force_Field>  (177) 
OPLS3e

>  <r_lp_Energy>  (177) 
35.5411

>  <b_lp_Chiralities_Consistent>  (177) 
1

>  <s_lp_Variant>  (177) 
56:0-1

>  <s_i_glide_gridfile>  (177) 
pfpi4k_grid

>  <i_i_glide_lignum>  (177) 
1

>  <i_i_glide_rotatable_bonds>  (177) 
2

>  <r_i_docking_score>  (177) 
-3.04216

>  <r_i_glide_ligand_efficiency>  (177) 
-0.152108

>  <r_i_glide_ligand_efficiency_sa>  (177) 
-0.412885

>  <r_i_glide_ligand_efficiency_ln>  (177) 
-0.761352

>  <r_i_glide_gscore>  (177) 
-3.04216

>  <r_i_glide_lipo>  (177) 
-0.102092

>  <r_i_glide_hbond>  (177) 
-0.16

>  <r_i_glide_metal>  (177) 
-0

>  <r_i_glide_rewards>  (177) 
-1.55194

>  <r_i_glide_evdw>  (177) 
-17.9181

>  <r_i_glide_ecoul>  (177) 
-2.21479

>  <r_i_glide_erotb>  (177) 
0

>  <r_i_glide_esite>  (177) 
0

>  <r_i_glide_emodel>  (177) 
-25.0075

>  <r_i_glide_energy>  (177) 
-20.1329

>  <r_i_glide_einternal>  (177) 
0.569644

>  <r_i_glide_intrahb_reward>  (177) 
-0

>  <i_i_glide_confnum>  (177) 
2

>  <i_i_glide_posenum>  (177) 
32

>  <r_i_glide_eff_state_penalty>  (177) 
0

>  <ligand_id>  (177) 
56

>  <original_smiles>  (177) 
CC12CCC3c4ccc(O)cc4CCC3C1CCC2O

>  <smiles>  (177) 
[H]Oc1c([H])c([H])c2c(c1[H])C([H])([H])C([H])([H])C1([H])C2([H])C([H])([H])C([H])([H])C2(C([H])([H])[H])C([H])(O[H])C([H])([H])C([H])([H])C12[H]

$$$$
56:0:2
     RDKit          3D

 44 47  0  0  1  0  0  0  0  0999 V2000
    4.9100   -0.5882    3.5559 C   0  0  0  0  0  0  0  0  0  0  0  0
    4.1158   -1.2024    4.7294 C   0  0  2  0  0  0  0  0  0  0  0  0
    2.8626   -1.9677    4.2225 C   0  0  0  0  0  0  0  0  0  0  0  0
    1.7571   -1.0411    3.6823 C   0  0  0  0  0  0  0  0  0  0  0  0
    1.3006   -0.0183    4.7459 C   0  0  2  0  0  0  0  0  0  0  0  0
    0.2314    0.9736    4.2718 C   0  0  0  0  0  0  0  0  0  0  0  0
   -0.4242    0.8709    3.0248 C   0  0  0  0  0  0  0  0  0  0  0  0
   -1.3812    1.8327    2.6419 C   0  0  0  0  0  0  0  0  0  0  0  0
   -1.6743    2.9206    3.4919 C   0  0  0  0  0  0  0  0  0  0  0  0
   -2.5752    3.8720    3.1083 O   0  0  0  0  0  0  0  0  0  0  0  0
   -1.0277    3.0255    4.7370 C   0  0  0  0  0  0  0  0  0  0  0  0
   -0.0818    2.0534    5.1257 C   0  0  0  0  0  0  0  0  0  0  0  0
    0.6085    2.1392    6.4694 C   0  0  0  0  0  0  0  0  0  0  0  0
    2.1132    1.8157    6.3957 C   0  0  0  0  0  0  0  0  0  0  0  0
    2.5099    0.7670    5.3195 C   0  0  1  0  0  0  0  0  0  0  0  0
    3.6959   -0.1340    5.7635 C   0  0  1  0  0  0  0  0  0  0  0  0
    3.5127   -0.9069    7.0865 C   0  0  0  0  0  0  0  0  0  0  0  0
    4.3948   -2.1622    6.9800 C   0  0  0  0  0  0  0  0  0  0  0  0
    5.0364   -2.0983    5.5898 C   0  0  1  0  0  0  0  0  0  0  0  0
    5.2997   -3.3752    5.0451 O   0  0  0  0  0  0  0  0  0  0  0  0
    5.2425   -1.3597    2.8617 H   0  0  0  0  0  0  0  0  0  0  0  0
    5.7982   -0.0619    3.9064 H   0  0  0  0  0  0  0  0  0  0  0  0
    4.3155    0.1304    2.9917 H   0  0  0  0  0  0  0  0  0  0  0  0
    3.1504   -2.6777    3.4477 H   0  0  0  0  0  0  0  0  0  0  0  0
    2.4406   -2.5648    5.0326 H   0  0  0  0  0  0  0  0  0  0  0  0
    2.1076   -0.5293    2.7856 H   0  0  0  0  0  0  0  0  0  0  0  0
    0.9094   -1.6539    3.3739 H   0  0  0  0  0  0  0  0  0  0  0  0
    0.8507   -0.5810    5.5625 H   0  0  0  0  0  0  0  0  0  0  0  0
   -0.2003    0.0714    2.3364 H   0  0  0  0  0  0  0  0  0  0  0  0
   -1.8733    1.7362    1.6859 H   0  0  0  0  0  0  0  0  0  0  0  0
   -2.8574    3.7421    2.2152 H   0  0  0  0  0  0  0  0  0  0  0  0
   -1.2575    3.8557    5.3904 H   0  0  0  0  0  0  0  0  0  0  0  0
    0.4418    3.1130    6.9303 H   0  0  0  0  0  0  0  0  0  0  0  0
    0.1221    1.4024    7.1096 H   0  0  0  0  0  0  0  0  0  0  0  0
    2.6466    2.7346    6.1608 H   0  0  0  0  0  0  0  0  0  0  0  0
    2.4625    1.5364    7.3899 H   0  0  0  0  0  0  0  0  0  0  0  0
    2.8808    1.3491    4.4731 H   0  0  0  0  0  0  0  0  0  0  0  0
    4.5532    0.5232    5.9168 H   0  0  0  0  0  0  0  0  0  0  0  0
    3.8013   -0.2975    7.9449 H   0  0  0  0  0  0  0  0  0  0  0  0
    2.4701   -1.1996    7.2344 H   0  0  0  0  0  0  0  0  0  0  0  0
    5.1583   -2.1897    7.7588 H   0  0  0  0  0  0  0  0  0  0  0  0
    3.7802   -3.0543    7.0998 H   0  0  0  0  0  0  0  0  0  0  0  0
    5.9987   -1.5970    5.7045 H   0  0  0  0  0  0  0  0  0  0  0  0
    4.4855   -3.8497    4.9757 H   0  0  0  0  0  0  0  0  0  0  0  0
  2  1  1  6
  1 21  1  0
  1 22  1  0
  1 23  1  0
  2 16  1  0
  2 19  1  0
  2  3  1  0
  3  4  1  0
  3 24  1  0
  3 25  1  0
  4  5  1  0
  4 26  1  0
  4 27  1  0
  5 15  1  0
  5  6  1  0
  5 28  1  1
  6 12  2  0
  6  7  1  0
  7  8  2  0
  7 29  1  0
  8  9  1  0
  8 30  1  0
  9 10  1  0
  9 11  2  0
 10 31  1  0
 11 12  1  0
 11 32  1  0
 12 13  1  0
 13 14  1  0
 13 33  1  0
 13 34  1  0
 14 15  1  0
 14 35  1  0
 14 36  1  0
 15 16  1  0
 15 37  1  6
 16 17  1  0
 16 38  1  1
 17 18  1  0
 17 39  1  0
 17 40  1  0
 18 19  1  0
 18 41  1  0
 18 42  1  0
 19 20  1  0
 19 43  1  1
 20 44  1  0
M  END
>  <i_m_ct_stereo_status>  (178) 
1

>  <s_m_source_file>  (178) 
/var/tmp/pbs.5076255.sched01/tmpbaygurib/766rrai79r.sdf

>  <i_m_source_file_index>  (178) 
1

>  <i_lp_mmshare_version>  (178) 
48012

>  <i_f3d_flags>  (178) 
0

>  <s_epik_input>  (178) 
W09IXVtDQEBIXTFbQ0gyXVtDSDJdW0NAQEhdKFtDQEBdMTJbQ0gzXSlbQ0BIXTNbQ0BIXShbQ0gyXVtDSDJdMiljNGMoW0NIMl1bQ0gyXTMpW2NIXWMoW09IXSlbY0hdW2NIXTQ=

>  <s_epik_cmdline>  (178) 
J2VwaWtfcHl0aG9uJywgJy1waHQnLCAnMi4wJywgJy1waCcsICc3LjAnLCAnLXRuJywgJzgnLCAnLW1hJywgJzIwMCcsICctaW1hZScsICc8aW5maWxlLm1hZT4nLCAnLW9tYWUnLCAnPG91dGZpbGUubWFlPic=

>  <r_lp_tautomer_probability>  (178) 
1

>  <r_epik_Ionization_Penalty>  (178) 
0.000144805

>  <r_epik_Ionization_Penalty_Charging>  (178) 
0

>  <r_epik_Ionization_Penalty_Neutral>  (178) 
0.000144805

>  <r_epik_State_Penalty>  (178) 
-0

>  <r_epik_Charging_Adjusted_Penalty>  (178) 
0

>  <i_epik_Tot_Q>  (178) 
0

>  <i_epik_Tot_abs_Q>  (178) 
0

>  <s_lp_Force_Field>  (178) 
OPLS3e

>  <r_lp_Energy>  (178) 
35.5411

>  <b_lp_Chiralities_Consistent>  (178) 
1

>  <s_lp_Variant>  (178) 
56:0-1

>  <s_i_glide_gridfile>  (178) 
pfpi4k_grid

>  <i_i_glide_lignum>  (178) 
1

>  <i_i_glide_rotatable_bonds>  (178) 
2

>  <r_i_docking_score>  (178) 
-2.65359

>  <r_i_glide_ligand_efficiency>  (178) 
-0.132679

>  <r_i_glide_ligand_efficiency_sa>  (178) 
-0.360147

>  <r_i_glide_ligand_efficiency_ln>  (178) 
-0.664105

>  <r_i_glide_gscore>  (178) 
-2.65359

>  <r_i_glide_lipo>  (178) 
-0.128027

>  <r_i_glide_hbond>  (178) 
0

>  <r_i_glide_metal>  (178) 
-0

>  <r_i_glide_rewards>  (178) 
-1.55194

>  <r_i_glide_evdw>  (178) 
-15.5634

>  <r_i_glide_ecoul>  (178) 
-1.30299

>  <r_i_glide_erotb>  (178) 
0

>  <r_i_glide_esite>  (178) 
0

>  <r_i_glide_emodel>  (178) 
-21.3815

>  <r_i_glide_energy>  (178) 
-16.8664

>  <r_i_glide_einternal>  (178) 
0.0527607

>  <r_i_glide_intrahb_reward>  (178) 
-0

>  <i_i_glide_confnum>  (178) 
1

>  <i_i_glide_posenum>  (178) 
14

>  <r_i_glide_eff_state_penalty>  (178) 
0

>  <ligand_id>  (178) 
56

>  <original_smiles>  (178) 
CC12CCC3c4ccc(O)cc4CCC3C1CCC2O

>  <smiles>  (178) 
[H]Oc1c([H])c([H])c2c(c1[H])C([H])([H])C([H])([H])C1([H])C2([H])C([H])([H])C([H])([H])C2(C([H])([H])[H])C([H])(O[H])C([H])([H])C([H])([H])C12[H]

$$$$
57:0:0
     RDKit          3D

 41 42  0  0  1  0  0  0  0  0999 V2000
   -8.2081  -11.8895  -10.0587 C   0  0  0  0  0  0  0  0  0  0  0  0
   -7.2642  -11.7598   -8.8382 C   0  0  0  0  0  0  0  0  0  0  0  0
   -7.4361  -13.0024   -7.9431 C   0  0  0  0  0  0  0  0  0  0  0  0
   -7.4474  -10.4715   -8.0816 N   0  0  2  0  0  0  0  0  0  0  0  0
   -7.3802   -9.2617   -8.9592 C   0  0  0  0  0  0  0  0  0  0  0  0
   -7.6652   -7.9960   -8.2135 C   0  0  0  0  0  0  0  0  0  0  0  0
   -6.7126   -7.8054   -7.0318 C   0  0  1  0  0  0  0  0  0  0  0  0
   -6.8956   -6.5358   -6.2842 N   0  0  0  0  0  0  0  0  0  0  0  0
   -8.1000   -5.7040   -6.5698 C   0  0  0  0  0  0  0  0  0  0  0  0
   -8.0355   -4.2678   -6.0948 C   0  0  0  0  0  0  0  0  0  0  0  0
   -7.5228   -4.2406   -4.7260 N   0  0  0  0  0  0  0  0  0  0  0  0
   -6.1612   -4.7988   -4.6252 C   0  0  0  0  0  0  0  0  0  0  0  0
   -5.9771   -6.1244   -5.3650 C   0  0  0  0  0  0  0  0  0  0  0  0
   -4.9462   -6.7638   -5.0826 O   0  0  0  0  0  0  0  0  0  0  0  0
   -6.8147   -9.0538   -6.1250 C   0  0  0  0  0  0  0  0  0  0  0  0
   -6.5380  -10.3179   -6.8890 C   0  0  0  0  0  0  0  0  0  0  0  0
   -8.1331  -12.8807  -10.5075 H   0  0  0  0  0  0  0  0  0  0  0  0
   -7.9607  -11.1791  -10.8507 H   0  0  0  0  0  0  0  0  0  0  0  0
   -9.2495  -11.7302   -9.7772 H   0  0  0  0  0  0  0  0  0  0  0  0
   -6.2386  -11.7974   -9.2364 H   0  0  0  0  0  0  0  0  0  0  0  0
   -7.4250  -13.9169   -8.5331 H   0  0  0  0  0  0  0  0  0  0  0  0
   -8.3792  -12.9732   -7.4000 H   0  0  0  0  0  0  0  0  0  0  0  0
   -6.6292  -13.0971   -7.2138 H   0  0  0  0  0  0  0  0  0  0  0  0
   -6.3819   -9.1840   -9.3927 H   0  0  0  0  0  0  0  0  0  0  0  0
   -8.0867   -9.2598   -9.7845 H   0  0  0  0  0  0  0  0  0  0  0  0
   -7.5457   -7.1894   -8.9358 H   0  0  0  0  0  0  0  0  0  0  0  0
   -8.7038   -8.0029   -7.8954 H   0  0  0  0  0  0  0  0  0  0  0  0
   -5.6976   -7.7516   -7.4263 H   0  0  0  0  0  0  0  0  0  0  0  0
   -8.3710   -5.6381   -7.6162 H   0  0  0  0  0  0  0  0  0  0  0  0
   -8.9046   -6.2088   -6.0665 H   0  0  0  0  0  0  0  0  0  0  0  0
   -7.3786   -3.7315   -6.7766 H   0  0  0  0  0  0  0  0  0  0  0  0
   -9.0164   -3.8056   -6.1561 H   0  0  0  0  0  0  0  0  0  0  0  0
   -7.5079   -3.2873   -4.3929 H   0  0  0  0  0  0  0  0  0  0  0  0
   -5.4333   -4.0998   -5.0636 H   0  0  0  0  0  0  0  0  0  0  0  0
   -5.9439   -4.9273   -3.5608 H   0  0  0  0  0  0  0  0  0  0  0  0
   -6.0817   -9.0240   -5.3110 H   0  0  0  0  0  0  0  0  0  0  0  0
   -7.7841   -9.1433   -5.6586 H   0  0  0  0  0  0  0  0  0  0  0  0
   -6.6292  -11.1293   -6.1764 H   0  0  0  0  0  0  0  0  0  0  0  0
   -5.5037  -10.3231   -7.2396 H   0  0  0  0  0  0  0  0  0  0  0  0
   -8.3959  -10.4982   -7.7206 H   0  0  0  0  0  0  0  0  0  0  0  0
   -8.1269   -4.7837   -4.1342 H   0  0  0  0  0  0  0  0  0  0  0  0
  1  2  1  0
  1 17  1  0
  1 18  1  0
  1 19  1  0
  2  3  1  0
  2  4  1  0
  2 20  1  0
  3 21  1  0
  3 22  1  0
  3 23  1  0
  4 16  1  0
  4  5  1  0
  4 40  1  1
  5  6  1  0
  5 24  1  0
  5 25  1  0
  6  7  1  0
  6 26  1  0
  6 27  1  0
  7  8  1  0
  7 15  1  0
  7 28  1  6
  8 13  1  0
  8  9  1  0
  9 10  1  0
  9 29  1  0
  9 30  1  0
 10 11  1  0
 10 31  1  0
 10 32  1  0
 11 12  1  0
 11 33  1  0
 11 41  1  0
 12 13  1  0
 12 34  1  0
 12 35  1  0
 13 14  2  0
 15 16  1  0
 15 36  1  0
 15 37  1  0
 16 38  1  0
 16 39  1  0
M  CHG  2   4   1  11   1
M  END
>  <i_m_ct_stereo_status>  (179) 
1

>  <s_m_source_file>  (179) 
/var/tmp/pbs.5076255.sched01/tmpbaygurib/766rrai79r.sdf

>  <i_m_source_file_index>  (179) 
2

>  <i_lp_mmshare_version>  (179) 
48012

>  <i_f3d_flags>  (179) 
0

>  <s_epik_input>  (179) 
W0NIM11bQ0hdKFtDSDNdKU4xW0NIMl1bQ0gyXVtDSF0oW0NIMl1bQ0gyXTEpTjJbQ0gyXVtDSDJdW05IXVtDSDJdQzI9Tw==

>  <s_epik_cmdline>  (179) 
J2VwaWtfcHl0aG9uJywgJy1waHQnLCAnMi4wJywgJy1waCcsICc3LjAnLCAnLXRuJywgJzgnLCAnLW1hJywgJzIwMCcsICctaW1hZScsICc8aW5maWxlLm1hZT4nLCAnLW9tYWUnLCAnPG91dGZpbGUubWFlPic=

>  <r_epik_Ionization_Penalty>  (179) 
0.291847

>  <r_epik_Ionization_Penalty_Charging>  (179) 
0.291847

>  <r_epik_Ionization_Penalty_Neutral>  (179) 
1.44977e-13

>  <r_epik_State_Penalty>  (179) 
0.298594

>  <r_epik_Charging_Adjusted_Penalty>  (179) 
0.590441

>  <i_epik_Tot_Q>  (179) 
2

>  <i_epik_Tot_abs_Q>  (179) 
2

>  <s_lp_Force_Field>  (179) 
OPLS3e

>  <r_lp_Energy>  (179) 
45.3258

>  <b_lp_Chiralities_Consistent>  (179) 
1

>  <s_lp_Variant>  (179) 
57:0-1

>  <s_i_glide_gridfile>  (179) 
pfpi4k_grid

>  <i_i_glide_lignum>  (179) 
2

>  <i_i_glide_rotatable_bonds>  (179) 
2

>  <r_i_docking_score>  (179) 
-6.23021

>  <r_i_glide_ligand_efficiency>  (179) 
-0.389388

>  <r_i_glide_ligand_efficiency_sa>  (179) 
-0.981196

>  <r_i_glide_ligand_efficiency_ln>  (179) 
-1.65144

>  <r_i_glide_gscore>  (179) 
-6.23021

>  <r_i_glide_lipo>  (179) 
-1.84053

>  <r_i_glide_hbond>  (179) 
-0.173116

>  <r_i_glide_metal>  (179) 
-0

>  <r_i_glide_rewards>  (179) 
-3.10894

>  <r_i_glide_evdw>  (179) 
-21.9848

>  <r_i_glide_ecoul>  (179) 
-2.25057

>  <r_i_glide_erotb>  (179) 
0.329208

>  <r_i_glide_esite>  (179) 
0

>  <r_i_glide_emodel>  (179) 
-37.9176

>  <r_i_glide_energy>  (179) 
-24.2354

>  <r_i_glide_einternal>  (179) 
5.64944

>  <r_i_glide_intrahb_reward>  (179) 
-0

>  <i_i_glide_confnum>  (179) 
1

>  <i_i_glide_posenum>  (179) 
2

>  <r_i_glide_eff_state_penalty>  (179) 
0

>  <ligand_id>  (179) 
57

>  <original_smiles>  (179) 
CC(C)N1CCC(N2CCNCC2=O)CC1

>  <smiles>  (179) 
[H]C([H])([H])C([H])(C([H])([H])[H])[N+]1([H])C([H])([H])C([H])([H])C([H])(N2C(=O)C([H])([H])[N+]([H])([H])C([H])([H])C2([H])[H])C([H])([H])C1([H])[H]

$$$$
57:0:1
     RDKit          3D

 41 42  0  0  1  0  0  0  0  0999 V2000
   -6.9839  -13.0525   -7.7154 C   0  0  0  0  0  0  0  0  0  0  0  0
   -5.7734  -12.1067   -7.5452 C   0  0  0  0  0  0  0  0  0  0  0  0
   -4.6858  -12.8201   -6.7228 C   0  0  0  0  0  0  0  0  0  0  0  0
   -6.1524  -10.7740   -6.9347 N   0  0  2  0  0  0  0  0  0  0  0  0
   -7.3237  -10.1392   -7.6200 C   0  0  0  0  0  0  0  0  0  0  0  0
   -7.7365   -8.8486   -6.9107 C   0  0  0  0  0  0  0  0  0  0  0  0
   -6.5632   -7.8528   -6.8498 C   0  0  1  0  0  0  0  0  0  0  0  0
   -6.9990   -6.5678   -6.2657 N   0  0  0  0  0  0  0  0  0  0  0  0
   -6.4679   -6.1830   -4.9393 C   0  0  0  0  0  0  0  0  0  0  0  0
   -7.1916   -5.0044   -4.2905 C   0  0  0  0  0  0  0  0  0  0  0  0
   -7.4093   -3.9432   -5.2640 N   0  0  0  0  0  0  0  0  0  0  0  0
   -8.2493   -4.3930   -6.3957 C   0  0  0  0  0  0  0  0  0  0  0  0
   -7.8055   -5.7472   -7.0039 C   0  0  0  0  0  0  0  0  0  0  0  0
   -8.1968   -6.0012   -8.1275 O   0  0  0  0  0  0  0  0  0  0  0  0
   -5.3777   -8.5380   -6.1532 C   0  0  0  0  0  0  0  0  0  0  0  0
   -5.0040   -9.8341   -6.8533 C   0  0  0  0  0  0  0  0  0  0  0  0
   -6.6549  -14.0465   -8.0309 H   0  0  0  0  0  0  0  0  0  0  0  0
   -7.6753  -12.6960   -8.4854 H   0  0  0  0  0  0  0  0  0  0  0  0
   -7.5422  -13.1784   -6.7877 H   0  0  0  0  0  0  0  0  0  0  0  0
   -5.3718  -11.9338   -8.5488 H   0  0  0  0  0  0  0  0  0  0  0  0
   -4.5104  -13.8269   -7.1055 H   0  0  0  0  0  0  0  0  0  0  0  0
   -4.9652  -12.9146   -5.6760 H   0  0  0  0  0  0  0  0  0  0  0  0
   -3.7274  -12.3032   -6.7724 H   0  0  0  0  0  0  0  0  0  0  0  0
   -7.0872   -9.9108   -8.6596 H   0  0  0  0  0  0  0  0  0  0  0  0
   -8.2225  -10.7583   -7.6079 H   0  0  0  0  0  0  0  0  0  0  0  0
   -8.6073   -8.4405   -7.4426 H   0  0  0  0  0  0  0  0  0  0  0  0
   -8.0693   -9.1064   -5.9206 H   0  0  0  0  0  0  0  0  0  0  0  0
   -6.2460   -7.6399   -7.8657 H   0  0  0  0  0  0  0  0  0  0  0  0
   -6.4986   -7.0134   -4.2408 H   0  0  0  0  0  0  0  0  0  0  0  0
   -5.4184   -5.9317   -5.0680 H   0  0  0  0  0  0  0  0  0  0  0  0
   -8.1668   -5.3159   -3.9370 H   0  0  0  0  0  0  0  0  0  0  0  0
   -6.6331   -4.6372   -3.4288 H   0  0  0  0  0  0  0  0  0  0  0  0
   -7.8699   -3.1792   -4.7974 H   0  0  0  0  0  0  0  0  0  0  0  0
   -9.3014   -4.4875   -6.0927 H   0  0  0  0  0  0  0  0  0  0  0  0
   -8.2042   -3.6371   -7.1886 H   0  0  0  0  0  0  0  0  0  0  0  0
   -4.5186   -7.8721   -6.1652 H   0  0  0  0  0  0  0  0  0  0  0  0
   -5.5802   -8.7799   -5.1182 H   0  0  0  0  0  0  0  0  0  0  0  0
   -4.1549  -10.2322   -6.3086 H   0  0  0  0  0  0  0  0  0  0  0  0
   -4.6561   -9.6102   -7.8593 H   0  0  0  0  0  0  0  0  0  0  0  0
   -6.4450  -10.9737   -5.9898 H   0  0  0  0  0  0  0  0  0  0  0  0
   -6.5147   -3.6587   -5.6277 H   0  0  0  0  0  0  0  0  0  0  0  0
  1  2  1  0
  1 17  1  0
  1 18  1  0
  1 19  1  0
  2  3  1  0
  2  4  1  0
  2 20  1  0
  3 21  1  0
  3 22  1  0
  3 23  1  0
  4 16  1  0
  4  5  1  0
  4 40  1  1
  5  6  1  0
  5 24  1  0
  5 25  1  0
  6  7  1  0
  6 26  1  0
  6 27  1  0
  7  8  1  0
  7 15  1  0
  7 28  1  6
  8 13  1  0
  8  9  1  0
  9 10  1  0
  9 29  1  0
  9 30  1  0
 10 11  1  0
 10 31  1  0
 10 32  1  0
 11 12  1  0
 11 33  1  0
 11 41  1  0
 12 13  1  0
 12 34  1  0
 12 35  1  0
 13 14  2  0
 15 16  1  0
 15 36  1  0
 15 37  1  0
 16 38  1  0
 16 39  1  0
M  CHG  2   4   1  11   1
M  END
>  <i_m_ct_stereo_status>  (180) 
1

>  <s_m_source_file>  (180) 
/var/tmp/pbs.5076255.sched01/tmpbaygurib/766rrai79r.sdf

>  <i_m_source_file_index>  (180) 
2

>  <i_lp_mmshare_version>  (180) 
48012

>  <i_f3d_flags>  (180) 
0

>  <s_epik_input>  (180) 
W0NIM11bQ0hdKFtDSDNdKU4xW0NIMl1bQ0gyXVtDSF0oW0NIMl1bQ0gyXTEpTjJbQ0gyXVtDSDJdW05IXVtDSDJdQzI9Tw==

>  <s_epik_cmdline>  (180) 
J2VwaWtfcHl0aG9uJywgJy1waHQnLCAnMi4wJywgJy1waCcsICc3LjAnLCAnLXRuJywgJzgnLCAnLW1hJywgJzIwMCcsICctaW1hZScsICc8aW5maWxlLm1hZT4nLCAnLW9tYWUnLCAnPG91dGZpbGUubWFlPic=

>  <r_epik_Ionization_Penalty>  (180) 
0.291847

>  <r_epik_Ionization_Penalty_Charging>  (180) 
0.291847

>  <r_epik_Ionization_Penalty_Neutral>  (180) 
1.44977e-13

>  <r_epik_State_Penalty>  (180) 
0.298594

>  <r_epik_Charging_Adjusted_Penalty>  (180) 
0.590441

>  <i_epik_Tot_Q>  (180) 
2

>  <i_epik_Tot_abs_Q>  (180) 
2

>  <s_lp_Force_Field>  (180) 
OPLS3e

>  <r_lp_Energy>  (180) 
45.3258

>  <b_lp_Chiralities_Consistent>  (180) 
1

>  <s_lp_Variant>  (180) 
57:0-1

>  <s_i_glide_gridfile>  (180) 
pfpi4k_grid

>  <i_i_glide_lignum>  (180) 
2

>  <i_i_glide_rotatable_bonds>  (180) 
2

>  <r_i_docking_score>  (180) 
-5.78606

>  <r_i_glide_ligand_efficiency>  (180) 
-0.361629

>  <r_i_glide_ligand_efficiency_sa>  (180) 
-0.911248

>  <r_i_glide_ligand_efficiency_ln>  (180) 
-1.53371

>  <r_i_glide_gscore>  (180) 
-5.78606

>  <r_i_glide_lipo>  (180) 
-1.91804

>  <r_i_glide_hbond>  (180) 
0

>  <r_i_glide_metal>  (180) 
-0

>  <r_i_glide_rewards>  (180) 
-2.92764

>  <r_i_glide_evdw>  (180) 
-22.7215

>  <r_i_glide_ecoul>  (180) 
-0.890086

>  <r_i_glide_erotb>  (180) 
0.329208

>  <r_i_glide_esite>  (180) 
0

>  <r_i_glide_emodel>  (180) 
-37.0858

>  <r_i_glide_energy>  (180) 
-23.6116

>  <r_i_glide_einternal>  (180) 
4.00258

>  <r_i_glide_intrahb_reward>  (180) 
-0

>  <i_i_glide_confnum>  (180) 
1

>  <i_i_glide_posenum>  (180) 
5

>  <r_i_glide_eff_state_penalty>  (180) 
0

>  <ligand_id>  (180) 
57

>  <original_smiles>  (180) 
CC(C)N1CCC(N2CCNCC2=O)CC1

>  <smiles>  (180) 
[H]C([H])([H])C([H])(C([H])([H])[H])[N+]1([H])C([H])([H])C([H])([H])C([H])(N2C(=O)C([H])([H])[N+]([H])([H])C([H])([H])C2([H])[H])C([H])([H])C1([H])[H]

$$$$
57:0:2
     RDKit          3D

 41 42  0  0  1  0  0  0  0  0999 V2000
   -4.4998  -13.2063   -6.6506 C   0  0  0  0  0  0  0  0  0  0  0  0
   -5.7518  -12.5478   -7.2519 C   0  0  0  0  0  0  0  0  0  0  0  0
   -5.7352  -12.6014   -8.7948 C   0  0  0  0  0  0  0  0  0  0  0  0
   -6.0295  -11.1988   -6.7064 N   0  0  2  0  0  0  0  0  0  0  0  0
   -7.3806  -10.6804   -7.0587 C   0  0  0  0  0  0  0  0  0  0  0  0
   -7.6705   -9.3245   -6.4069 C   0  0  0  0  0  0  0  0  0  0  0  0
   -6.5871   -8.2901   -6.7714 C   0  0  1  0  0  0  0  0  0  0  0  0
   -6.9170   -6.9320   -6.2961 N   0  0  0  0  0  0  0  0  0  0  0  0
   -6.1612   -6.4409   -5.1201 C   0  0  0  0  0  0  0  0  0  0  0  0
   -6.7608   -5.1888   -4.4802 C   0  0  0  0  0  0  0  0  0  0  0  0
   -7.1267   -4.2329   -5.5255 N   0  0  0  0  0  0  0  0  0  0  0  0
   -8.1407   -4.7785   -6.4499 C   0  0  0  0  0  0  0  0  0  0  0  0
   -7.8100   -6.1880   -6.9616 C   0  0  0  0  0  0  0  0  0  0  0  0
   -8.4139   -6.5871   -7.9722 O   0  0  0  0  0  0  0  0  0  0  0  0
   -5.2271   -8.8370   -6.3261 C   0  0  0  0  0  0  0  0  0  0  0  0
   -4.9689  -10.1812   -7.0026 C   0  0  0  0  0  0  0  0  0  0  0  0
   -4.3327  -14.1869   -7.1005 H   0  0  0  0  0  0  0  0  0  0  0  0
   -4.6441  -13.3799   -5.5838 H   0  0  0  0  0  0  0  0  0  0  0  0
   -3.5889  -12.6115   -6.7729 H   0  0  0  0  0  0  0  0  0  0  0  0
   -6.5764  -13.1836   -6.9340 H   0  0  0  0  0  0  0  0  0  0  0  0
   -5.4986  -13.6069   -9.1522 H   0  0  0  0  0  0  0  0  0  0  0  0
   -4.9986  -11.9107   -9.2104 H   0  0  0  0  0  0  0  0  0  0  0  0
   -6.7120  -12.3533   -9.2145 H   0  0  0  0  0  0  0  0  0  0  0  0
   -7.4888  -10.5189   -8.1328 H   0  0  0  0  0  0  0  0  0  0  0  0
   -8.1675  -11.3798   -6.7605 H   0  0  0  0  0  0  0  0  0  0  0  0
   -8.6567   -8.9911   -6.7441 H   0  0  0  0  0  0  0  0  0  0  0  0
   -7.7326   -9.4318   -5.3220 H   0  0  0  0  0  0  0  0  0  0  0  0
   -6.5293   -8.2427   -7.8611 H   0  0  0  0  0  0  0  0  0  0  0  0
   -6.0625   -7.2018   -4.3472 H   0  0  0  0  0  0  0  0  0  0  0  0
   -5.1482   -6.2210   -5.4489 H   0  0  0  0  0  0  0  0  0  0  0  0
   -7.6477   -5.4512   -3.9165 H   0  0  0  0  0  0  0  0  0  0  0  0
   -6.0545   -4.7295   -3.7940 H   0  0  0  0  0  0  0  0  0  0  0  0
   -7.5049   -3.4077   -5.0775 H   0  0  0  0  0  0  0  0  0  0  0  0
   -9.1182   -4.8301   -5.9627 H   0  0  0  0  0  0  0  0  0  0  0  0
   -8.2435   -4.1157   -7.3076 H   0  0  0  0  0  0  0  0  0  0  0  0
   -4.4505   -8.1451   -6.6518 H   0  0  0  0  0  0  0  0  0  0  0  0
   -5.1240   -8.9534   -5.2452 H   0  0  0  0  0  0  0  0  0  0  0  0
   -3.9759  -10.4862   -6.6629 H   0  0  0  0  0  0  0  0  0  0  0  0
   -4.9106   -9.9755   -8.0737 H   0  0  0  0  0  0  0  0  0  0  0  0
   -6.0373  -11.2892   -5.6968 H   0  0  0  0  0  0  0  0  0  0  0  0
   -6.3011   -3.9960   -6.0639 H   0  0  0  0  0  0  0  0  0  0  0  0
  1  2  1  0
  1 17  1  0
  1 18  1  0
  1 19  1  0
  2  3  1  0
  2  4  1  0
  2 20  1  0
  3 21  1  0
  3 22  1  0
  3 23  1  0
  4 16  1  0
  4  5  1  0
  4 40  1  1
  5  6  1  0
  5 24  1  0
  5 25  1  0
  6  7  1  0
  6 26  1  0
  6 27  1  0
  7  8  1  0
  7 15  1  0
  7 28  1  6
  8 13  1  0
  8  9  1  0
  9 10  1  0
  9 29  1  0
  9 30  1  0
 10 11  1  0
 10 31  1  0
 10 32  1  0
 11 12  1  0
 11 33  1  0
 11 41  1  0
 12 13  1  0
 12 34  1  0
 12 35  1  0
 13 14  2  0
 15 16  1  0
 15 36  1  0
 15 37  1  0
 16 38  1  0
 16 39  1  0
M  CHG  2   4   1  11   1
M  END
>  <i_m_ct_stereo_status>  (181) 
1

>  <s_m_source_file>  (181) 
/var/tmp/pbs.5076255.sched01/tmpbaygurib/766rrai79r.sdf

>  <i_m_source_file_index>  (181) 
2

>  <i_lp_mmshare_version>  (181) 
48012

>  <i_f3d_flags>  (181) 
0

>  <s_epik_input>  (181) 
W0NIM11bQ0hdKFtDSDNdKU4xW0NIMl1bQ0gyXVtDSF0oW0NIMl1bQ0gyXTEpTjJbQ0gyXVtDSDJdW05IXVtDSDJdQzI9Tw==

>  <s_epik_cmdline>  (181) 
J2VwaWtfcHl0aG9uJywgJy1waHQnLCAnMi4wJywgJy1waCcsICc3LjAnLCAnLXRuJywgJzgnLCAnLW1hJywgJzIwMCcsICctaW1hZScsICc8aW5maWxlLm1hZT4nLCAnLW9tYWUnLCAnPG91dGZpbGUubWFlPic=

>  <r_epik_Ionization_Penalty>  (181) 
0.291847

>  <r_epik_Ionization_Penalty_Charging>  (181) 
0.291847

>  <r_epik_Ionization_Penalty_Neutral>  (181) 
1.44977e-13

>  <r_epik_State_Penalty>  (181) 
0.298594

>  <r_epik_Charging_Adjusted_Penalty>  (181) 
0.590441

>  <i_epik_Tot_Q>  (181) 
2

>  <i_epik_Tot_abs_Q>  (181) 
2

>  <s_lp_Force_Field>  (181) 
OPLS3e

>  <r_lp_Energy>  (181) 
45.3258

>  <b_lp_Chiralities_Consistent>  (181) 
1

>  <s_lp_Variant>  (181) 
57:0-1

>  <s_i_glide_gridfile>  (181) 
pfpi4k_grid

>  <i_i_glide_lignum>  (181) 
2

>  <i_i_glide_rotatable_bonds>  (181) 
2

>  <r_i_docking_score>  (181) 
-5.71667

>  <r_i_glide_ligand_efficiency>  (181) 
-0.357292

>  <r_i_glide_ligand_efficiency_sa>  (181) 
-0.900319

>  <r_i_glide_ligand_efficiency_ln>  (181) 
-1.51532

>  <r_i_glide_gscore>  (181) 
-5.71667

>  <r_i_glide_lipo>  (181) 
-1.85142

>  <r_i_glide_hbond>  (181) 
0

>  <r_i_glide_metal>  (181) 
-0

>  <r_i_glide_rewards>  (181) 
-2.97259

>  <r_i_glide_evdw>  (181) 
-22.9501

>  <r_i_glide_ecoul>  (181) 
-0.495748

>  <r_i_glide_erotb>  (181) 
0.329208

>  <r_i_glide_esite>  (181) 
0

>  <r_i_glide_emodel>  (181) 
-33.8668

>  <r_i_glide_energy>  (181) 
-23.4458

>  <r_i_glide_einternal>  (181) 
9.03704

>  <r_i_glide_intrahb_reward>  (181) 
-0

>  <i_i_glide_confnum>  (181) 
1

>  <i_i_glide_posenum>  (181) 
12

>  <r_i_glide_eff_state_penalty>  (181) 
0

>  <ligand_id>  (181) 
57

>  <original_smiles>  (181) 
CC(C)N1CCC(N2CCNCC2=O)CC1

>  <smiles>  (181) 
[H]C([H])([H])C([H])(C([H])([H])[H])[N+]1([H])C([H])([H])C([H])([H])C([H])(N2C(=O)C([H])([H])[N+]([H])([H])C([H])([H])C2([H])[H])C([H])([H])C1([H])[H]

$$$$
57:1:0
     RDKit          3D

 40 41  0  0  1  0  0  0  0  0999 V2000
  -12.8802   -7.5313  -10.3083 C   0  0  0  0  0  0  0  0  0  0  0  0
  -11.4782   -8.1653  -10.3110 C   0  0  0  0  0  0  0  0  0  0  0  0
  -11.6058   -9.6975  -10.3993 C   0  0  0  0  0  0  0  0  0  0  0  0
  -10.6429   -7.7373   -9.1397 N   0  0  2  0  0  0  0  0  0  0  0  0
  -10.6305   -6.2522   -8.9101 C   0  0  0  0  0  0  0  0  0  0  0  0
   -9.8616   -5.8696   -7.6928 C   0  0  0  0  0  0  0  0  0  0  0  0
   -8.3992   -6.4128   -7.7493 C   0  0  1  0  0  0  0  0  0  0  0  0
   -7.5698   -6.0088   -6.5773 N   0  0  0  0  0  0  0  0  0  0  0  0
   -6.9396   -7.0320   -5.7110 C   0  0  0  0  0  0  0  0  0  0  0  0
   -5.7826   -6.5241   -4.8691 C   0  0  0  0  0  0  0  0  0  0  0  0
   -6.1886   -5.3162   -4.1990 N   0  0  0  0  0  0  0  0  0  0  0  0
   -6.4673   -4.2599   -5.1658 C   0  0  0  0  0  0  0  0  0  0  0  0
   -7.3799   -4.6905   -6.3152 C   0  0  0  0  0  0  0  0  0  0  0  0
   -7.8100   -3.8293   -7.0796 O   0  0  0  0  0  0  0  0  0  0  0  0
   -8.4412   -7.9274   -7.9950 C   0  0  0  0  0  0  0  0  0  0  0  0
   -9.2462   -8.2703   -9.2170 C   0  0  0  0  0  0  0  0  0  0  0  0
  -13.5074   -7.9550  -11.0843 H   0  0  0  0  0  0  0  0  0  0  0  0
  -12.8419   -6.4520  -10.4970 H   0  0  0  0  0  0  0  0  0  0  0  0
  -13.3798   -7.6776   -9.3468 H   0  0  0  0  0  0  0  0  0  0  0  0
  -10.9807   -7.8232  -11.2272 H   0  0  0  0  0  0  0  0  0  0  0  0
  -12.3067   -9.9780  -11.1830 H   0  0  0  0  0  0  0  0  0  0  0  0
  -11.9597  -10.1237   -9.4583 H   0  0  0  0  0  0  0  0  0  0  0  0
  -10.6606  -10.1826  -10.6536 H   0  0  0  0  0  0  0  0  0  0  0  0
  -10.2016   -5.7700   -9.7949 H   0  0  0  0  0  0  0  0  0  0  0  0
  -11.6223   -5.8468   -8.7533 H   0  0  0  0  0  0  0  0  0  0  0  0
   -9.9218   -4.7790   -7.6555 H   0  0  0  0  0  0  0  0  0  0  0  0
  -10.4131   -6.1894   -6.8224 H   0  0  0  0  0  0  0  0  0  0  0  0
   -7.9068   -5.9616   -8.6045 H   0  0  0  0  0  0  0  0  0  0  0  0
   -7.7347   -7.4088   -5.0807 H   0  0  0  0  0  0  0  0  0  0  0  0
   -6.5314   -7.8733   -6.2586 H   0  0  0  0  0  0  0  0  0  0  0  0
   -5.5177   -7.2893   -4.1411 H   0  0  0  0  0  0  0  0  0  0  0  0
   -4.9093   -6.3582   -5.5020 H   0  0  0  0  0  0  0  0  0  0  0  0
   -7.0114   -5.5046   -3.6300 H   0  0  0  0  0  0  0  0  0  0  0  0
   -6.9105   -3.4139   -4.6439 H   0  0  0  0  0  0  0  0  0  0  0  0
   -5.5183   -3.9180   -5.6046 H   0  0  0  0  0  0  0  0  0  0  0  0
   -7.4490   -8.3368   -8.1906 H   0  0  0  0  0  0  0  0  0  0  0  0
   -8.8526   -8.4578   -7.1377 H   0  0  0  0  0  0  0  0  0  0  0  0
   -9.1989   -9.3523   -9.3036 H   0  0  0  0  0  0  0  0  0  0  0  0
   -8.7484   -7.8561  -10.0996 H   0  0  0  0  0  0  0  0  0  0  0  0
  -11.0750   -8.1447   -8.3130 H   0  0  0  0  0  0  0  0  0  0  0  0
  1  2  1  0
  1 17  1  0
  1 18  1  0
  1 19  1  0
  2  3  1  0
  2  4  1  0
  2 20  1  0
  3 21  1  0
  3 22  1  0
  3 23  1  0
  4 16  1  0
  4  5  1  0
  4 40  1  1
  5  6  1  0
  5 24  1  0
  5 25  1  0
  6  7  1  0
  6 26  1  0
  6 27  1  0
  7  8  1  0
  7 15  1  0
  7 28  1  6
  8 13  1  0
  8  9  1  0
  9 10  1  0
  9 29  1  0
  9 30  1  0
 10 11  1  0
 10 31  1  0
 10 32  1  0
 11 12  1  0
 11 33  1  0
 12 13  1  0
 12 34  1  0
 12 35  1  0
 13 14  2  0
 15 16  1  0
 15 36  1  0
 15 37  1  0
 16 38  1  0
 16 39  1  0
M  CHG  1   4   1
M  END
>  <i_m_ct_stereo_status>  (182) 
1

>  <s_m_source_file>  (182) 
/var/tmp/pbs.5076255.sched01/tmpbaygurib/766rrai79r.sdf

>  <i_m_source_file_index>  (182) 
3

>  <i_lp_mmshare_version>  (182) 
48012

>  <i_f3d_flags>  (182) 
0

>  <s_epik_input>  (182) 
W0NIM11bQ0hdKFtDSDNdKU4xW0NIMl1bQ0gyXVtDSF0oW0NIMl1bQ0gyXTEpTjJbQ0gyXVtDSDJdW05IXVtDSDJdQzI9Tw==

>  <s_epik_cmdline>  (182) 
J2VwaWtfcHl0aG9uJywgJy1waHQnLCAnMi4wJywgJy1waCcsICc3LjAnLCAnLXRuJywgJzgnLCAnLW1hJywgJzIwMCcsICctaW1hZScsICc8aW5maWxlLm1hZT4nLCAnLW9tYWUnLCAnPG91dGZpbGUubWFlPic=

>  <r_epik_Ionization_Penalty>  (182) 
0.587814

>  <r_epik_Ionization_Penalty_Charging>  (182) 
0.00681555

>  <r_epik_Ionization_Penalty_Neutral>  (182) 
0.580998

>  <r_epik_State_Penalty>  (182) 
0.569325

>  <r_epik_Charging_Adjusted_Penalty>  (182) 
0.576141

>  <i_epik_Tot_Q>  (182) 
1

>  <i_epik_Tot_abs_Q>  (182) 
1

>  <s_lp_Force_Field>  (182) 
OPLS3e

>  <r_lp_Energy>  (182) 
39.3484

>  <b_lp_Chiralities_Consistent>  (182) 
1

>  <s_lp_Variant>  (182) 
57:0-2

>  <s_i_glide_gridfile>  (182) 
pfpi4k_grid

>  <i_i_glide_lignum>  (182) 
3

>  <i_i_glide_rotatable_bonds>  (182) 
2

>  <r_i_docking_score>  (182) 
-5.09896

>  <r_i_glide_ligand_efficiency>  (182) 
-0.318685

>  <r_i_glide_ligand_efficiency_sa>  (182) 
-0.803036

>  <r_i_glide_ligand_efficiency_ln>  (182) 
-1.35158

>  <r_i_glide_gscore>  (182) 
-5.09896

>  <r_i_glide_lipo>  (182) 
-1.33245

>  <r_i_glide_hbond>  (182) 
0

>  <r_i_glide_metal>  (182) 
-0

>  <r_i_glide_rewards>  (182) 
-2.80764

>  <r_i_glide_evdw>  (182) 
-19.0437

>  <r_i_glide_ecoul>  (182) 
-2.18502

>  <r_i_glide_erotb>  (182) 
0.331695

>  <r_i_glide_esite>  (182) 
-0.0106298

>  <r_i_glide_emodel>  (182) 
-26.4317

>  <r_i_glide_energy>  (182) 
-21.2287

>  <r_i_glide_einternal>  (182) 
7.67345

>  <r_i_glide_intrahb_reward>  (182) 
-0

>  <i_i_glide_confnum>  (182) 
5

>  <i_i_glide_posenum>  (182) 
8

>  <r_i_glide_eff_state_penalty>  (182) 
0

>  <ligand_id>  (182) 
57

>  <original_smiles>  (182) 
CC(C)N1CCC(N2CCNCC2=O)CC1

>  <smiles>  (182) 
[H]N1C([H])([H])C(=O)N(C2([H])C([H])([H])C([H])([H])[N+]([H])(C([H])(C([H])([H])[H])C([H])([H])[H])C([H])([H])C2([H])[H])C([H])([H])C1([H])[H]

$$$$
57:1:1
     RDKit          3D

 40 41  0  0  1  0  0  0  0  0999 V2000
    5.2320   -1.1074    0.8134 C   0  0  0  0  0  0  0  0  0  0  0  0
    4.9960   -2.2703   -0.1571 C   0  0  0  0  0  0  0  0  0  0  0  0
    4.0863   -1.8664   -1.3346 C   0  0  0  0  0  0  0  0  0  0  0  0
    4.5309   -3.5085    0.5305 N   0  0  2  0  0  0  0  0  0  0  0  0
    4.6441   -4.7228   -0.3225 C   0  0  0  0  0  0  0  0  0  0  0  0
    4.2410   -5.9988    0.4307 C   0  0  0  0  0  0  0  0  0  0  0  0
    2.8200   -5.8643    1.0009 C   0  0  1  0  0  0  0  0  0  0  0  0
    2.2613   -7.0619    1.6305 N   0  0  0  0  0  0  0  0  0  0  0  0
    3.2092   -8.0547    2.1795 C   0  0  0  0  0  0  0  0  0  0  0  0
    2.5506   -9.3962    2.4736 C   0  0  0  0  0  0  0  0  0  0  0  0
    1.3553   -9.2001    3.2732 N   0  0  0  0  0  0  0  0  0  0  0  0
    0.3678   -8.4164    2.5040 C   0  0  0  0  0  0  0  0  0  0  0  0
    0.9207   -7.1688    1.7955 C   0  0  0  0  0  0  0  0  0  0  0  0
    0.1332   -6.3081    1.4063 O   0  0  0  0  0  0  0  0  0  0  0  0
    2.7732   -4.6319    1.9195 C   0  0  0  0  0  0  0  0  0  0  0  0
    3.1676   -3.3718    1.1230 C   0  0  0  0  0  0  0  0  0  0  0  0
    5.5259   -0.2080    0.2567 H   0  0  0  0  0  0  0  0  0  0  0  0
    6.0661   -1.3166    1.4850 H   0  0  0  0  0  0  0  0  0  0  0  0
    4.3495   -0.8756    1.4180 H   0  0  0  0  0  0  0  0  0  0  0  0
    5.9652   -2.4981   -0.5770 H   0  0  0  0  0  0  0  0  0  0  0  0
    4.4468   -0.9465   -1.8115 H   0  0  0  0  0  0  0  0  0  0  0  0
    3.0503   -1.7384   -1.0157 H   0  0  0  0  0  0  0  0  0  0  0  0
    4.0949   -2.6137   -2.1286 H   0  0  0  0  0  0  0  0  0  0  0  0
    3.9980   -4.6455   -1.1983 H   0  0  0  0  0  0  0  0  0  0  0  0
    5.6583   -4.8475   -0.6992 H   0  0  0  0  0  0  0  0  0  0  0  0
    4.2678   -6.8367   -0.2886 H   0  0  0  0  0  0  0  0  0  0  0  0
    4.9773   -6.2201    1.2074 H   0  0  0  0  0  0  0  0  0  0  0  0
    2.1966   -5.6521    0.1306 H   0  0  0  0  0  0  0  0  0  0  0  0
    4.0273   -8.2505    1.4934 H   0  0  0  0  0  0  0  0  0  0  0  0
    3.6585   -7.6447    3.0825 H   0  0  0  0  0  0  0  0  0  0  0  0
    2.3178   -9.9045    1.5385 H   0  0  0  0  0  0  0  0  0  0  0  0
    3.2503  -10.0386    3.0145 H   0  0  0  0  0  0  0  0  0  0  0  0
    1.6096   -8.7303    4.1251 H   0  0  0  0  0  0  0  0  0  0  0  0
   -0.0510   -9.0488    1.7212 H   0  0  0  0  0  0  0  0  0  0  0  0
   -0.4494   -8.1274    3.1649 H   0  0  0  0  0  0  0  0  0  0  0  0
    1.7676   -4.4739    2.3121 H   0  0  0  0  0  0  0  0  0  0  0  0
    3.3965   -4.7845    2.7955 H   0  0  0  0  0  0  0  0  0  0  0  0
    3.0861   -2.5232    1.8015 H   0  0  0  0  0  0  0  0  0  0  0  0
    2.4177   -3.2445    0.3277 H   0  0  0  0  0  0  0  0  0  0  0  0
    5.1640   -3.6658    1.2955 H   0  0  0  0  0  0  0  0  0  0  0  0
  1  2  1  0
  1 17  1  0
  1 18  1  0
  1 19  1  0
  2  3  1  0
  2  4  1  0
  2 20  1  0
  3 21  1  0
  3 22  1  0
  3 23  1  0
  4 16  1  0
  4  5  1  0
  4 40  1  1
  5  6  1  0
  5 24  1  0
  5 25  1  0
  6  7  1  0
  6 26  1  0
  6 27  1  0
  7  8  1  0
  7 15  1  0
  7 28  1  6
  8 13  1  0
  8  9  1  0
  9 10  1  0
  9 29  1  0
  9 30  1  0
 10 11  1  0
 10 31  1  0
 10 32  1  0
 11 12  1  0
 11 33  1  0
 12 13  1  0
 12 34  1  0
 12 35  1  0
 13 14  2  0
 15 16  1  0
 15 36  1  0
 15 37  1  0
 16 38  1  0
 16 39  1  0
M  CHG  1   4   1
M  END
>  <i_m_ct_stereo_status>  (183) 
1

>  <s_m_source_file>  (183) 
/var/tmp/pbs.5076255.sched01/tmpbaygurib/766rrai79r.sdf

>  <i_m_source_file_index>  (183) 
3

>  <i_lp_mmshare_version>  (183) 
48012

>  <i_f3d_flags>  (183) 
0

>  <s_epik_input>  (183) 
W0NIM11bQ0hdKFtDSDNdKU4xW0NIMl1bQ0gyXVtDSF0oW0NIMl1bQ0gyXTEpTjJbQ0gyXVtDSDJdW05IXVtDSDJdQzI9Tw==

>  <s_epik_cmdline>  (183) 
J2VwaWtfcHl0aG9uJywgJy1waHQnLCAnMi4wJywgJy1waCcsICc3LjAnLCAnLXRuJywgJzgnLCAnLW1hJywgJzIwMCcsICctaW1hZScsICc8aW5maWxlLm1hZT4nLCAnLW9tYWUnLCAnPG91dGZpbGUubWFlPic=

>  <r_epik_Ionization_Penalty>  (183) 
0.587814

>  <r_epik_Ionization_Penalty_Charging>  (183) 
0.00681555

>  <r_epik_Ionization_Penalty_Neutral>  (183) 
0.580998

>  <r_epik_State_Penalty>  (183) 
0.569325

>  <r_epik_Charging_Adjusted_Penalty>  (183) 
0.576141

>  <i_epik_Tot_Q>  (183) 
1

>  <i_epik_Tot_abs_Q>  (183) 
1

>  <s_lp_Force_Field>  (183) 
OPLS3e

>  <r_lp_Energy>  (183) 
39.3484

>  <b_lp_Chiralities_Consistent>  (183) 
1

>  <s_lp_Variant>  (183) 
57:0-2

>  <s_i_glide_gridfile>  (183) 
pfpi4k_grid

>  <i_i_glide_lignum>  (183) 
3

>  <i_i_glide_rotatable_bonds>  (183) 
2

>  <r_i_docking_score>  (183) 
-4.18007

>  <r_i_glide_ligand_efficiency>  (183) 
-0.261254

>  <r_i_glide_ligand_efficiency_sa>  (183) 
-0.65832

>  <r_i_glide_ligand_efficiency_ln>  (183) 
-1.10801

>  <r_i_glide_gscore>  (183) 
-4.18007

>  <r_i_glide_lipo>  (183) 
-0.218607

>  <r_i_glide_hbond>  (183) 
-0.245685

>  <r_i_glide_metal>  (183) 
-0

>  <r_i_glide_rewards>  (183) 
-1.86587

>  <r_i_glide_evdw>  (183) 
-20.6654

>  <r_i_glide_ecoul>  (183) 
-7.19155

>  <r_i_glide_erotb>  (183) 
0.331695

>  <r_i_glide_esite>  (183) 
-0.0695955

>  <r_i_glide_emodel>  (183) 
-30.3203

>  <r_i_glide_energy>  (183) 
-27.857

>  <r_i_glide_einternal>  (183) 
9.94092

>  <r_i_glide_intrahb_reward>  (183) 
-0

>  <i_i_glide_confnum>  (183) 
3

>  <i_i_glide_posenum>  (183) 
18

>  <r_i_glide_eff_state_penalty>  (183) 
0

>  <ligand_id>  (183) 
57

>  <original_smiles>  (183) 
CC(C)N1CCC(N2CCNCC2=O)CC1

>  <smiles>  (183) 
[H]N1C([H])([H])C(=O)N(C2([H])C([H])([H])C([H])([H])[N+]([H])(C([H])(C([H])([H])[H])C([H])([H])[H])C([H])([H])C2([H])[H])C([H])([H])C1([H])[H]

$$$$
57:1:2
     RDKit          3D

 40 41  0  0  1  0  0  0  0  0999 V2000
    4.7000   -2.5496   -3.1666 C   0  0  0  0  0  0  0  0  0  0  0  0
    3.8097   -2.4884   -1.9139 C   0  0  0  0  0  0  0  0  0  0  0  0
    4.2226   -1.3291   -0.9822 C   0  0  0  0  0  0  0  0  0  0  0  0
    3.7527   -3.7902   -1.1965 N   0  0  2  0  0  0  0  0  0  0  0  0
    2.6202   -3.8695   -0.2226 C   0  0  0  0  0  0  0  0  0  0  0  0
    2.5289   -5.2403    0.4439 C   0  0  0  0  0  0  0  0  0  0  0  0
    3.8737   -5.6101    1.0918 C   0  0  1  0  0  0  0  0  0  0  0  0
    3.8029   -6.8745    1.8381 N   0  0  0  0  0  0  0  0  0  0  0  0
    4.4431   -8.0627    1.2391 C   0  0  0  0  0  0  0  0  0  0  0  0
    4.0371   -9.3751    1.9018 C   0  0  0  0  0  0  0  0  0  0  0  0
    4.1881   -9.2479    3.3415 N   0  0  0  0  0  0  0  0  0  0  0  0
    3.2636   -8.2216    3.8542 C   0  0  0  0  0  0  0  0  0  0  0  0
    3.2644   -6.8914    3.0834 C   0  0  0  0  0  0  0  0  0  0  0  0
    2.7622   -5.9006    3.6143 O   0  0  0  0  0  0  0  0  0  0  0  0
    4.9883   -5.5561    0.0465 C   0  0  0  0  0  0  0  0  0  0  0  0
    5.0481   -4.1663   -0.5662 C   0  0  0  0  0  0  0  0  0  0  0  0
    4.7816   -1.5537   -3.6087 H   0  0  0  0  0  0  0  0  0  0  0  0
    4.2666   -3.1943   -3.9275 H   0  0  0  0  0  0  0  0  0  0  0  0
    5.7081   -2.9042   -2.9503 H   0  0  0  0  0  0  0  0  0  0  0  0
    2.8082   -2.2675   -2.2770 H   0  0  0  0  0  0  0  0  0  0  0  0
    4.2909   -0.3900   -1.5329 H   0  0  0  0  0  0  0  0  0  0  0  0
    5.1617   -1.5362   -0.4773 H   0  0  0  0  0  0  0  0  0  0  0  0
    3.4658   -1.1498   -0.2125 H   0  0  0  0  0  0  0  0  0  0  0  0
    2.7516   -3.1202    0.5579 H   0  0  0  0  0  0  0  0  0  0  0  0
    1.6832   -3.6328   -0.7308 H   0  0  0  0  0  0  0  0  0  0  0  0
    1.7469   -5.2029    1.2114 H   0  0  0  0  0  0  0  0  0  0  0  0
    2.2180   -6.0009   -0.2714 H   0  0  0  0  0  0  0  0  0  0  0  0
    4.1117   -4.8278    1.8085 H   0  0  0  0  0  0  0  0  0  0  0  0
    4.2125   -8.1388    0.1763 H   0  0  0  0  0  0  0  0  0  0  0  0
    5.5216   -7.9392    1.3087 H   0  0  0  0  0  0  0  0  0  0  0  0
    3.0117   -9.6363    1.6338 H   0  0  0  0  0  0  0  0  0  0  0  0
    4.6773  -10.1808    1.5402 H   0  0  0  0  0  0  0  0  0  0  0  0
    5.1477   -9.0059    3.5442 H   0  0  0  0  0  0  0  0  0  0  0  0
    2.2422   -8.6110    3.8222 H   0  0  0  0  0  0  0  0  0  0  0  0
    3.5065   -8.0153    4.8982 H   0  0  0  0  0  0  0  0  0  0  0  0
    5.9482   -5.7729    0.5081 H   0  0  0  0  0  0  0  0  0  0  0  0
    4.8490   -6.3006   -0.7459 H   0  0  0  0  0  0  0  0  0  0  0  0
    5.8614   -4.1734   -1.2932 H   0  0  0  0  0  0  0  0  0  0  0  0
    5.3008   -3.4502    0.2142 H   0  0  0  0  0  0  0  0  0  0  0  0
    3.5255   -4.5043   -1.8932 H   0  0  0  0  0  0  0  0  0  0  0  0
  1  2  1  0
  1 17  1  0
  1 18  1  0
  1 19  1  0
  2  3  1  0
  2  4  1  0
  2 20  1  0
  3 21  1  0
  3 22  1  0
  3 23  1  0
  4 16  1  0
  4  5  1  0
  4 40  1  6
  5  6  1  0
  5 24  1  0
  5 25  1  0
  6  7  1  0
  6 26  1  0
  6 27  1  0
  7  8  1  0
  7 15  1  0
  7 28  1  1
  8 13  1  0
  8  9  1  0
  9 10  1  0
  9 29  1  0
  9 30  1  0
 10 11  1  0
 10 31  1  0
 10 32  1  0
 11 12  1  0
 11 33  1  0
 12 13  1  0
 12 34  1  0
 12 35  1  0
 13 14  2  0
 15 16  1  0
 15 36  1  0
 15 37  1  0
 16 38  1  0
 16 39  1  0
M  CHG  1   4   1
M  END
>  <i_m_ct_stereo_status>  (184) 
1

>  <s_m_source_file>  (184) 
/var/tmp/pbs.5076255.sched01/tmpbaygurib/766rrai79r.sdf

>  <i_m_source_file_index>  (184) 
3

>  <i_lp_mmshare_version>  (184) 
48012

>  <i_f3d_flags>  (184) 
0

>  <s_epik_input>  (184) 
W0NIM11bQ0hdKFtDSDNdKU4xW0NIMl1bQ0gyXVtDSF0oW0NIMl1bQ0gyXTEpTjJbQ0gyXVtDSDJdW05IXVtDSDJdQzI9Tw==

>  <s_epik_cmdline>  (184) 
J2VwaWtfcHl0aG9uJywgJy1waHQnLCAnMi4wJywgJy1waCcsICc3LjAnLCAnLXRuJywgJzgnLCAnLW1hJywgJzIwMCcsICctaW1hZScsICc8aW5maWxlLm1hZT4nLCAnLW9tYWUnLCAnPG91dGZpbGUubWFlPic=

>  <r_epik_Ionization_Penalty>  (184) 
0.587814

>  <r_epik_Ionization_Penalty_Charging>  (184) 
0.00681555

>  <r_epik_Ionization_Penalty_Neutral>  (184) 
0.580998

>  <r_epik_State_Penalty>  (184) 
0.569325

>  <r_epik_Charging_Adjusted_Penalty>  (184) 
0.576141

>  <i_epik_Tot_Q>  (184) 
1

>  <i_epik_Tot_abs_Q>  (184) 
1

>  <s_lp_Force_Field>  (184) 
OPLS3e

>  <r_lp_Energy>  (184) 
39.3484

>  <b_lp_Chiralities_Consistent>  (184) 
1

>  <s_lp_Variant>  (184) 
57:0-2

>  <s_i_glide_gridfile>  (184) 
pfpi4k_grid

>  <i_i_glide_lignum>  (184) 
3

>  <i_i_glide_rotatable_bonds>  (184) 
2

>  <r_i_docking_score>  (184) 
-3.49207

>  <r_i_glide_ligand_efficiency>  (184) 
-0.218254

>  <r_i_glide_ligand_efficiency_sa>  (184) 
-0.549967

>  <r_i_glide_ligand_efficiency_ln>  (184) 
-0.925643

>  <r_i_glide_gscore>  (184) 
-3.49207

>  <r_i_glide_lipo>  (184) 
-0.248346

>  <r_i_glide_hbond>  (184) 
0

>  <r_i_glide_metal>  (184) 
-0

>  <r_i_glide_rewards>  (184) 
-1.91957

>  <r_i_glide_evdw>  (184) 
-19.9799

>  <r_i_glide_ecoul>  (184) 
-4.27717

>  <r_i_glide_erotb>  (184) 
0.331695

>  <r_i_glide_esite>  (184) 
-0.0152805

>  <r_i_glide_emodel>  (184) 
-25.9177

>  <r_i_glide_energy>  (184) 
-24.257

>  <r_i_glide_einternal>  (184) 
8.92699

>  <r_i_glide_intrahb_reward>  (184) 
-0

>  <i_i_glide_confnum>  (184) 
2

>  <i_i_glide_posenum>  (184) 
9

>  <r_i_glide_eff_state_penalty>  (184) 
0

>  <ligand_id>  (184) 
57

>  <original_smiles>  (184) 
CC(C)N1CCC(N2CCNCC2=O)CC1

>  <smiles>  (184) 
[H]N1C([H])([H])C(=O)N(C2([H])C([H])([H])C([H])([H])[N+]([H])(C([H])(C([H])([H])[H])C([H])([H])[H])C([H])([H])C2([H])[H])C([H])([H])C1([H])[H]

$$$$
58:0:0
     RDKit          3D

 47 52  0  0  1  0  0  0  0  0999 V2000
    2.8527   -2.3986    2.3430 C   0  0  0  0  0  0  0  0  0  0  0  0
    4.1242   -3.1654    1.9164 C   0  0  0  0  0  0  0  0  0  0  0  0
    4.7690   -3.7747    3.1840 C   0  0  0  0  0  0  0  0  0  0  0  0
    5.0923   -2.3610    0.9909 C   0  0  2  0  0  0  0  0  0  0  0  0
    6.1290   -1.7650    1.7907 O   0  0  0  0  0  0  0  0  0  0  0  0
    6.7814   -1.6007    0.5187 C   0  0  2  0  0  0  0  0  0  0  0  0
    5.9098   -0.3919    0.1697 C   0  0  0  0  0  0  0  0  0  0  0  0
    4.5381   -1.0462    0.2718 C   0  0  1  0  0  0  0  0  0  0  0  0
    3.6345   -1.3767   -1.0146 C   0  0  1  0  0  0  0  0  0  0  0  0
    3.5411   -0.8245   -2.5574 C   0  0  1  0  0  0  0  0  0  0  0  0
    4.4804    0.1468   -2.8498 O   0  0  0  0  0  0  0  0  0  0  0  0
    3.6939   -1.9218   -3.7945 C   0  0  0  0  0  0  0  0  0  0  0  0
    3.8274   -3.5190   -3.2942 C   0  0  2  0  0  0  0  0  0  0  0  0
    2.8424   -3.2898   -2.2777 C   0  0  0  0  0  0  0  0  0  0  0  0
    4.0706   -2.6677   -1.4810 C   0  0  1  0  0  0  0  0  0  0  0  0
    5.6371   -2.3792   -2.0410 C   0  0  0  0  0  0  0  0  0  0  0  0
    6.1412   -3.4969   -1.4111 C   0  0  1  0  0  0  0  0  0  0  0  0
    6.2742   -3.0548    0.1578 C   0  0  2  0  0  0  0  0  0  0  0  0
    7.0644   -4.1918    0.8210 C   0  0  0  0  0  0  0  0  0  0  0  0
    4.8624   -4.2171   -2.0720 C   0  0  1  0  0  0  0  0  0  0  0  0
    4.1582   -3.9237   -0.9138 O   0  0  0  0  0  0  0  0  0  0  0  0
    3.0828   -1.4970    2.9182 H   0  0  0  0  0  0  0  0  0  0  0  0
    2.2386   -3.0454    2.9748 H   0  0  0  0  0  0  0  0  0  0  0  0
    2.2293   -2.1208    1.4903 H   0  0  0  0  0  0  0  0  0  0  0  0
    3.7469   -4.0289    1.3703 H   0  0  0  0  0  0  0  0  0  0  0  0
    5.1683   -2.9990    3.8450 H   0  0  0  0  0  0  0  0  0  0  0  0
    5.5704   -4.4836    2.9620 H   0  0  0  0  0  0  0  0  0  0  0  0
    4.0043   -4.3053    3.7635 H   0  0  0  0  0  0  0  0  0  0  0  0
    7.8600   -1.4679    0.6023 H   0  0  0  0  0  0  0  0  0  0  0  0
    6.0016    0.3885    0.9108 H   0  0  0  0  0  0  0  0  0  0  0  0
    6.1623    0.1181   -0.7493 H   0  0  0  0  0  0  0  0  0  0  0  0
    3.9522   -0.4046    0.9445 H   0  0  0  0  0  0  0  0  0  0  0  0
    2.6174   -1.4765   -0.6105 H   0  0  0  0  0  0  0  0  0  0  0  0
    2.5740   -0.3339   -2.6741 H   0  0  0  0  0  0  0  0  0  0  0  0
    4.0102    0.9675   -2.8930 H   0  0  0  0  0  0  0  0  0  0  0  0
    2.8170   -1.7961   -4.4355 H   0  0  0  0  0  0  0  0  0  0  0  0
    4.5313   -1.6454   -4.4432 H   0  0  0  0  0  0  0  0  0  0  0  0
    3.4968   -4.2179   -4.0532 H   0  0  0  0  0  0  0  0  0  0  0  0
    1.9828   -2.6573   -2.5318 H   0  0  0  0  0  0  0  0  0  0  0  0
    2.3421   -4.2070   -1.9027 H   0  0  0  0  0  0  0  0  0  0  0  0
    5.9340   -2.5035   -3.0864 H   0  0  0  0  0  0  0  0  0  0  0  0
    6.1624   -1.4732   -1.8919 H   0  0  0  0  0  0  0  0  0  0  0  0
    7.0901   -3.8012   -1.8555 H   0  0  0  0  0  0  0  0  0  0  0  0
    7.9907   -4.4163    0.2846 H   0  0  0  0  0  0  0  0  0  0  0  0
    6.4717   -5.1022    0.8680 H   0  0  0  0  0  0  0  0  0  0  0  0
    7.3335   -3.9253    1.8404 H   0  0  0  0  0  0  0  0  0  0  0  0
    5.0033   -5.2977   -2.1748 H   0  0  0  0  0  0  0  0  0  0  0  0
  1  2  1  0
  1 22  1  0
  1 23  1  0
  1 24  1  0
  2  3  1  0
  4  2  1  1
  2 25  1  0
  3 26  1  0
  3 27  1  0
  3 28  1  0
  4  8  1  0
  4 18  1  0
  4  5  1  0
  5  6  1  0
  6 18  1  0
  6  7  1  0
  6 29  1  1
  7  8  1  0
  7 30  1  0
  7 31  1  0
  8  9  1  0
  8 32  1  1
  9 15  1  0
  9 10  1  0
  9 33  1  1
 10 11  1  0
 10 12  1  0
 10 34  1  1
 11 35  1  0
 12 13  1  0
 12 36  1  0
 12 37  1  0
 13 20  1  0
 13 14  1  0
 13 38  1  6
 14 15  1  0
 14 39  1  0
 14 40  1  0
 15 21  1  0
 15 16  1  6
 16 17  1  0
 16 41  1  0
 16 42  1  0
 17 18  1  0
 17 20  1  0
 17 43  1  6
 18 19  1  1
 19 44  1  0
 19 45  1  0
 19 46  1  0
 20 21  1  0
 20 47  1  6
M  END
>  <i_m_ct_stereo_status>  (185) 
1

>  <s_m_source_file>  (185) 
/var/tmp/pbs.5076255.sched01/tmpbaygurib/766rrai79r.sdf

>  <i_m_source_file_index>  (185) 
4

>  <i_lp_mmshare_version>  (185) 
48012

>  <i_f3d_flags>  (185) 
0

>  <s_epik_input>  (185) 
W0NAXTEyM1tDQEhdNFtDQEhdNVtDQEBdNihbQ0hdKFtDSDNdKVtDSDNdKVtDQF0oW0NIM10pKFtDQEhdKE82KVtDSDJdNSlbQ0BIXShbQ0gyXTIpW0NAQEhdKE8zKVtDQEBIXShbQ0gyXTEpW0NIMl1bQ0BASF00W09IXQ==

>  <s_epik_cmdline>  (185) 
J2VwaWtfcHl0aG9uJywgJy1waHQnLCAnMi4wJywgJy1waCcsICc3LjAnLCAnLXRuJywgJzgnLCAnLW1hJywgJzIwMCcsICctaW1hZScsICc8aW5maWxlLm1hZT4nLCAnLW9tYWUnLCAnPG91dGZpbGUubWFlPic=

>  <r_lp_tautomer_probability>  (185) 
1

>  <r_epik_Ionization_Penalty>  (185) 
2.55101e-07

>  <r_epik_Ionization_Penalty_Charging>  (185) 
0

>  <r_epik_Ionization_Penalty_Neutral>  (185) 
2.55101e-07

>  <r_epik_State_Penalty>  (185) 
-0

>  <r_epik_Charging_Adjusted_Penalty>  (185) 
0

>  <i_epik_Tot_Q>  (185) 
0

>  <i_epik_Tot_abs_Q>  (185) 
0

>  <s_lp_Force_Field>  (185) 
OPLS3e

>  <r_lp_Energy>  (185) 
327.878

>  <b_lp_Chiralities_Consistent>  (185) 
1

>  <s_lp_Variant>  (185) 
58:0-1

>  <s_i_glide_gridfile>  (185) 
pfpi4k_grid

>  <i_i_glide_lignum>  (185) 
4

>  <i_i_glide_rotatable_bonds>  (185) 
2

>  <r_i_docking_score>  (185) 
-3.11363

>  <r_i_glide_ligand_efficiency>  (185) 
-0.148268

>  <r_i_glide_ligand_efficiency_sa>  (185) 
-0.409061

>  <r_i_glide_ligand_efficiency_ln>  (185) 
-0.769839

>  <r_i_glide_gscore>  (185) 
-3.11363

>  <r_i_glide_lipo>  (185) 
-0.687578

>  <r_i_glide_hbond>  (185) 
-0.0695922

>  <r_i_glide_metal>  (185) 
-0

>  <r_i_glide_rewards>  (185) 
-1.42911

>  <r_i_glide_evdw>  (185) 
-12.2473

>  <r_i_glide_ecoul>  (185) 
-2.09991

>  <r_i_glide_erotb>  (185) 
0

>  <r_i_glide_esite>  (185) 
0

>  <r_i_glide_emodel>  (185) 
-12.6741

>  <r_i_glide_energy>  (185) 
-14.3472

>  <r_i_glide_einternal>  (185) 
4.60267

>  <r_i_glide_intrahb_reward>  (185) 
-0

>  <i_i_glide_confnum>  (185) 
1

>  <i_i_glide_posenum>  (185) 
1

>  <r_i_glide_eff_state_penalty>  (185) 
0

>  <ligand_id>  (185) 
58

>  <original_smiles>  (185) 
CC(C)C12OC3CC1C1C(O)CC4CC15CC(C32C)C4O5

>  <smiles>  (185) 
[H]OC1([H])C([H])([H])C2([H])C([H])([H])C34OC2([H])C([H])(C2(C([H])([H])[H])C5([H])OC2(C([H])(C([H])([H])[H])C([H])([H])[H])C([H])(C13[H])C5([H])[H])C4([H])[H]

$$$$
59:0:0
     RDKit          3D

 77 84  0  0  1  0  0  0  0  0999 V2000
    3.8338   -5.1314    6.5422 C   0  0  0  0  0  0  0  0  0  0  0  0
    4.2539   -6.1759    5.4040 C   0  0  0  0  0  0  0  0  0  0  0  0
    5.3900   -5.3592    4.6315 C   0  0  0  0  0  0  0  0  0  0  0  0
    4.9729   -7.2983    6.1599 C   0  0  2  0  0  0  0  0  0  0  0  0
    6.0922   -7.9658    5.2501 C   0  0  0  0  0  0  0  0  0  0  0  0
    5.7267   -8.5653    3.8442 C   0  0  2  0  0  0  0  0  0  0  0  0
    5.6487   -7.8124    2.3933 C   0  0  0  0  0  0  0  0  0  0  0  0
    4.2782   -7.8064    1.5271 C   0  0  2  0  0  0  0  0  0  0  0  0
    3.3132   -6.6020    1.2412 C   0  0  0  0  0  0  0  0  0  0  0  0
    1.6731   -6.7088    1.3582 C   0  0  0  0  0  0  0  0  0  0  0  0
    0.6521   -7.3534    2.4710 C   0  0  0  0  0  0  0  0  0  0  0  0
   -0.5200   -7.7125    1.7581 C   0  0  0  0  0  0  0  0  0  0  0  0
   -1.6465   -8.3175    2.3305 C   0  0  0  0  0  0  0  0  0  0  0  0
   -1.6624   -8.5753    3.6935 C   0  0  0  0  0  0  0  0  0  0  0  0
   -0.5591   -8.2200    4.4703 C   0  0  0  0  0  0  0  0  0  0  0  0
    0.6130   -7.5924    3.9536 C   0  0  0  0  0  0  0  0  0  0  0  0
    1.7158   -7.3659    5.0947 C   0  0  2  0  0  0  0  0  0  0  0  0
    2.0548   -8.5545    5.8828 N   0  0  0  0  0  0  0  0  0  0  0  0
    2.6522   -8.0194    6.9626 C   0  0  0  0  0  0  0  0  0  0  0  0
    1.9057   -7.1344    7.5068 N   0  0  0  0  0  0  0  0  0  0  0  0
    1.1739   -6.6701    6.3984 C   0  0  0  0  0  0  0  0  0  0  0  0
    0.2452   -5.8854    6.4242 O   0  0  0  0  0  0  0  0  0  0  0  0
    4.0737   -8.1281    7.0386 N   0  0  0  0  0  0  0  0  0  0  0  0
    3.0630   -6.8094    4.4419 C   0  0  1  0  0  0  0  0  0  0  0  0
    2.5890   -5.4418    3.7726 C   0  0  0  0  0  0  0  0  0  0  0  0
    2.9191   -4.1346    3.9639 C   0  0  0  0  0  0  0  0  0  0  0  0
    2.5066   -2.9994    3.0995 C   0  0  2  0  0  0  0  0  0  0  0  0
    3.6691   -1.9801    3.0176 C   0  0  0  0  0  0  0  0  0  0  0  0
    3.2982   -0.8332    2.2785 O   0  0  0  0  0  0  0  0  0  0  0  0
    2.1339   -0.2272    2.6888 C   0  0  0  0  0  0  0  0  0  0  0  0
    1.9215    1.1175    2.3323 C   0  0  0  0  0  0  0  0  0  0  0  0
    0.7605    1.7872    2.7471 C   0  0  0  0  0  0  0  0  0  0  0  0
   -0.2094    1.1219    3.5186 C   0  0  0  0  0  0  0  0  0  0  0  0
   -0.0234   -0.2218    3.8724 C   0  0  0  0  0  0  0  0  0  0  0  0
    1.1364   -0.9073    3.4418 C   0  0  0  0  0  0  0  0  0  0  0  0
    1.2907   -2.3327    3.7596 C   0  0  0  0  0  0  0  0  0  0  0  0
    0.5245   -2.9653    4.4953 O   0  0  0  0  0  0  0  0  0  0  0  0
    3.3526   -8.3571    3.6427 C   0  0  1  0  0  0  0  0  0  0  0  0
    3.3699   -8.7467    2.1499 C   0  0  0  0  0  0  0  0  0  0  0  0
    4.4658   -9.2956    4.1469 C   0  0  0  0  0  0  0  0  0  0  0  0
    4.5539   -4.3172    6.6284 H   0  0  0  0  0  0  0  0  0  0  0  0
    3.7567   -5.5184    7.5483 H   0  0  0  0  0  0  0  0  0  0  0  0
    2.8683   -4.6439    6.3583 H   0  0  0  0  0  0  0  0  0  0  0  0
    5.5380   -5.7124    3.6327 H   0  0  0  0  0  0  0  0  0  0  0  0
    6.3227   -5.3071    5.1831 H   0  0  0  0  0  0  0  0  0  0  0  0
    5.2265   -4.3094    4.4483 H   0  0  0  0  0  0  0  0  0  0  0  0
    5.5724   -6.7853    6.9101 H   0  0  0  0  0  0  0  0  0  0  0  0
    6.9337   -7.2947    5.1031 H   0  0  0  0  0  0  0  0  0  0  0  0
    6.5420   -8.7543    5.8540 H   0  0  0  0  0  0  0  0  0  0  0  0
    6.5027   -9.3186    3.7022 H   0  0  0  0  0  0  0  0  0  0  0  0
    6.2602   -6.9243    2.2832 H   0  0  0  0  0  0  0  0  0  0  0  0
    6.2708   -8.4742    1.7881 H   0  0  0  0  0  0  0  0  0  0  0  0
    4.5470   -8.2084    0.5485 H   0  0  0  0  0  0  0  0  0  0  0  0
    3.7452   -5.6755    1.6031 H   0  0  0  0  0  0  0  0  0  0  0  0
    3.4318   -6.4485    0.1631 H   0  0  0  0  0  0  0  0  0  0  0  0
    1.3079   -5.6880    1.2029 H   0  0  0  0  0  0  0  0  0  0  0  0
    1.3988   -7.1354    0.4218 H   0  0  0  0  0  0  0  0  0  0  0  0
   -0.5894   -7.5441    0.6964 H   0  0  0  0  0  0  0  0  0  0  0  0
   -2.4856   -8.5879    1.7145 H   0  0  0  0  0  0  0  0  0  0  0  0
   -2.5249   -9.0631    4.1307 H   0  0  0  0  0  0  0  0  0  0  0  0
   -0.6408   -8.4785    5.5184 H   0  0  0  0  0  0  0  0  0  0  0  0
    1.1960   -9.0882    6.0474 H   0  0  0  0  0  0  0  0  0  0  0  0
    4.3977   -7.9870    7.9800 H   0  0  0  0  0  0  0  0  0  0  0  0
    1.8196   -5.4146    3.0781 H   0  0  0  0  0  0  0  0  0  0  0  0
    3.5284   -3.7330    4.7744 H   0  0  0  0  0  0  0  0  0  0  0  0
    2.2376   -3.3499    2.0872 H   0  0  0  0  0  0  0  0  0  0  0  0
    4.0090   -1.6541    4.0080 H   0  0  0  0  0  0  0  0  0  0  0  0
    4.5493   -2.4319    2.5579 H   0  0  0  0  0  0  0  0  0  0  0  0
    2.6665    1.6371    1.7454 H   0  0  0  0  0  0  0  0  0  0  0  0
    0.6095    2.8230    2.4790 H   0  0  0  0  0  0  0  0  0  0  0  0
   -1.1038    1.6358    3.8344 H   0  0  0  0  0  0  0  0  0  0  0  0
   -0.7710   -0.7423    4.4508 H   0  0  0  0  0  0  0  0  0  0  0  0
    2.5288   -9.0609    3.7423 H   0  0  0  0  0  0  0  0  0  0  0  0
    2.4131   -8.8996    1.6609 H   0  0  0  0  0  0  0  0  0  0  0  0
    3.7510   -9.7427    1.9258 H   0  0  0  0  0  0  0  0  0  0  0  0
    4.4970  -10.2770    3.6664 H   0  0  0  0  0  0  0  0  0  0  0  0
    4.3517   -9.6215    5.1742 H   0  0  0  0  0  0  0  0  0  0  0  0
  1  2  1  0
  1 41  1  0
  1 42  1  0
  1 43  1  0
  2 24  1  0
  2  3  1  0
  2  4  1  0
  3 44  1  0
  3 45  1  0
  3 46  1  0
  4 23  1  0
  4  5  1  0
  4 47  1  1
  5  6  1  0
  5 48  1  0
  5 49  1  0
  6 40  1  0
  6  7  1  0
  6 50  1  6
  7  8  1  0
  7 51  1  0
  7 52  1  0
  8 39  1  0
  8  9  1  0
  8 53  1  6
  9 10  1  0
  9 54  1  0
  9 55  1  0
 10 11  1  0
 10 56  1  0
 10 57  1  0
 11 16  2  0
 11 12  1  0
 12 13  2  0
 12 58  1  0
 13 14  1  0
 13 59  1  0
 14 15  2  0
 14 60  1  0
 15 16  1  0
 15 61  1  0
 16 17  1  0
 17 21  1  1
 17 18  1  0
 17 24  1  0
 18 19  1  0
 18 62  1  0
 19 20  2  0
 19 23  1  0
 20 21  1  0
 21 22  2  0
 23 63  1  0
 24 25  1  6
 24 38  1  0
 25 26  2  3
 25 64  1  0
 26 27  1  0
 26 65  1  0
 27 36  1  0
 27 28  1  0
 27 66  1  6
 28 29  1  0
 28 67  1  0
 28 68  1  0
 29 30  1  0
 30 35  2  0
 30 31  1  0
 31 32  2  0
 31 69  1  0
 32 33  1  0
 32 70  1  0
 33 34  2  0
 33 71  1  0
 34 35  1  0
 34 72  1  0
 35 36  1  0
 36 37  2  0
 38 39  1  0
 38 40  1  0
 38 73  1  1
 39 74  1  0
 39 75  1  0
 40 76  1  0
 40 77  1  0
M  END
>  <i_m_ct_stereo_status>  (186) 
1

>  <s_m_source_file>  (186) 
/var/tmp/pbs.5076255.sched01/tmpbaygurib/766rrai79r.sdf

>  <i_m_source_file_index>  (186) 
5

>  <i_lp_mmshare_version>  (186) 
48012

>  <i_f3d_flags>  (186) 
0

>  <s_epik_input>  (186) 
W2NIXTFbY0hdW2NIXVtjSF1jKGMxMilDKD1PKVtDQEBIXShbQ0gyXU8yKVxbQ0hdPVtDSF1cW0NAQF0zKFtDQEBIXShbQ0gyXTQpW0NIMl01KUMoW0NIM10pKFtDSDNdKVtDSF0oW05IXUMoW05IXTYpPU5DNz1PKVtDSDJdW0NAQEhdNVtDSDJdW0NAQEhdNFtDSDJdW0NIMl1jKGM4W0NAXTM2NylbY0hdW2NIXVtjSF1bY0hdOA==

>  <s_epik_cmdline>  (186) 
J2VwaWtfcHl0aG9uJywgJy1waHQnLCAnMi4wJywgJy1waCcsICc3LjAnLCAnLXRuJywgJzgnLCAnLW1hJywgJzIwMCcsICctaW1hZScsICc8aW5maWxlLm1hZT4nLCAnLW9tYWUnLCAnPG91dGZpbGUubWFlPic=

>  <r_lp_tautomer_probability>  (186) 
0.999931

>  <r_epik_Ionization_Penalty>  (186) 
0.00524681

>  <r_epik_Ionization_Penalty_Charging>  (186) 
0

>  <r_epik_Ionization_Penalty_Neutral>  (186) 
0.00524681

>  <r_epik_State_Penalty>  (186) 
1.98605e-08

>  <r_epik_Charging_Adjusted_Penalty>  (186) 
1.98605e-08

>  <i_epik_Tot_Q>  (186) 
0

>  <i_epik_Tot_abs_Q>  (186) 
0

>  <s_epik_Chemistry_Notes>  (186) 
This compound has an imine and may undergo hydrolysis.

>  <s_lp_Force_Field>  (186) 
OPLS3e

>  <r_lp_Energy>  (186) 
330.464

>  <b_lp_Chiralities_Consistent>  (186) 
1

>  <s_lp_Variant>  (186) 
59:0-1

>  <s_i_glide_gridfile>  (186) 
pfpi4k_grid

>  <i_i_glide_lignum>  (186) 
5

>  <i_i_glide_rotatable_bonds>  (186) 
2

>  <r_i_docking_score>  (186) 
-1.95281

>  <r_i_glide_ligand_efficiency>  (186) 
-0.0488202

>  <r_i_glide_ligand_efficiency_sa>  (186) 
-0.166963

>  <r_i_glide_ligand_efficiency_ln>  (186) 
-0.416477

>  <r_i_glide_gscore>  (186) 
-1.95281

>  <r_i_glide_lipo>  (186) 
-0.201902

>  <r_i_glide_hbond>  (186) 
0

>  <r_i_glide_metal>  (186) 
-0

>  <r_i_glide_rewards>  (186) 
-0.0502179

>  <r_i_glide_evdw>  (186) 
-33.0667

>  <r_i_glide_ecoul>  (186) 
-1.14189

>  <r_i_glide_erotb>  (186) 
0.143899

>  <r_i_glide_esite>  (186) 
-0.0199723

>  <r_i_glide_emodel>  (186) 
-25.1618

>  <r_i_glide_energy>  (186) 
-34.2086

>  <r_i_glide_einternal>  (186) 
20.473

>  <r_i_glide_intrahb_reward>  (186) 
-0

>  <i_i_glide_confnum>  (186) 
4

>  <i_i_glide_posenum>  (186) 
24

>  <r_i_glide_eff_state_penalty>  (186) 
0

>  <ligand_id>  (186) 
59

>  <original_smiles>  (186) 
CC1(C)C2CC3CC4CCc5ccccc5C5(NC(=NC5=O)N2)C1(C=CC1COc2ccccc2C1=O)C(C4)C3

>  <smiles>  (186) 
[H]C(=C([H])C12C34C(=O)N=C(N3[H])N([H])C([H])(C([H])([H])C3([H])C([H])([H])C([H])(C([H])([H])C([H])([H])c5c([H])c([H])c([H])c([H])c54)C([H])([H])C1([H])C3([H])[H])C2(C([H])([H])[H])C([H])([H])[H])C1([H])C(=O)c2c([H])c([H])c([H])c([H])c2OC1([H])[H]

$$$$
59:1:0
     RDKit          3D

 77 84  0  0  1  0  0  0  0  0999 V2000
   -0.0155   -7.6849    3.6104 C   0  0  0  0  0  0  0  0  0  0  0  0
    0.8216   -7.7811    4.9526 C   0  0  0  0  0  0  0  0  0  0  0  0
    0.4106   -6.3366    5.4698 C   0  0  0  0  0  0  0  0  0  0  0  0
    0.1281   -8.7646    5.8905 C   0  0  2  0  0  0  0  0  0  0  0  0
    0.4079   -8.3278    7.4019 C   0  0  0  0  0  0  0  0  0  0  0  0
    1.8744   -8.0735    7.9256 C   0  0  2  0  0  0  0  0  0  0  0  0
    2.8559   -6.7587    7.7895 C   0  0  0  0  0  0  0  0  0  0  0  0
    4.3489   -6.8988    7.1604 C   0  0  2  0  0  0  0  0  0  0  0  0
    5.0238   -6.1989    5.9181 C   0  0  0  0  0  0  0  0  0  0  0  0
    5.5311   -6.9336    4.5490 C   0  0  0  0  0  0  0  0  0  0  0  0
    5.5087   -8.4659    4.0501 C   0  0  0  0  0  0  0  0  0  0  0  0
    6.8473   -8.9123    3.8755 C   0  0  0  0  0  0  0  0  0  0  0  0
    7.1946  -10.1344    3.2910 C   0  0  0  0  0  0  0  0  0  0  0  0
    6.1940  -10.9800    2.8181 C   0  0  0  0  0  0  0  0  0  0  0  0
    4.8541  -10.6168    2.9969 C   0  0  0  0  0  0  0  0  0  0  0  0
    4.4404   -9.4110    3.6222 C   0  0  0  0  0  0  0  0  0  0  0  0
    2.8607   -9.3832    3.8752 C   0  0  2  0  0  0  0  0  0  0  0  0
    2.3859  -10.5748    4.5775 N   0  0  0  0  0  0  0  0  0  0  0  0
    1.0465  -10.5409    4.3639 C   0  0  0  0  0  0  0  0  0  0  0  0
    0.7874  -10.4296    3.1143 N   0  0  0  0  0  0  0  0  0  0  0  0
    1.9658   -9.8329    2.6620 C   0  0  0  0  0  0  0  0  0  0  0  0
    2.3185   -9.7396    1.4922 O   0  0  0  0  0  0  0  0  0  0  0  0
    0.2218  -10.1965    5.4388 N   0  0  0  0  0  0  0  0  0  0  0  0
    2.4498   -8.1670    4.8348 C   0  0  1  0  0  0  0  0  0  0  0  0
    2.7881   -6.7654    4.2744 C   0  0  0  0  0  0  0  0  0  0  0  0
    3.0300   -6.1739    3.0742 C   0  0  0  0  0  0  0  0  0  0  0  0
    3.1446   -6.6862    1.6460 C   0  0  2  0  0  0  0  0  0  0  0  0
    4.6045   -6.8496    1.1635 C   0  0  0  0  0  0  0  0  0  0  0  0
    5.3006   -5.6144    1.1907 O   0  0  0  0  0  0  0  0  0  0  0  0
    4.6979   -4.5975    0.4958 C   0  0  0  0  0  0  0  0  0  0  0  0
    5.5006   -3.5201    0.0738 C   0  0  0  0  0  0  0  0  0  0  0  0
    4.9413   -2.4774   -0.6857 C   0  0  0  0  0  0  0  0  0  0  0  0
    3.5732   -2.5064   -1.0151 C   0  0  0  0  0  0  0  0  0  0  0  0
    2.7604   -3.5672   -0.5753 C   0  0  0  0  0  0  0  0  0  0  0  0
    3.3055   -4.6098    0.1996 C   0  0  0  0  0  0  0  0  0  0  0  0
    2.4444   -5.7121    0.7061 C   0  0  0  0  0  0  0  0  0  0  0  0
    1.2514   -5.8538    0.4334 O   0  0  0  0  0  0  0  0  0  0  0  0
    3.3052   -8.8065    6.2082 C   0  0  1  0  0  0  0  0  0  0  0  0
    4.5828   -8.2970    6.8866 C   0  0  0  0  0  0  0  0  0  0  0  0
    2.5375   -9.3001    7.4212 C   0  0  0  0  0  0  0  0  0  0  0  0
   -0.7219   -6.8514    3.5588 H   0  0  0  0  0  0  0  0  0  0  0  0
   -0.6956   -8.5260    3.4720 H   0  0  0  0  0  0  0  0  0  0  0  0
    0.5970   -7.5832    2.7179 H   0  0  0  0  0  0  0  0  0  0  0  0
    0.8852   -6.0094    6.3683 H   0  0  0  0  0  0  0  0  0  0  0  0
   -0.6598   -6.2803    5.6907 H   0  0  0  0  0  0  0  0  0  0  0  0
    0.5880   -5.5405    4.7412 H   0  0  0  0  0  0  0  0  0  0  0  0
   -0.9427   -8.6048    5.7701 H   0  0  0  0  0  0  0  0  0  0  0  0
   -0.1825   -7.4546    7.6791 H   0  0  0  0  0  0  0  0  0  0  0  0
   -0.0332   -9.1056    8.0226 H   0  0  0  0  0  0  0  0  0  0  0  0
    1.7630   -8.1967    8.9949 H   0  0  0  0  0  0  0  0  0  0  0  0
    2.3993   -5.8047    7.5712 H   0  0  0  0  0  0  0  0  0  0  0  0
    3.1046   -6.5928    8.8471 H   0  0  0  0  0  0  0  0  0  0  0  0
    5.0124   -6.6260    7.9748 H   0  0  0  0  0  0  0  0  0  0  0  0
    4.5422   -5.2471    5.6919 H   0  0  0  0  0  0  0  0  0  0  0  0
    5.9619   -5.8283    6.3308 H   0  0  0  0  0  0  0  0  0  0  0  0
    5.3083   -6.2780    3.7193 H   0  0  0  0  0  0  0  0  0  0  0  0
    6.5823   -6.6531    4.5623 H   0  0  0  0  0  0  0  0  0  0  0  0
    7.6828   -8.2892    4.1615 H   0  0  0  0  0  0  0  0  0  0  0  0
    8.2326  -10.4024    3.1868 H   0  0  0  0  0  0  0  0  0  0  0  0
    6.4467  -11.9120    2.3368 H   0  0  0  0  0  0  0  0  0  0  0  0
    4.1349  -11.3374    2.6260 H   0  0  0  0  0  0  0  0  0  0  0  0
    2.8559  -11.3726    4.1794 H   0  0  0  0  0  0  0  0  0  0  0  0
   -0.7434  -10.5668    5.3110 H   0  0  0  0  0  0  0  0  0  0  0  0
    2.7899   -6.0482    5.0680 H   0  0  0  0  0  0  0  0  0  0  0  0
    3.1728   -5.1060    3.1423 H   0  0  0  0  0  0  0  0  0  0  0  0
    2.6128   -7.6099    1.5637 H   0  0  0  0  0  0  0  0  0  0  0  0
    5.1640   -7.5525    1.7681 H   0  0  0  0  0  0  0  0  0  0  0  0
    4.6455   -7.2790    0.1644 H   0  0  0  0  0  0  0  0  0  0  0  0
    6.5516   -3.5080    0.3240 H   0  0  0  0  0  0  0  0  0  0  0  0
    5.5576   -1.6603   -1.0206 H   0  0  0  0  0  0  0  0  0  0  0  0
    3.1321   -1.7126   -1.5934 H   0  0  0  0  0  0  0  0  0  0  0  0
    1.7125   -3.5682   -0.8355 H   0  0  0  0  0  0  0  0  0  0  0  0
    3.8611   -9.7120    5.9953 H   0  0  0  0  0  0  0  0  0  0  0  0
    5.5240   -8.5237    6.4137 H   0  0  0  0  0  0  0  0  0  0  0  0
    4.8170   -8.7689    7.8362 H   0  0  0  0  0  0  0  0  0  0  0  0
    3.1432   -9.7261    8.2173 H   0  0  0  0  0  0  0  0  0  0  0  0
    1.8852  -10.1428    7.2143 H   0  0  0  0  0  0  0  0  0  0  0  0
  1  2  1  0
  1 41  1  0
  1 42  1  0
  1 43  1  0
  2 24  1  0
  2  3  1  0
  2  4  1  0
  3 44  1  0
  3 45  1  0
  3 46  1  0
  4 23  1  0
  4  5  1  0
  4 47  1  6
  5  6  1  0
  5 48  1  0
  5 49  1  0
  6 40  1  0
  6  7  1  0
  6 50  1  1
  7  8  1  0
  7 51  1  0
  7 52  1  0
  8 39  1  0
  8  9  1  0
  8 53  1  1
  9 10  1  0
  9 54  1  0
  9 55  1  0
 10 11  1  0
 10 56  1  0
 10 57  1  0
 11 16  2  0
 11 12  1  0
 12 13  2  0
 12 58  1  0
 13 14  1  0
 13 59  1  0
 14 15  2  0
 14 60  1  0
 15 16  1  0
 15 61  1  0
 16 17  1  0
 17 21  1  6
 17 18  1  0
 17 24  1  0
 18 19  1  0
 18 62  1  0
 19 20  2  0
 19 23  1  0
 20 21  1  0
 21 22  2  0
 23 63  1  0
 24 25  1  6
 24 38  1  0
 25 26  2  3
 25 64  1  0
 26 27  1  0
 26 65  1  0
 27 36  1  0
 27 28  1  0
 27 66  1  1
 28 29  1  0
 28 67  1  0
 28 68  1  0
 29 30  1  0
 30 35  2  0
 30 31  1  0
 31 32  2  0
 31 69  1  0
 32 33  1  0
 32 70  1  0
 33 34  2  0
 33 71  1  0
 34 35  1  0
 34 72  1  0
 35 36  1  0
 36 37  2  0
 38 39  1  0
 38 40  1  0
 38 73  1  6
 39 74  1  0
 39 75  1  0
 40 76  1  0
 40 77  1  0
M  END
>  <i_m_ct_stereo_status>  (187) 
1

>  <s_m_source_file>  (187) 
/var/tmp/pbs.5076255.sched01/tmpbaygurib/766rrai79r.sdf

>  <i_m_source_file_index>  (187) 
6

>  <i_lp_mmshare_version>  (187) 
48012

>  <i_f3d_flags>  (187) 
0

>  <s_epik_input>  (187) 
W2NIXTFbY0hdW2NIXVtjSF1jKGMxMilDKD1PKVtDQEBIXShbQ0gyXU8yKVxbQ0hdPVtDSF1cW0NAQF0zKFtDQEBIXShbQ0gyXTQpW0NIMl01KUMoW0NIM10pKFtDSDNdKVtDSF0oW05IXUMoW05IXTYpPU5DNz1PKVtDSDJdW0NAQEhdNVtDSDJdW0NAQEhdNFtDSDJdW0NIMl1jKGM4W0NAXTM2NylbY0hdW2NIXVtjSF1bY0hdOA==

>  <s_epik_cmdline>  (187) 
J2VwaWtfcHl0aG9uJywgJy1waHQnLCAnMi4wJywgJy1waCcsICc3LjAnLCAnLXRuJywgJzgnLCAnLW1hJywgJzIwMCcsICctaW1hZScsICc8aW5maWxlLm1hZT4nLCAnLW9tYWUnLCAnPG91dGZpbGUubWFlPic=

>  <r_lp_tautomer_probability>  (187) 
0.999931

>  <r_epik_Ionization_Penalty>  (187) 
0.00524681

>  <r_epik_Ionization_Penalty_Charging>  (187) 
0

>  <r_epik_Ionization_Penalty_Neutral>  (187) 
0.00524681

>  <r_epik_State_Penalty>  (187) 
1.98605e-08

>  <r_epik_Charging_Adjusted_Penalty>  (187) 
1.98605e-08

>  <i_epik_Tot_Q>  (187) 
0

>  <i_epik_Tot_abs_Q>  (187) 
0

>  <s_epik_Chemistry_Notes>  (187) 
This compound has an imine and may undergo hydrolysis.

>  <s_lp_Force_Field>  (187) 
OPLS3e

>  <r_lp_Energy>  (187) 
346.918

>  <b_lp_Chiralities_Consistent>  (187) 
1

>  <s_lp_Variant>  (187) 
59:0-2

>  <s_i_glide_gridfile>  (187) 
pfpi4k_grid

>  <i_i_glide_lignum>  (187) 
6

>  <i_i_glide_rotatable_bonds>  (187) 
2

>  <r_i_docking_score>  (187) 
-3.45428

>  <r_i_glide_ligand_efficiency>  (187) 
-0.0863569

>  <r_i_glide_ligand_efficiency_sa>  (187) 
-0.295337

>  <r_i_glide_ligand_efficiency_ln>  (187) 
-0.736696

>  <r_i_glide_gscore>  (187) 
-3.45428

>  <r_i_glide_lipo>  (187) 
-0.279109

>  <r_i_glide_hbond>  (187) 
-0.318788

>  <r_i_glide_metal>  (187) 
-0

>  <r_i_glide_rewards>  (187) 
-0.0887645

>  <r_i_glide_evdw>  (187) 
-32.9969

>  <r_i_glide_ecoul>  (187) 
-7.31114

>  <r_i_glide_erotb>  (187) 
0.143899

>  <r_i_glide_esite>  (187) 
-0.165

>  <r_i_glide_emodel>  (187) 
-47.8408

>  <r_i_glide_energy>  (187) 
-40.308

>  <r_i_glide_einternal>  (187) 
2.01258

>  <r_i_glide_intrahb_reward>  (187) 
-0

>  <i_i_glide_confnum>  (187) 
2

>  <i_i_glide_posenum>  (187) 
5

>  <r_i_glide_eff_state_penalty>  (187) 
0

>  <ligand_id>  (187) 
59

>  <original_smiles>  (187) 
CC1(C)C2CC3CC4CCc5ccccc5C5(NC(=NC5=O)N2)C1(C=CC1COc2ccccc2C1=O)C(C4)C3

>  <smiles>  (187) 
[H]C(=C([H])C12C34C(=O)N=C(N3[H])N([H])C([H])(C([H])([H])C3([H])C([H])([H])C([H])(C([H])([H])C([H])([H])c5c([H])c([H])c([H])c([H])c54)C([H])([H])C1([H])C3([H])[H])C2(C([H])([H])[H])C([H])([H])[H])C1([H])C(=O)c2c([H])c([H])c([H])c([H])c2OC1([H])[H]

$$$$
59:1:1
     RDKit          3D

 77 84  0  0  1  0  0  0  0  0999 V2000
    3.3653   -8.6112    1.4599 C   0  0  0  0  0  0  0  0  0  0  0  0
    3.4434   -9.1167    2.9558 C   0  0  0  0  0  0  0  0  0  0  0  0
    1.8945   -8.9188    3.2550 C   0  0  0  0  0  0  0  0  0  0  0  0
    3.6668  -10.6190    2.9431 C   0  0  2  0  0  0  0  0  0  0  0  0
    2.9871  -11.2782    4.2159 C   0  0  0  0  0  0  0  0  0  0  0  0
    3.3165  -10.7386    5.6623 C   0  0  2  0  0  0  0  0  0  0  0  0
    2.7151   -9.4530    6.4986 C   0  0  0  0  0  0  0  0  0  0  0  0
    3.7086   -8.3222    7.1229 C   0  0  2  0  0  0  0  0  0  0  0  0
    3.7974   -6.7553    6.8906 C   0  0  0  0  0  0  0  0  0  0  0  0
    5.0225   -5.9354    6.1694 C   0  0  0  0  0  0  0  0  0  0  0  0
    6.4448   -6.3907    5.5692 C   0  0  0  0  0  0  0  0  0  0  0  0
    7.4893   -5.8243    6.3541 C   0  0  0  0  0  0  0  0  0  0  0  0
    8.8472   -5.8914    6.0194 C   0  0  0  0  0  0  0  0  0  0  0  0
    9.2310   -6.5418    4.8471 C   0  0  0  0  0  0  0  0  0  0  0  0
    8.2580   -7.1562    4.0529 C   0  0  0  0  0  0  0  0  0  0  0  0
    6.8645   -7.1500    4.3584 C   0  0  0  0  0  0  0  0  0  0  0  0
    6.0457   -8.1399    3.4103 C   0  0  2  0  0  0  0  0  0  0  0  0
    6.6346   -9.4744    3.3691 N   0  0  0  0  0  0  0  0  0  0  0  0
    6.0416  -10.0316    2.2815 C   0  0  0  0  0  0  0  0  0  0  0  0
    6.1891   -9.2818    1.2564 N   0  0  0  0  0  0  0  0  0  0  0  0
    6.3720   -8.0409    1.8662 C   0  0  0  0  0  0  0  0  0  0  0  0
    6.8164   -7.0347    1.3198 O   0  0  0  0  0  0  0  0  0  0  0  0
    5.0440  -11.0134    2.4792 N   0  0  0  0  0  0  0  0  0  0  0  0
    4.5583   -8.3902    3.9700 C   0  0  1  0  0  0  0  0  0  0  0  0
    3.6897   -7.1184    4.0657 C   0  0  0  0  0  0  0  0  0  0  0  0
    3.5859   -5.9002    3.4704 C   0  0  0  0  0  0  0  0  0  0  0  0
    4.3436   -5.1973    2.3657 C   0  0  2  0  0  0  0  0  0  0  0  0
    5.0253   -3.9116    2.8632 C   0  0  0  0  0  0  0  0  0  0  0  0
    5.7348   -3.2571    1.8183 O   0  0  0  0  0  0  0  0  0  0  0  0
    5.0110   -3.0034    0.6726 C   0  0  0  0  0  0  0  0  0  0  0  0
    5.4430   -1.9642   -0.1754 C   0  0  0  0  0  0  0  0  0  0  0  0
    4.7188   -1.6497   -1.3451 C   0  0  0  0  0  0  0  0  0  0  0  0
    3.5632   -2.3824   -1.6741 C   0  0  0  0  0  0  0  0  0  0  0  0
    3.1354   -3.4319   -0.8439 C   0  0  0  0  0  0  0  0  0  0  0  0
    3.8551   -3.7522    0.3281 C   0  0  0  0  0  0  0  0  0  0  0  0
    3.4002   -4.8609    1.1964 C   0  0  0  0  0  0  0  0  0  0  0  0
    2.3516   -5.4901    1.0056 O   0  0  0  0  0  0  0  0  0  0  0  0
    5.0955   -9.2105    5.4107 C   0  0  1  0  0  0  0  0  0  0  0  0
    5.0674   -8.7392    6.8715 C   0  0  0  0  0  0  0  0  0  0  0  0
    4.7974  -10.6926    5.6022 C   0  0  0  0  0  0  0  0  0  0  0  0
    2.3549   -8.4825    1.0647 H   0  0  0  0  0  0  0  0  0  0  0  0
    3.7909   -9.3067    0.7390 H   0  0  0  0  0  0  0  0  0  0  0  0
    3.8400   -7.6514    1.3088 H   0  0  0  0  0  0  0  0  0  0  0  0
    1.5785   -9.1131    4.2585 H   0  0  0  0  0  0  0  0  0  0  0  0
    1.2807   -9.5852    2.6454 H   0  0  0  0  0  0  0  0  0  0  0  0
    1.5229   -7.9153    3.0241 H   0  0  0  0  0  0  0  0  0  0  0  0
    3.0751  -11.0150    2.1173 H   0  0  0  0  0  0  0  0  0  0  0  0
    1.9046  -11.3275    4.0975 H   0  0  0  0  0  0  0  0  0  0  0  0
    3.2561  -12.3351    4.1852 H   0  0  0  0  0  0  0  0  0  0  0  0
    3.0507  -11.5909    6.2786 H   0  0  0  0  0  0  0  0  0  0  0  0
    1.7512   -9.0606    6.2005 H   0  0  0  0  0  0  0  0  0  0  0  0
    2.3917   -9.9663    7.4116 H   0  0  0  0  0  0  0  0  0  0  0  0
    3.5489   -8.4024    8.1984 H   0  0  0  0  0  0  0  0  0  0  0  0
    2.8321   -6.3576    6.5803 H   0  0  0  0  0  0  0  0  0  0  0  0
    3.8177   -6.3656    7.9119 H   0  0  0  0  0  0  0  0  0  0  0  0
    4.6236   -5.1720    5.5147 H   0  0  0  0  0  0  0  0  0  0  0  0
    5.2690   -5.2475    6.9753 H   0  0  0  0  0  0  0  0  0  0  0  0
    7.2712   -5.2868    7.2648 H   0  0  0  0  0  0  0  0  0  0  0  0
    9.5866   -5.4245    6.6503 H   0  0  0  0  0  0  0  0  0  0  0  0
   10.2709   -6.5789    4.5647 H   0  0  0  0  0  0  0  0  0  0  0  0
    8.6365   -7.6755    3.1831 H   0  0  0  0  0  0  0  0  0  0  0  0
    7.6309   -9.3555    3.2968 H   0  0  0  0  0  0  0  0  0  0  0  0
    4.8512  -11.5499    1.6165 H   0  0  0  0  0  0  0  0  0  0  0  0
    2.8981   -7.2758    4.7688 H   0  0  0  0  0  0  0  0  0  0  0  0
    2.7846   -5.2864    3.8515 H   0  0  0  0  0  0  0  0  0  0  0  0
    5.0965   -5.8529    1.9871 H   0  0  0  0  0  0  0  0  0  0  0  0
    4.2983   -3.2236    3.2918 H   0  0  0  0  0  0  0  0  0  0  0  0
    5.7462   -4.1452    3.6489 H   0  0  0  0  0  0  0  0  0  0  0  0
    6.3178   -1.3910    0.0864 H   0  0  0  0  0  0  0  0  0  0  0  0
    5.0365   -0.8408   -1.9837 H   0  0  0  0  0  0  0  0  0  0  0  0
    2.9951   -2.1385   -2.5579 H   0  0  0  0  0  0  0  0  0  0  0  0
    2.2481   -3.9896   -1.1123 H   0  0  0  0  0  0  0  0  0  0  0  0
    6.1740   -9.2455    5.5184 H   0  0  0  0  0  0  0  0  0  0  0  0
    5.8307   -8.0381    7.1795 H   0  0  0  0  0  0  0  0  0  0  0  0
    5.2981   -9.5110    7.6032 H   0  0  0  0  0  0  0  0  0  0  0  0
    5.1986  -11.1416    6.5085 H   0  0  0  0  0  0  0  0  0  0  0  0
    5.2610  -11.3397    4.8656 H   0  0  0  0  0  0  0  0  0  0  0  0
  1  2  1  0
  1 41  1  0
  1 42  1  0
  1 43  1  0
  2 24  1  0
  2  3  1  0
  2  4  1  0
  3 44  1  0
  3 45  1  0
  3 46  1  0
  4 23  1  0
  4  5  1  0
  4 47  1  6
  5  6  1  0
  5 48  1  0
  5 49  1  0
  6 40  1  0
  6  7  1  0
  6 50  1  1
  7  8  1  0
  7 51  1  0
  7 52  1  0
  8 39  1  0
  8  9  1  0
  8 53  1  1
  9 10  1  0
  9 54  1  0
  9 55  1  0
 10 11  1  0
 10 56  1  0
 10 57  1  0
 11 16  2  0
 11 12  1  0
 12 13  2  0
 12 58  1  0
 13 14  1  0
 13 59  1  0
 14 15  2  0
 14 60  1  0
 15 16  1  0
 15 61  1  0
 16 17  1  0
 17 21  1  6
 17 18  1  0
 17 24  1  0
 18 19  1  0
 18 62  1  0
 19 20  2  0
 19 23  1  0
 20 21  1  0
 21 22  2  0
 23 63  1  0
 24 25  1  1
 24 38  1  0
 25 26  2  3
 25 64  1  0
 26 27  1  0
 26 65  1  0
 27 36  1  0
 27 28  1  0
 27 66  1  6
 28 29  1  0
 28 67  1  0
 28 68  1  0
 29 30  1  0
 30 35  2  0
 30 31  1  0
 31 32  2  0
 31 69  1  0
 32 33  1  0
 32 70  1  0
 33 34  2  0
 33 71  1  0
 34 35  1  0
 34 72  1  0
 35 36  1  0
 36 37  2  0
 38 39  1  0
 38 40  1  0
 38 73  1  6
 39 74  1  0
 39 75  1  0
 40 76  1  0
 40 77  1  0
M  END
>  <i_m_ct_stereo_status>  (188) 
1

>  <s_m_source_file>  (188) 
/var/tmp/pbs.5076255.sched01/tmpbaygurib/766rrai79r.sdf

>  <i_m_source_file_index>  (188) 
6

>  <i_lp_mmshare_version>  (188) 
48012

>  <i_f3d_flags>  (188) 
0

>  <s_epik_input>  (188) 
W2NIXTFbY0hdW2NIXVtjSF1jKGMxMilDKD1PKVtDQEBIXShbQ0gyXU8yKVxbQ0hdPVtDSF1cW0NAQF0zKFtDQEBIXShbQ0gyXTQpW0NIMl01KUMoW0NIM10pKFtDSDNdKVtDSF0oW05IXUMoW05IXTYpPU5DNz1PKVtDSDJdW0NAQEhdNVtDSDJdW0NAQEhdNFtDSDJdW0NIMl1jKGM4W0NAXTM2NylbY0hdW2NIXVtjSF1bY0hdOA==

>  <s_epik_cmdline>  (188) 
J2VwaWtfcHl0aG9uJywgJy1waHQnLCAnMi4wJywgJy1waCcsICc3LjAnLCAnLXRuJywgJzgnLCAnLW1hJywgJzIwMCcsICctaW1hZScsICc8aW5maWxlLm1hZT4nLCAnLW9tYWUnLCAnPG91dGZpbGUubWFlPic=

>  <r_lp_tautomer_probability>  (188) 
0.999931

>  <r_epik_Ionization_Penalty>  (188) 
0.00524681

>  <r_epik_Ionization_Penalty_Charging>  (188) 
0

>  <r_epik_Ionization_Penalty_Neutral>  (188) 
0.00524681

>  <r_epik_State_Penalty>  (188) 
1.98605e-08

>  <r_epik_Charging_Adjusted_Penalty>  (188) 
1.98605e-08

>  <i_epik_Tot_Q>  (188) 
0

>  <i_epik_Tot_abs_Q>  (188) 
0

>  <s_epik_Chemistry_Notes>  (188) 
This compound has an imine and may undergo hydrolysis.

>  <s_lp_Force_Field>  (188) 
OPLS3e

>  <r_lp_Energy>  (188) 
346.918

>  <b_lp_Chiralities_Consistent>  (188) 
1

>  <s_lp_Variant>  (188) 
59:0-2

>  <s_i_glide_gridfile>  (188) 
pfpi4k_grid

>  <i_i_glide_lignum>  (188) 
6

>  <i_i_glide_rotatable_bonds>  (188) 
2

>  <r_i_docking_score>  (188) 
-3.20013

>  <r_i_glide_ligand_efficiency>  (188) 
-0.0800033

>  <r_i_glide_ligand_efficiency_sa>  (188) 
-0.273607

>  <r_i_glide_ligand_efficiency_ln>  (188) 
-0.682494

>  <r_i_glide_gscore>  (188) 
-3.20013

>  <r_i_glide_lipo>  (188) 
-0.201445

>  <r_i_glide_hbond>  (188) 
-0.16

>  <r_i_glide_metal>  (188) 
-0

>  <r_i_glide_rewards>  (188) 
-0.119957

>  <r_i_glide_evdw>  (188) 
-32.221

>  <r_i_glide_ecoul>  (188) 
-7.67525

>  <r_i_glide_erotb>  (188) 
0.143899

>  <r_i_glide_esite>  (188) 
-0.100289

>  <r_i_glide_emodel>  (188) 
-47.5086

>  <r_i_glide_energy>  (188) 
-39.8963

>  <r_i_glide_einternal>  (188) 
0.851706

>  <r_i_glide_intrahb_reward>  (188) 
-0

>  <i_i_glide_confnum>  (188) 
1

>  <i_i_glide_posenum>  (188) 
6

>  <r_i_glide_eff_state_penalty>  (188) 
0

>  <ligand_id>  (188) 
59

>  <original_smiles>  (188) 
CC1(C)C2CC3CC4CCc5ccccc5C5(NC(=NC5=O)N2)C1(C=CC1COc2ccccc2C1=O)C(C4)C3

>  <smiles>  (188) 
[H]C(=C([H])C12C34C(=O)N=C(N3[H])N([H])C([H])(C([H])([H])C3([H])C([H])([H])C([H])(C([H])([H])C([H])([H])c5c([H])c([H])c([H])c([H])c54)C([H])([H])C1([H])C3([H])[H])C2(C([H])([H])[H])C([H])([H])[H])C1([H])C(=O)c2c([H])c([H])c([H])c([H])c2OC1([H])[H]

$$$$
59:1:2
     RDKit          3D

 77 84  0  0  1  0  0  0  0  0999 V2000
    5.0366   -8.2010    2.4346 C   0  0  0  0  0  0  0  0  0  0  0  0
    3.7082   -8.8381    2.9977 C   0  0  0  0  0  0  0  0  0  0  0  0
    3.0615   -9.1536    1.5808 C   0  0  0  0  0  0  0  0  0  0  0  0
    4.0948  -10.1779    3.6039 C   0  0  2  0  0  0  0  0  0  0  0  0
    2.8702  -11.1815    3.4791 C   0  0  0  0  0  0  0  0  0  0  0  0
    1.4293  -10.7753    3.9987 C   0  0  2  0  0  0  0  0  0  0  0  0
    0.2475   -9.8569    3.3048 C   0  0  0  0  0  0  0  0  0  0  0  0
   -0.3961   -8.5891    4.0902 C   0  0  2  0  0  0  0  0  0  0  0  0
   -0.4890   -7.0580    3.7020 C   0  0  0  0  0  0  0  0  0  0  0  0
    0.2895   -5.8065    4.4293 C   0  0  0  0  0  0  0  0  0  0  0  0
    1.2351   -5.7074    5.7254 C   0  0  0  0  0  0  0  0  0  0  0  0
    0.5742   -4.9633    6.7416 C   0  0  0  0  0  0  0  0  0  0  0  0
    1.1843   -4.5539    7.9333 C   0  0  0  0  0  0  0  0  0  0  0  0
    2.5208   -4.8760    8.1626 C   0  0  0  0  0  0  0  0  0  0  0  0
    3.2108   -5.6459    7.2255 C   0  0  0  0  0  0  0  0  0  0  0  0
    2.6360   -6.1187    6.0084 C   0  0  0  0  0  0  0  0  0  0  0  0
    3.5969   -7.1562    5.2657 C   0  0  2  0  0  0  0  0  0  0  0  0
    4.0462   -8.2345    6.1523 N   0  0  0  0  0  0  0  0  0  0  0  0
    5.0674   -8.7858    5.4803 C   0  0  0  0  0  0  0  0  0  0  0  0
    5.9383   -7.8616    5.1559 N   0  0  0  0  0  0  0  0  0  0  0  0
    5.1089   -6.7394    5.1493 C   0  0  0  0  0  0  0  0  0  0  0  0
    5.4974   -5.5687    5.1371 O   0  0  0  0  0  0  0  0  0  0  0  0
    4.9059  -10.0380    4.8682 N   0  0  0  0  0  0  0  0  0  0  0  0
    2.8167   -7.9382    4.0950 C   0  0  1  0  0  0  0  0  0  0  0  0
    2.2774   -7.0231    2.9739 C   0  0  0  0  0  0  0  0  0  0  0  0
    2.5973   -5.8516    2.3568 C   0  0  0  0  0  0  0  0  0  0  0  0
    3.7068   -4.8321    2.5160 C   0  0  2  0  0  0  0  0  0  0  0  0
    3.1774   -3.3877    2.5539 C   0  0  0  0  0  0  0  0  0  0  0  0
    4.2382   -2.4474    2.7061 O   0  0  0  0  0  0  0  0  0  0  0  0
    5.2721   -2.5603    1.8021 C   0  0  0  0  0  0  0  0  0  0  0  0
    6.0812   -1.4324    1.5535 C   0  0  0  0  0  0  0  0  0  0  0  0
    7.1396   -1.5053    0.6223 C   0  0  0  0  0  0  0  0  0  0  0  0
    7.4168   -2.7063   -0.0572 C   0  0  0  0  0  0  0  0  0  0  0  0
    6.6199   -3.8388    0.1994 C   0  0  0  0  0  0  0  0  0  0  0  0
    5.5451   -3.7723    1.1159 C   0  0  0  0  0  0  0  0  0  0  0  0
    4.6842   -4.9501    1.3379 C   0  0  0  0  0  0  0  0  0  0  0  0
    4.7273   -5.9684    0.6400 O   0  0  0  0  0  0  0  0  0  0  0  0
    1.7164   -8.7425    5.1802 C   0  0  1  0  0  0  0  0  0  0  0  0
    0.2115   -8.5213    5.4002 C   0  0  0  0  0  0  0  0  0  0  0  0
    1.7867  -10.2523    5.3416 C   0  0  0  0  0  0  0  0  0  0  0  0
    5.1774   -8.3024    1.3616 H   0  0  0  0  0  0  0  0  0  0  0  0
    5.9445   -8.6772    2.8158 H   0  0  0  0  0  0  0  0  0  0  0  0
    5.0930   -7.1360    2.5920 H   0  0  0  0  0  0  0  0  0  0  0  0
    2.0827   -9.5817    1.5837 H   0  0  0  0  0  0  0  0  0  0  0  0
    3.6664   -9.8624    1.0210 H   0  0  0  0  0  0  0  0  0  0  0  0
    2.9991   -8.2826    0.9233 H   0  0  0  0  0  0  0  0  0  0  0  0
    4.8283  -10.6177    2.9306 H   0  0  0  0  0  0  0  0  0  0  0  0
    2.7758  -11.5426    2.4540 H   0  0  0  0  0  0  0  0  0  0  0  0
    3.1722  -12.0894    4.0052 H   0  0  0  0  0  0  0  0  0  0  0  0
    0.9640  -11.7490    4.1490 H   0  0  0  0  0  0  0  0  0  0  0  0
    0.2499   -9.7451    2.2290 H   0  0  0  0  0  0  0  0  0  0  0  0
   -0.5836  -10.5682    3.3713 H   0  0  0  0  0  0  0  0  0  0  0  0
   -1.4391   -8.8743    4.2425 H   0  0  0  0  0  0  0  0  0  0  0  0
   -0.4842   -6.9409    2.6178 H   0  0  0  0  0  0  0  0  0  0  0  0
   -1.5451   -6.8331    3.8912 H   0  0  0  0  0  0  0  0  0  0  0  0
    0.6903   -5.1275    3.6832 H   0  0  0  0  0  0  0  0  0  0  0  0
   -0.5753   -5.1964    4.6798 H   0  0  0  0  0  0  0  0  0  0  0  0
   -0.4515   -4.6574    6.6307 H   0  0  0  0  0  0  0  0  0  0  0  0
    0.6330   -3.9797    8.6629 H   0  0  0  0  0  0  0  0  0  0  0  0
    3.0062   -4.5542    9.0727 H   0  0  0  0  0  0  0  0  0  0  0  0
    4.2239   -5.8979    7.4893 H   0  0  0  0  0  0  0  0  0  0  0  0
    4.2667   -7.8125    7.0458 H   0  0  0  0  0  0  0  0  0  0  0  0
    5.7766  -10.5174    4.7079 H   0  0  0  0  0  0  0  0  0  0  0  0
    1.4622   -7.5087    2.4808 H   0  0  0  0  0  0  0  0  0  0  0  0
    1.9321   -5.5821    1.5550 H   0  0  0  0  0  0  0  0  0  0  0  0
    4.2183   -5.0127    3.4425 H   0  0  0  0  0  0  0  0  0  0  0  0
    2.6238   -3.1655    1.6472 H   0  0  0  0  0  0  0  0  0  0  0  0
    2.4843   -3.2715    3.3908 H   0  0  0  0  0  0  0  0  0  0  0  0
    5.8841   -0.5011    2.0667 H   0  0  0  0  0  0  0  0  0  0  0  0
    7.7631   -0.6436    0.4558 H   0  0  0  0  0  0  0  0  0  0  0  0
    8.2308   -2.7750   -0.7697 H   0  0  0  0  0  0  0  0  0  0  0  0
    6.8295   -4.7616   -0.3172 H   0  0  0  0  0  0  0  0  0  0  0  0
    1.8399   -8.4631    6.2197 H   0  0  0  0  0  0  0  0  0  0  0  0
   -0.0794   -7.6723    6.0062 H   0  0  0  0  0  0  0  0  0  0  0  0
   -0.2848   -9.2818    6.0042 H   0  0  0  0  0  0  0  0  0  0  0  0
    1.1013  -10.6710    6.0754 H   0  0  0  0  0  0  0  0  0  0  0  0
    2.7215  -10.6143    5.7622 H   0  0  0  0  0  0  0  0  0  0  0  0
  1  2  1  0
  1 41  1  0
  1 42  1  0
  1 43  1  0
  2 24  1  0
  2  3  1  0
  2  4  1  0
  3 44  1  0
  3 45  1  0
  3 46  1  0
  4 23  1  0
  4  5  1  0
  4 47  1  6
  5  6  1  0
  5 48  1  0
  5 49  1  0
  6 40  1  0
  6  7  1  0
  6 50  1  1
  7  8  1  0
  7 51  1  0
  7 52  1  0
  8 39  1  0
  8  9  1  0
  8 53  1  1
  9 10  1  0
  9 54  1  0
  9 55  1  0
 10 11  1  0
 10 56  1  0
 10 57  1  0
 11 16  2  0
 11 12  1  0
 12 13  2  0
 12 58  1  0
 13 14  1  0
 13 59  1  0
 14 15  2  0
 14 60  1  0
 15 16  1  0
 15 61  1  0
 16 17  1  0
 17 21  1  6
 17 18  1  0
 17 24  1  0
 18 19  1  0
 18 62  1  0
 19 20  2  0
 19 23  1  0
 20 21  1  0
 21 22  2  0
 23 63  1  0
 24 25  1  6
 24 38  1  0
 25 26  2  3
 25 64  1  0
 26 27  1  0
 26 65  1  0
 27 36  1  0
 27 28  1  0
 27 66  1  1
 28 29  1  0
 28 67  1  0
 28 68  1  0
 29 30  1  0
 30 35  2  0
 30 31  1  0
 31 32  2  0
 31 69  1  0
 32 33  1  0
 32 70  1  0
 33 34  2  0
 33 71  1  0
 34 35  1  0
 34 72  1  0
 35 36  1  0
 36 37  2  0
 38 39  1  0
 38 40  1  0
 38 73  1  1
 39 74  1  0
 39 75  1  0
 40 76  1  0
 40 77  1  0
M  END
>  <i_m_ct_stereo_status>  (189) 
1

>  <s_m_source_file>  (189) 
/var/tmp/pbs.5076255.sched01/tmpbaygurib/766rrai79r.sdf

>  <i_m_source_file_index>  (189) 
6

>  <i_lp_mmshare_version>  (189) 
48012

>  <i_f3d_flags>  (189) 
0

>  <s_epik_input>  (189) 
W2NIXTFbY0hdW2NIXVtjSF1jKGMxMilDKD1PKVtDQEBIXShbQ0gyXU8yKVxbQ0hdPVtDSF1cW0NAQF0zKFtDQEBIXShbQ0gyXTQpW0NIMl01KUMoW0NIM10pKFtDSDNdKVtDSF0oW05IXUMoW05IXTYpPU5DNz1PKVtDSDJdW0NAQEhdNVtDSDJdW0NAQEhdNFtDSDJdW0NIMl1jKGM4W0NAXTM2NylbY0hdW2NIXVtjSF1bY0hdOA==

>  <s_epik_cmdline>  (189) 
J2VwaWtfcHl0aG9uJywgJy1waHQnLCAnMi4wJywgJy1waCcsICc3LjAnLCAnLXRuJywgJzgnLCAnLW1hJywgJzIwMCcsICctaW1hZScsICc8aW5maWxlLm1hZT4nLCAnLW9tYWUnLCAnPG91dGZpbGUubWFlPic=

>  <r_lp_tautomer_probability>  (189) 
0.999931

>  <r_epik_Ionization_Penalty>  (189) 
0.00524681

>  <r_epik_Ionization_Penalty_Charging>  (189) 
0

>  <r_epik_Ionization_Penalty_Neutral>  (189) 
0.00524681

>  <r_epik_State_Penalty>  (189) 
1.98605e-08

>  <r_epik_Charging_Adjusted_Penalty>  (189) 
1.98605e-08

>  <i_epik_Tot_Q>  (189) 
0

>  <i_epik_Tot_abs_Q>  (189) 
0

>  <s_epik_Chemistry_Notes>  (189) 
This compound has an imine and may undergo hydrolysis.

>  <s_lp_Force_Field>  (189) 
OPLS3e

>  <r_lp_Energy>  (189) 
346.918

>  <b_lp_Chiralities_Consistent>  (189) 
1

>  <s_lp_Variant>  (189) 
59:0-2

>  <s_i_glide_gridfile>  (189) 
pfpi4k_grid

>  <i_i_glide_lignum>  (189) 
6

>  <i_i_glide_rotatable_bonds>  (189) 
2

>  <r_i_docking_score>  (189) 
-2.25829

>  <r_i_glide_ligand_efficiency>  (189) 
-0.0564573

>  <r_i_glide_ligand_efficiency_sa>  (189) 
-0.193081

>  <r_i_glide_ligand_efficiency_ln>  (189) 
-0.481627

>  <r_i_glide_gscore>  (189) 
-2.25829

>  <r_i_glide_lipo>  (189) 
-0.534485

>  <r_i_glide_hbond>  (189) 
0

>  <r_i_glide_metal>  (189) 
-0

>  <r_i_glide_rewards>  (189) 
-0.0469282

>  <r_i_glide_evdw>  (189) 
-33.8007

>  <r_i_glide_ecoul>  (189) 
-0.857802

>  <r_i_glide_erotb>  (189) 
0.143899

>  <r_i_glide_esite>  (189) 
-0.00207224

>  <r_i_glide_emodel>  (189) 
-39.4229

>  <r_i_glide_energy>  (189) 
-34.6585

>  <r_i_glide_einternal>  (189) 
0.66843

>  <r_i_glide_intrahb_reward>  (189) 
-0

>  <i_i_glide_confnum>  (189) 
1

>  <i_i_glide_posenum>  (189) 
25

>  <r_i_glide_eff_state_penalty>  (189) 
0

>  <ligand_id>  (189) 
59

>  <original_smiles>  (189) 
CC1(C)C2CC3CC4CCc5ccccc5C5(NC(=NC5=O)N2)C1(C=CC1COc2ccccc2C1=O)C(C4)C3

>  <smiles>  (189) 
[H]C(=C([H])C12C34C(=O)N=C(N3[H])N([H])C([H])(C([H])([H])C3([H])C([H])([H])C([H])(C([H])([H])C([H])([H])c5c([H])c([H])c([H])c([H])c54)C([H])([H])C1([H])C3([H])[H])C2(C([H])([H])[H])C([H])([H])[H])C1([H])C(=O)c2c([H])c([H])c([H])c([H])c2OC1([H])[H]

$$$$
60:0:0
     RDKit          3D

 70 78  0  0  1  0  0  0  0  0999 V2000
    6.3349   -2.4671   -1.8946 C   0  0  0  0  0  0  0  0  0  0  0  0
    6.0767   -3.4476   -0.7488 C   0  0  0  0  0  0  0  0  0  0  0  0
    5.1606   -4.3760   -0.7014 C   0  0  0  0  0  0  0  0  0  0  0  0
    4.9264   -5.1467    0.4051 O   0  0  0  0  0  0  0  0  0  0  0  0
    5.8903   -5.1647    1.4065 C   0  0  1  0  0  0  0  0  0  0  0  0
    6.6957   -6.4515    1.1620 C   0  0  0  0  0  0  0  0  0  0  0  0
    6.8704   -4.1713    1.3069 O   0  0  0  0  0  0  0  0  0  0  0  0
    6.5462   -3.0180    0.6098 C   0  0  1  0  0  0  0  0  0  0  0  0
    7.7506   -2.3140    0.4165 O   0  0  0  0  0  0  0  0  0  0  0  0
    5.3605   -2.1348    1.3373 C   0  0  2  0  0  0  0  0  0  0  0  0
    6.0077   -0.7039    1.4900 C   0  0  0  0  0  0  0  0  0  0  0  0
    5.0021   -2.6219    2.8443 C   0  0  2  0  0  0  0  0  0  0  0  0
    5.1166   -1.5809    3.7988 O   0  0  0  0  0  0  0  0  0  0  0  0
    5.7044   -3.7571    3.3212 O   0  0  0  0  0  0  0  0  0  0  0  0
    5.1832   -4.9788    2.7964 C   0  0  2  0  0  0  0  0  0  0  0  0
    5.3122   -6.2541    3.7030 C   0  0  0  0  0  0  0  0  0  0  0  0
    4.0918   -7.1418    3.4301 C   0  0  2  0  0  0  0  0  0  0  0  0
    3.6504   -8.2981    4.1445 O   0  0  0  0  0  0  0  0  0  0  0  0
    2.6266   -8.1171    3.1196 C   0  0  2  0  0  0  0  0  0  0  0  0
    3.7660   -7.9506    2.1406 C   0  0  1  0  0  0  0  0  0  0  0  0
    3.4897   -7.3721    0.8842 O   0  0  0  0  0  0  0  0  0  0  0  0
    2.6335   -6.6083    3.5075 C   0  0  1  0  0  0  0  0  0  0  0  0
    1.9266   -6.2619    4.8619 C   0  0  0  0  0  0  0  0  0  0  0  0
    0.8079   -5.2110    4.7340 C   0  0  0  0  0  0  0  0  0  0  0  0
    2.8580   -5.9502    6.0604 C   0  0  0  0  0  0  0  0  0  0  0  0
    2.6163   -5.4959    2.5659 O   0  0  0  0  0  0  0  0  0  0  0  0
    3.6864   -4.5583    2.8310 C   0  0  2  0  0  0  0  0  0  0  0  0
    3.5409   -3.0444    2.8481 C   0  0  2  0  0  0  0  0  0  0  0  0
    2.8344   -2.3265    1.7152 C   0  0  1  0  0  0  0  0  0  0  0  0
    2.2290   -1.1695    2.2607 O   0  0  0  0  0  0  0  0  0  0  0  0
    3.8637   -2.0115    0.5899 C   0  0  1  0  0  0  0  0  0  0  0  0
    3.6378   -0.5438    0.1068 C   0  0  0  0  0  0  0  0  0  0  0  0
    3.3639   -2.7972   -0.7144 C   0  0  2  0  0  0  0  0  0  0  0  0
    2.5948   -4.1199   -0.6327 C   0  0  1  0  0  0  0  0  0  0  0  0
    1.4726   -4.1312   -1.4924 O   0  0  0  0  0  0  0  0  0  0  0  0
    3.9026   -4.0570   -1.3362 C   0  0  2  0  0  0  0  0  0  0  0  0
    7.3409   -2.6253   -2.2786 H   0  0  0  0  0  0  0  0  0  0  0  0
    6.2460   -1.4437   -1.5457 H   0  0  0  0  0  0  0  0  0  0  0  0
    5.6356   -2.5974   -2.7184 H   0  0  0  0  0  0  0  0  0  0  0  0
    7.1102   -6.3852    0.1579 H   0  0  0  0  0  0  0  0  0  0  0  0
    6.0910   -7.3512    1.2200 H   0  0  0  0  0  0  0  0  0  0  0  0
    7.5375   -6.5305    1.8525 H   0  0  0  0  0  0  0  0  0  0  0  0
    8.3542   -2.9035   -0.0140 H   0  0  0  0  0  0  0  0  0  0  0  0
    5.3813    0.0276    1.9970 H   0  0  0  0  0  0  0  0  0  0  0  0
    6.2702   -0.2693    0.5227 H   0  0  0  0  0  0  0  0  0  0  0  0
    6.9212   -0.7347    2.0877 H   0  0  0  0  0  0  0  0  0  0  0  0
    4.4336   -0.9480    3.6222 H   0  0  0  0  0  0  0  0  0  0  0  0
    6.2464   -6.7998    3.6168 H   0  0  0  0  0  0  0  0  0  0  0  0
    5.2984   -5.9562    4.7497 H   0  0  0  0  0  0  0  0  0  0  0  0
    1.7921   -8.8158    3.0393 H   0  0  0  0  0  0  0  0  0  0  0  0
    4.3639   -8.8518    2.0143 H   0  0  0  0  0  0  0  0  0  0  0  0
    4.2880   -6.9624    0.5805 H   0  0  0  0  0  0  0  0  0  0  0  0
    1.4100   -7.1744    5.1671 H   0  0  0  0  0  0  0  0  0  0  0  0
    1.1828   -4.2547    4.3684 H   0  0  0  0  0  0  0  0  0  0  0  0
    0.3558   -5.0231    5.7083 H   0  0  0  0  0  0  0  0  0  0  0  0
    0.0085   -5.5345    4.0658 H   0  0  0  0  0  0  0  0  0  0  0  0
    3.4503   -5.0461    5.9483 H   0  0  0  0  0  0  0  0  0  0  0  0
    3.5432   -6.7797    6.2362 H   0  0  0  0  0  0  0  0  0  0  0  0
    2.2827   -5.8234    6.9808 H   0  0  0  0  0  0  0  0  0  0  0  0
    3.5883   -4.5909    3.8890 H   0  0  0  0  0  0  0  0  0  0  0  0
    3.0822   -2.7473    3.7914 H   0  0  0  0  0  0  0  0  0  0  0  0
    1.9778   -2.9149    1.4039 H   0  0  0  0  0  0  0  0  0  0  0  0
    1.7336   -0.7673    1.5565 H   0  0  0  0  0  0  0  0  0  0  0  0
    2.6251   -0.4408   -0.2635 H   0  0  0  0  0  0  0  0  0  0  0  0
    4.3181   -0.2690   -0.6980 H   0  0  0  0  0  0  0  0  0  0  0  0
    3.6976    0.2299    0.8670 H   0  0  0  0  0  0  0  0  0  0  0  0
    2.9960   -2.1326   -1.4942 H   0  0  0  0  0  0  0  0  0  0  0  0
    2.5088   -4.7291    0.2596 H   0  0  0  0  0  0  0  0  0  0  0  0
    1.6703   -4.7288   -2.2054 H   0  0  0  0  0  0  0  0  0  0  0  0
    3.9312   -4.1433   -2.4150 H   0  0  0  0  0  0  0  0  0  0  0  0
  1  2  1  0
  1 37  1  0
  1 38  1  0
  1 39  1  0
  2  8  1  0
  2  3  2  0
  3 36  1  0
  3  4  1  0
  4  5  1  0
  5 15  1  0
  5  6  1  1
  5  7  1  0
  6 40  1  0
  6 41  1  0
  6 42  1  0
  7  8  1  0
  8  9  1  6
  8 10  1  0
  9 43  1  0
 10 31  1  0
 10 11  1  1
 10 12  1  0
 11 44  1  0
 11 45  1  0
 11 46  1  0
 12 28  1  0
 12 13  1  1
 12 14  1  0
 13 47  1  0
 14 15  1  0
 15 27  1  0
 15 16  1  1
 17 16  1  6
 16 48  1  0
 16 49  1  0
 17 20  1  0
 17 22  1  0
 17 18  1  0
 18 19  1  0
 19 20  1  0
 19 22  1  0
 19 50  1  6
 20 21  1  0
 20 51  1  6
 21 52  1  0
 22 23  1  1
 22 26  1  0
 23 24  1  0
 23 25  1  0
 23 53  1  0
 24 54  1  0
 24 55  1  0
 24 56  1  0
 25 57  1  0
 25 58  1  0
 25 59  1  0
 26 27  1  0
 27 28  1  0
 27 60  1  1
 28 29  1  0
 28 61  1  1
 29 30  1  0
 29 31  1  0
 29 62  1  6
 30 63  1  0
 31 32  1  6
 31 33  1  0
 32 64  1  0
 32 65  1  0
 32 66  1  0
 33 36  1  0
 33 34  1  0
 33 67  1  6
 34 35  1  0
 34 36  1  0
 34 68  1  1
 35 69  1  0
 36 70  1  6
M  END
>  <i_m_ct_stereo_status>  (190) 
1

>  <s_m_source_file>  (190) 
/var/tmp/pbs.5076255.sched01/tmpbaygurib/766rrai79r.sdf

>  <i_m_source_file_index>  (190) 
7

>  <i_lp_mmshare_version>  (190) 
48012

>  <i_f3d_flags>  (190) 
0

>  <s_epik_input>  (190) 
W0NIM11bQ0BdMShbQ0BdMjM0KU9DNVtDQEBIXTZbQ0BASF0oW0NASF02W09IXSlbQ0BdNyhbQ0gzXSlbQ0BdKFtDSDNdKShbQ0BdKE8xKShbT0hdKUM9NVtDSDNdKVtDQEBdKE8yKShbT0hdKVtDQEBIXShbQ0BIXTdbT0hdKVtDQEhdNE9bQ0BdOChbQ0hdKFtDSDNdKVtDSDNdKVtDQEBdOShbQ0gyXTMpT1tDQEBIXThbQ0BIXTlbT0hd

>  <s_epik_cmdline>  (190) 
J2VwaWtfcHl0aG9uJywgJy1waHQnLCAnMi4wJywgJy1waCcsICc3LjAnLCAnLXRuJywgJzgnLCAnLW1hJywgJzIwMCcsICctaW1hZScsICc8aW5maWxlLm1hZT4nLCAnLW9tYWUnLCAnPG91dGZpbGUubWFlPic=

>  <r_epik_Ionization_Penalty>  (190) 
0.00100783

>  <r_epik_Ionization_Penalty_Charging>  (190) 
0

>  <r_epik_Ionization_Penalty_Neutral>  (190) 
0.00100783

>  <r_epik_State_Penalty>  (190) 
0.000610154

>  <r_epik_Charging_Adjusted_Penalty>  (190) 
0.000610154

>  <i_epik_Tot_Q>  (190) 
0

>  <i_epik_Tot_abs_Q>  (190) 
0

>  <s_lp_Force_Field>  (190) 
OPLS3e

>  <r_lp_Energy>  (190) 
243.442

>  <b_lp_Chiralities_Consistent>  (190) 
1

>  <s_lp_Variant>  (190) 
60:0-1

>  <s_i_glide_gridfile>  (190) 
pfpi4k_grid

>  <i_i_glide_lignum>  (190) 
7

>  <i_i_glide_rotatable_bonds>  (190) 
6

>  <r_i_docking_score>  (190) 
-3.21316

>  <r_i_glide_ligand_efficiency>  (190) 
-0.0892543

>  <r_i_glide_ligand_efficiency_sa>  (190) 
-0.294711

>  <r_i_glide_ligand_efficiency_ln>  (190) 
-0.701024

>  <r_i_glide_gscore>  (190) 
-3.21316

>  <r_i_glide_lipo>  (190) 
-0.363288

>  <r_i_glide_hbond>  (190) 
-0.263479

>  <r_i_glide_metal>  (190) 
-0

>  <r_i_glide_rewards>  (190) 
-0.790655

>  <r_i_glide_evdw>  (190) 
-17.8963

>  <r_i_glide_ecoul>  (190) 
-6.00613

>  <r_i_glide_erotb>  (190) 
0

>  <r_i_glide_esite>  (190) 
0

>  <r_i_glide_emodel>  (190) 
-30.6278

>  <r_i_glide_energy>  (190) 
-23.9024

>  <r_i_glide_einternal>  (190) 
5.24786

>  <r_i_glide_intrahb_reward>  (190) 
-0.5

>  <i_i_glide_confnum>  (190) 
2

>  <i_i_glide_posenum>  (190) 
33

>  <r_i_glide_eff_state_penalty>  (190) 
0

>  <ligand_id>  (190) 
60

>  <original_smiles>  (190) 
CC1=C2OC3(C)OC1(O)C1(C)C4(O)OC35CC36OC(C3O)C6(C(C)C)OC5C4C(O)C1(C)C1C(O)C21

>  <smiles>  (190) 
[H]OC12OC3(C([H])([H])[H])OC(=C1C([H])([H])[H])C1([H])C([H])(O[H])C1([H])C1(C([H])([H])[H])C([H])(O[H])C4([H])C5([H])OC6(C([H])(C([H])([H])[H])C([H])([H])[H])C7([H])OC6(C([H])([H])C53OC4(O[H])C21C([H])([H])[H])C7([H])O[H]

$$$$
60:0:1
     RDKit          3D

 70 78  0  0  1  0  0  0  0  0999 V2000
    6.3139   -2.4213   -1.7839 C   0  0  0  0  0  0  0  0  0  0  0  0
    6.0994   -3.4345   -0.6627 C   0  0  0  0  0  0  0  0  0  0  0  0
    5.1660   -4.3837   -0.6292 C   0  0  0  0  0  0  0  0  0  0  0  0
    4.9759   -5.1830    0.4605 O   0  0  0  0  0  0  0  0  0  0  0  0
    5.9491   -5.2238    1.4402 C   0  0  1  0  0  0  0  0  0  0  0  0
    6.7650   -6.4972    1.1424 C   0  0  0  0  0  0  0  0  0  0  0  0
    6.9288   -4.2168    1.3497 O   0  0  0  0  0  0  0  0  0  0  0  0
    6.5746   -3.0498    0.6908 C   0  0  1  0  0  0  0  0  0  0  0  0
    7.7750   -2.3234    0.4768 O   0  0  0  0  0  0  0  0  0  0  0  0
    5.4020   -2.1931    1.4760 C   0  0  2  0  0  0  0  0  0  0  0  0
    6.0424   -0.7633    1.6652 C   0  0  0  0  0  0  0  0  0  0  0  0
    5.0794   -2.7379    2.9765 C   0  0  2  0  0  0  0  0  0  0  0  0
    5.2214   -1.7350    3.9662 O   0  0  0  0  0  0  0  0  0  0  0  0
    5.7961   -3.8870    3.4011 O   0  0  0  0  0  0  0  0  0  0  0  0
    5.2701   -5.0909    2.8538 C   0  0  2  0  0  0  0  0  0  0  0  0
    5.4264   -6.3921    3.7158 C   0  0  0  0  0  0  0  0  0  0  0  0
    4.2069   -7.2807    3.4393 C   0  0  2  0  0  0  0  0  0  0  0  0
    3.7834   -8.4620    4.1243 O   0  0  0  0  0  0  0  0  0  0  0  0
    2.7413   -8.2546    3.1235 C   0  0  2  0  0  0  0  0  0  0  0  0
    3.8640   -8.0498    2.1306 C   0  0  1  0  0  0  0  0  0  0  0  0
    3.5611   -7.4403    0.8936 O   0  0  0  0  0  0  0  0  0  0  0  0
    2.7460   -6.7579    3.5571 C   0  0  1  0  0  0  0  0  0  0  0  0
    2.0612   -6.4565    4.9331 C   0  0  0  0  0  0  0  0  0  0  0  0
    0.9267   -5.4181    4.8582 C   0  0  0  0  0  0  0  0  0  0  0  0
    3.0113   -6.1640    6.1164 C   0  0  0  0  0  0  0  0  0  0  0  0
    2.7108   -5.6130    2.6545 O   0  0  0  0  0  0  0  0  0  0  0  0
    3.7728   -4.6797    2.9403 C   0  0  2  0  0  0  0  0  0  0  0  0
    3.6212   -3.1665    3.0010 C   0  0  2  0  0  0  0  0  0  0  0  0
    2.8810   -2.4105    1.9074 C   0  0  1  0  0  0  0  0  0  0  0  0
    2.2312   -1.3056    2.5174 O   0  0  0  0  0  0  0  0  0  0  0  0
    3.8847   -2.0510    0.7674 C   0  0  1  0  0  0  0  0  0  0  0  0
    3.6365   -0.5680    0.3393 C   0  0  0  0  0  0  0  0  0  0  0  0
    3.3690   -2.8055   -0.5515 C   0  0  2  0  0  0  0  0  0  0  0  0
    2.6149   -4.1416   -0.4964 C   0  0  1  0  0  0  0  0  0  0  0  0
    1.4760   -4.1488   -1.3284 O   0  0  0  0  0  0  0  0  0  0  0  0
    3.9121   -4.0492   -1.2221 C   0  0  2  0  0  0  0  0  0  0  0  0
    7.3132   -2.5565   -2.1943 H   0  0  0  0  0  0  0  0  0  0  0  0
    6.2294   -1.4076   -1.3960 H   0  0  0  0  0  0  0  0  0  0  0  0
    5.5992   -2.5264   -2.5939 H   0  0  0  0  0  0  0  0  0  0  0  0
    7.1603   -6.3984    0.1324 H   0  0  0  0  0  0  0  0  0  0  0  0
    6.1665   -7.4025    1.1859 H   0  0  0  0  0  0  0  0  0  0  0  0
    7.6178   -6.5905    1.8165 H   0  0  0  0  0  0  0  0  0  0  0  0
    8.3742   -2.9126    0.0448 H   0  0  0  0  0  0  0  0  0  0  0  0
    5.4204   -0.0545    2.2086 H   0  0  0  0  0  0  0  0  0  0  0  0
    6.2801   -0.2976    0.7051 H   0  0  0  0  0  0  0  0  0  0  0  0
    6.9700   -0.8051    2.2400 H   0  0  0  0  0  0  0  0  0  0  0  0
    4.5690   -1.0673    3.8173 H   0  0  0  0  0  0  0  0  0  0  0  0
    6.3625   -6.9249    3.5949 H   0  0  0  0  0  0  0  0  0  0  0  0
    5.4267   -6.1215    4.7702 H   0  0  0  0  0  0  0  0  0  0  0  0
    1.9087   -8.9543    3.0364 H   0  0  0  0  0  0  0  0  0  0  0  0
    4.4626   -8.9409    1.9638 H   0  0  0  0  0  0  0  0  0  0  0  0
    4.3647   -7.0624    0.5593 H   0  0  0  0  0  0  0  0  0  0  0  0
    1.5601   -7.3838    5.2260 H   0  0  0  0  0  0  0  0  0  0  0  0
    1.2828   -4.4470    4.5118 H   0  0  0  0  0  0  0  0  0  0  0  0
    0.4905   -5.2625    5.8471 H   0  0  0  0  0  0  0  0  0  0  0  0
    0.1180   -5.7321    4.1969 H   0  0  0  0  0  0  0  0  0  0  0  0
    3.5900   -5.2449    5.9933 H   0  0  0  0  0  0  0  0  0  0  0  0
    3.7097   -6.9846    6.2610 H   0  0  0  0  0  0  0  0  0  0  0  0
    2.4591   -6.0718    7.0513 H   0  0  0  0  0  0  0  0  0  0  0  0
    3.6940   -4.7558    4.0082 H   0  0  0  0  0  0  0  0  0  0  0  0
    3.1797   -2.9061    3.9609 H   0  0  0  0  0  0  0  0  0  0  0  0
    2.0367   -3.0084    1.5863 H   0  0  0  0  0  0  0  0  0  0  0  0
    2.8588   -0.6068    2.6418 H   0  0  0  0  0  0  0  0  0  0  0  0
    2.6322   -0.4493   -0.0074 H   0  0  0  0  0  0  0  0  0  0  0  0
    4.2937   -0.2627   -0.4732 H   0  0  0  0  0  0  0  0  0  0  0  0
    3.7084    0.1808    1.1202 H   0  0  0  0  0  0  0  0  0  0  0  0
    2.9869   -2.1241   -1.3066 H   0  0  0  0  0  0  0  0  0  0  0  0
    2.5539   -4.7744    0.3813 H   0  0  0  0  0  0  0  0  0  0  0  0
    1.7009   -4.6277   -2.1226 H   0  0  0  0  0  0  0  0  0  0  0  0
    3.9103   -4.1030   -2.3076 H   0  0  0  0  0  0  0  0  0  0  0  0
  1  2  1  0
  1 37  1  0
  1 38  1  0
  1 39  1  0
  2  8  1  0
  2  3  2  0
  3 36  1  0
  3  4  1  0
  4  5  1  0
  5 15  1  0
  5  6  1  1
  5  7  1  0
  6 40  1  0
  6 41  1  0
  6 42  1  0
  7  8  1  0
  8  9  1  6
  8 10  1  0
  9 43  1  0
 10 31  1  0
 10 11  1  1
 10 12  1  0
 11 44  1  0
 11 45  1  0
 11 46  1  0
 12 28  1  0
 12 13  1  1
 12 14  1  0
 13 47  1  0
 14 15  1  0
 15 27  1  0
 15 16  1  1
 17 16  1  6
 16 48  1  0
 16 49  1  0
 17 20  1  0
 17 22  1  0
 17 18  1  0
 18 19  1  0
 19 20  1  0
 19 22  1  0
 19 50  1  6
 20 21  1  0
 20 51  1  6
 21 52  1  0
 22 23  1  1
 22 26  1  0
 23 24  1  0
 23 25  1  0
 23 53  1  0
 24 54  1  0
 24 55  1  0
 24 56  1  0
 25 57  1  0
 25 58  1  0
 25 59  1  0
 26 27  1  0
 27 28  1  0
 27 60  1  1
 28 29  1  0
 28 61  1  1
 29 30  1  0
 29 31  1  0
 29 62  1  6
 30 63  1  0
 31 32  1  6
 31 33  1  0
 32 64  1  0
 32 65  1  0
 32 66  1  0
 33 36  1  0
 33 34  1  0
 33 67  1  6
 34 35  1  0
 34 36  1  0
 34 68  1  1
 35 69  1  0
 36 70  1  6
M  END
>  <i_m_ct_stereo_status>  (191) 
1

>  <s_m_source_file>  (191) 
/var/tmp/pbs.5076255.sched01/tmpbaygurib/766rrai79r.sdf

>  <i_m_source_file_index>  (191) 
7

>  <i_lp_mmshare_version>  (191) 
48012

>  <i_f3d_flags>  (191) 
0

>  <s_epik_input>  (191) 
W0NIM11bQ0BdMShbQ0BdMjM0KU9DNVtDQEBIXTZbQ0BASF0oW0NASF02W09IXSlbQ0BdNyhbQ0gzXSlbQ0BdKFtDSDNdKShbQ0BdKE8xKShbT0hdKUM9NVtDSDNdKVtDQEBdKE8yKShbT0hdKVtDQEBIXShbQ0BIXTdbT0hdKVtDQEhdNE9bQ0BdOChbQ0hdKFtDSDNdKVtDSDNdKVtDQEBdOShbQ0gyXTMpT1tDQEBIXThbQ0BIXTlbT0hd

>  <s_epik_cmdline>  (191) 
J2VwaWtfcHl0aG9uJywgJy1waHQnLCAnMi4wJywgJy1waCcsICc3LjAnLCAnLXRuJywgJzgnLCAnLW1hJywgJzIwMCcsICctaW1hZScsICc8aW5maWxlLm1hZT4nLCAnLW9tYWUnLCAnPG91dGZpbGUubWFlPic=

>  <r_epik_Ionization_Penalty>  (191) 
0.00100783

>  <r_epik_Ionization_Penalty_Charging>  (191) 
0

>  <r_epik_Ionization_Penalty_Neutral>  (191) 
0.00100783

>  <r_epik_State_Penalty>  (191) 
0.000610154

>  <r_epik_Charging_Adjusted_Penalty>  (191) 
0.000610154

>  <i_epik_Tot_Q>  (191) 
0

>  <i_epik_Tot_abs_Q>  (191) 
0

>  <s_lp_Force_Field>  (191) 
OPLS3e

>  <r_lp_Energy>  (191) 
243.442

>  <b_lp_Chiralities_Consistent>  (191) 
1

>  <s_lp_Variant>  (191) 
60:0-1

>  <s_i_glide_gridfile>  (191) 
pfpi4k_grid

>  <i_i_glide_lignum>  (191) 
7

>  <i_i_glide_rotatable_bonds>  (191) 
6

>  <r_i_docking_score>  (191) 
-2.94161

>  <r_i_glide_ligand_efficiency>  (191) 
-0.0817113

>  <r_i_glide_ligand_efficiency_sa>  (191) 
-0.269805

>  <r_i_glide_ligand_efficiency_ln>  (191) 
-0.641779

>  <r_i_glide_gscore>  (191) 
-2.94161

>  <r_i_glide_lipo>  (191) 
-0.372238

>  <r_i_glide_hbond>  (191) 
-0.242039

>  <r_i_glide_metal>  (191) 
-0

>  <r_i_glide_rewards>  (191) 
-0.792835

>  <r_i_glide_evdw>  (191) 
-18.0347

>  <r_i_glide_ecoul>  (191) 
-4.21841

>  <r_i_glide_erotb>  (191) 
0

>  <r_i_glide_esite>  (191) 
0

>  <r_i_glide_emodel>  (191) 
-28.5369

>  <r_i_glide_energy>  (191) 
-22.2531

>  <r_i_glide_einternal>  (191) 
5.08862

>  <r_i_glide_intrahb_reward>  (191) 
-0.5

>  <i_i_glide_confnum>  (191) 
2

>  <i_i_glide_posenum>  (191) 
1

>  <r_i_glide_eff_state_penalty>  (191) 
0

>  <ligand_id>  (191) 
60

>  <original_smiles>  (191) 
CC1=C2OC3(C)OC1(O)C1(C)C4(O)OC35CC36OC(C3O)C6(C(C)C)OC5C4C(O)C1(C)C1C(O)C21

>  <smiles>  (191) 
[H]OC12OC3(C([H])([H])[H])OC(=C1C([H])([H])[H])C1([H])C([H])(O[H])C1([H])C1(C([H])([H])[H])C([H])(O[H])C4([H])C5([H])OC6(C([H])(C([H])([H])[H])C([H])([H])[H])C7([H])OC6(C([H])([H])C53OC4(O[H])C21C([H])([H])[H])C7([H])O[H]

$$$$
60:0:2
     RDKit          3D

 70 78  0  0  1  0  0  0  0  0999 V2000
    2.6394   -2.9434   -2.0573 C   0  0  0  0  0  0  0  0  0  0  0  0
    3.2348   -3.8479   -0.9811 C   0  0  0  0  0  0  0  0  0  0  0  0
    2.8673   -3.9611    0.2911 C   0  0  0  0  0  0  0  0  0  0  0  0
    3.5547   -4.7513    1.1740 O   0  0  0  0  0  0  0  0  0  0  0  0
    4.3832   -5.7482    0.6836 C   0  0  1  0  0  0  0  0  0  0  0  0
    3.5278   -6.9994    0.7227 C   0  0  0  0  0  0  0  0  0  0  0  0
    4.7027   -5.6063   -0.6804 O   0  0  0  0  0  0  0  0  0  0  0  0
    4.6148   -4.3210   -1.2259 C   0  0  1  0  0  0  0  0  0  0  0  0
    4.7674   -4.4325   -2.6100 O   0  0  0  0  0  0  0  0  0  0  0  0
    5.6853   -3.2900   -0.6292 C   0  0  2  0  0  0  0  0  0  0  0  0
    6.4417   -2.7295   -1.9098 C   0  0  0  0  0  0  0  0  0  0  0  0
    6.8136   -4.0428    0.2452 C   0  0  2  0  0  0  0  0  0  0  0  0
    8.1254   -3.7636   -0.2188 O   0  0  0  0  0  0  0  0  0  0  0  0
    6.7102   -5.4500    0.4427 O   0  0  0  0  0  0  0  0  0  0  0  0
    5.7358   -5.7791    1.4403 C   0  0  2  0  0  0  0  0  0  0  0  0
    5.9603   -7.0896    2.2718 C   0  0  0  0  0  0  0  0  0  0  0  0
    5.3511   -6.8676    3.6654 C   0  0  2  0  0  0  0  0  0  0  0  0
    5.4514   -7.7085    4.8243 O   0  0  0  0  0  0  0  0  0  0  0  0
    4.6925   -6.5479    5.3002 C   0  0  2  0  0  0  0  0  0  0  0  0
    3.8491   -6.7167    4.0611 C   0  0  1  0  0  0  0  0  0  0  0  0
    3.0123   -5.6401    3.7027 O   0  0  0  0  0  0  0  0  0  0  0  0
    5.7231   -5.6534    4.5592 C   0  0  1  0  0  0  0  0  0  0  0  0
    7.0821   -5.4112    5.3095 C   0  0  0  0  0  0  0  0  0  0  0  0
    7.7478   -6.6333    5.9604 C   0  0  0  0  0  0  0  0  0  0  0  0
    6.9317   -4.2903    6.3534 C   0  0  0  0  0  0  0  0  0  0  0  0
    5.3899   -4.5262    3.7078 O   0  0  0  0  0  0  0  0  0  0  0  0
    6.0379   -4.6238    2.4063 C   0  0  2  0  0  0  0  0  0  0  0  0
    6.6628   -3.4779    1.6361 C   0  0  2  0  0  0  0  0  0  0  0  0
    5.9914   -2.0994    1.5598 C   0  0  1  0  0  0  0  0  0  0  0  0
    7.0166   -1.1174    1.4519 O   0  0  0  0  0  0  0  0  0  0  0  0
    5.0967   -2.0300    0.3040 C   0  0  1  0  0  0  0  0  0  0  0  0
    5.2955   -0.6799   -0.4565 C   0  0  0  0  0  0  0  0  0  0  0  0
    3.6020   -1.7775    0.8168 C   0  0  2  0  0  0  0  0  0  0  0  0
    3.1317   -2.2829    2.1907 C   0  0  1  0  0  0  0  0  0  0  0  0
    2.3969   -1.3249    2.9169 O   0  0  0  0  0  0  0  0  0  0  0  0
    2.4661   -2.7604    0.9642 C   0  0  2  0  0  0  0  0  0  0  0  0
    2.1575   -3.5360   -2.8410 H   0  0  0  0  0  0  0  0  0  0  0  0
    3.3839   -2.2860   -2.5090 H   0  0  0  0  0  0  0  0  0  0  0  0
    1.8839   -2.3123   -1.6620 H   0  0  0  0  0  0  0  0  0  0  0  0
    2.6160   -6.6418    0.2385 H   0  0  0  0  0  0  0  0  0  0  0  0
    3.2312   -7.3313    1.7129 H   0  0  0  0  0  0  0  0  0  0  0  0
    4.0094   -7.8315    0.2006 H   0  0  0  0  0  0  0  0  0  0  0  0
    4.1531   -5.1225   -2.8301 H   0  0  0  0  0  0  0  0  0  0  0  0
    7.2477   -2.0348   -1.7040 H   0  0  0  0  0  0  0  0  0  0  0  0
    5.7508   -2.2359   -2.6011 H   0  0  0  0  0  0  0  0  0  0  0  0
    6.9268   -3.5214   -2.5018 H   0  0  0  0  0  0  0  0  0  0  0  0
    8.1601   -3.9399   -1.1501 H   0  0  0  0  0  0  0  0  0  0  0  0
    5.6062   -8.0031    1.7975 H   0  0  0  0  0  0  0  0  0  0  0  0
    7.0313   -7.2510    2.3986 H   0  0  0  0  0  0  0  0  0  0  0  0
    4.3522   -6.4750    6.3344 H   0  0  0  0  0  0  0  0  0  0  0  0
    3.2963   -7.6562    4.0624 H   0  0  0  0  0  0  0  0  0  0  0  0
    3.5748   -4.8738    3.6887 H   0  0  0  0  0  0  0  0  0  0  0  0
    7.8608   -5.0718    4.6202 H   0  0  0  0  0  0  0  0  0  0  0  0
    7.1033   -7.1053    6.7020 H   0  0  0  0  0  0  0  0  0  0  0  0
    8.6726   -6.3517    6.4686 H   0  0  0  0  0  0  0  0  0  0  0  0
    8.0090   -7.3807    5.2078 H   0  0  0  0  0  0  0  0  0  0  0  0
    6.2020   -4.5647    7.1158 H   0  0  0  0  0  0  0  0  0  0  0  0
    6.6001   -3.3621    5.8879 H   0  0  0  0  0  0  0  0  0  0  0  0
    7.8742   -4.0914    6.8614 H   0  0  0  0  0  0  0  0  0  0  0  0
    6.9884   -5.0297    2.7386 H   0  0  0  0  0  0  0  0  0  0  0  0
    7.6832   -3.4608    1.9618 H   0  0  0  0  0  0  0  0  0  0  0  0
    5.5040   -1.8584    2.5058 H   0  0  0  0  0  0  0  0  0  0  0  0
    6.6750   -0.2995    1.7798 H   0  0  0  0  0  0  0  0  0  0  0  0
    5.0333    0.1521    0.1850 H   0  0  0  0  0  0  0  0  0  0  0  0
    4.7087   -0.5958   -1.3739 H   0  0  0  0  0  0  0  0  0  0  0  0
    6.3205   -0.4909   -0.7128 H   0  0  0  0  0  0  0  0  0  0  0  0
    3.1957   -0.8093    0.5344 H   0  0  0  0  0  0  0  0  0  0  0  0
    3.6925   -2.9947    2.7967 H   0  0  0  0  0  0  0  0  0  0  0  0
    1.9758   -0.7339    2.3099 H   0  0  0  0  0  0  0  0  0  0  0  0
    1.4619   -2.4121    0.7735 H   0  0  0  0  0  0  0  0  0  0  0  0
  1  2  1  0
  1 37  1  0
  1 38  1  0
  1 39  1  0
  2  8  1  0
  2  3  2  0
  3 36  1  0
  3  4  1  0
  4  5  1  0
  5 15  1  0
  5  6  1  6
  5  7  1  0
  6 40  1  0
  6 41  1  0
  6 42  1  0
  7  8  1  0
  8  9  1  6
  8 10  1  0
  9 43  1  0
 10 31  1  0
 10 11  1  6
 10 12  1  0
 11 44  1  0
 11 45  1  0
 11 46  1  0
 12 28  1  0
 12 13  1  6
 12 14  1  0
 13 47  1  0
 14 15  1  0
 15 27  1  0
 15 16  1  1
 17 16  1  6
 16 48  1  0
 16 49  1  0
 17 20  1  0
 17 22  1  0
 17 18  1  0
 18 19  1  0
 19 20  1  0
 19 22  1  0
 19 50  1  1
 20 21  1  0
 20 51  1  1
 21 52  1  0
 22 23  1  1
 22 26  1  0
 23 24  1  0
 23 25  1  0
 23 53  1  0
 24 54  1  0
 24 55  1  0
 24 56  1  0
 25 57  1  0
 25 58  1  0
 25 59  1  0
 26 27  1  0
 27 28  1  0
 27 60  1  1
 28 29  1  0
 28 61  1  1
 29 30  1  0
 29 31  1  0
 29 62  1  1
 30 63  1  0
 31 32  1  6
 31 33  1  0
 32 64  1  0
 32 65  1  0
 32 66  1  0
 33 36  1  0
 33 34  1  0
 33 67  1  1
 34 35  1  0
 34 36  1  0
 34 68  1  1
 35 69  1  0
 36 70  1  1
M  END
>  <i_m_ct_stereo_status>  (192) 
1

>  <s_m_source_file>  (192) 
/var/tmp/pbs.5076255.sched01/tmpbaygurib/766rrai79r.sdf

>  <i_m_source_file_index>  (192) 
7

>  <i_lp_mmshare_version>  (192) 
48012

>  <i_f3d_flags>  (192) 
0

>  <s_epik_input>  (192) 
W0NIM11bQ0BdMShbQ0BdMjM0KU9DNVtDQEBIXTZbQ0BASF0oW0NASF02W09IXSlbQ0BdNyhbQ0gzXSlbQ0BdKFtDSDNdKShbQ0BdKE8xKShbT0hdKUM9NVtDSDNdKVtDQEBdKE8yKShbT0hdKVtDQEBIXShbQ0BIXTdbT0hdKVtDQEhdNE9bQ0BdOChbQ0hdKFtDSDNdKVtDSDNdKVtDQEBdOShbQ0gyXTMpT1tDQEBIXThbQ0BIXTlbT0hd

>  <s_epik_cmdline>  (192) 
J2VwaWtfcHl0aG9uJywgJy1waHQnLCAnMi4wJywgJy1waCcsICc3LjAnLCAnLXRuJywgJzgnLCAnLW1hJywgJzIwMCcsICctaW1hZScsICc8aW5maWxlLm1hZT4nLCAnLW9tYWUnLCAnPG91dGZpbGUubWFlPic=

>  <r_epik_Ionization_Penalty>  (192) 
0.00100783

>  <r_epik_Ionization_Penalty_Charging>  (192) 
0

>  <r_epik_Ionization_Penalty_Neutral>  (192) 
0.00100783

>  <r_epik_State_Penalty>  (192) 
0.000610154

>  <r_epik_Charging_Adjusted_Penalty>  (192) 
0.000610154

>  <i_epik_Tot_Q>  (192) 
0

>  <i_epik_Tot_abs_Q>  (192) 
0

>  <s_lp_Force_Field>  (192) 
OPLS3e

>  <r_lp_Energy>  (192) 
243.442

>  <b_lp_Chiralities_Consistent>  (192) 
1

>  <s_lp_Variant>  (192) 
60:0-1

>  <s_i_glide_gridfile>  (192) 
pfpi4k_grid

>  <i_i_glide_lignum>  (192) 
7

>  <i_i_glide_rotatable_bonds>  (192) 
6

>  <r_i_docking_score>  (192) 
-2.4612

>  <r_i_glide_ligand_efficiency>  (192) 
-0.0683667

>  <r_i_glide_ligand_efficiency_sa>  (192) 
-0.225742

>  <r_i_glide_ligand_efficiency_ln>  (192) 
-0.536967

>  <r_i_glide_gscore>  (192) 
-2.4612

>  <r_i_glide_lipo>  (192) 
-0.514634

>  <r_i_glide_hbond>  (192) 
0

>  <r_i_glide_metal>  (192) 
-0

>  <r_i_glide_rewards>  (192) 
-0.769345

>  <r_i_glide_evdw>  (192) 
-1.98411

>  <r_i_glide_ecoul>  (192) 
-6.96806

>  <r_i_glide_erotb>  (192) 
0

>  <r_i_glide_esite>  (192) 
-0.0328056

>  <r_i_glide_emodel>  (192) 
-15.6622

>  <r_i_glide_energy>  (192) 
-8.95217

>  <r_i_glide_einternal>  (192) 
0.648215

>  <r_i_glide_intrahb_reward>  (192) 
-0.5

>  <i_i_glide_confnum>  (192) 
1

>  <i_i_glide_posenum>  (192) 
37

>  <r_i_glide_eff_state_penalty>  (192) 
0

>  <ligand_id>  (192) 
60

>  <original_smiles>  (192) 
CC1=C2OC3(C)OC1(O)C1(C)C4(O)OC35CC36OC(C3O)C6(C(C)C)OC5C4C(O)C1(C)C1C(O)C21

>  <smiles>  (192) 
[H]OC12OC3(C([H])([H])[H])OC(=C1C([H])([H])[H])C1([H])C([H])(O[H])C1([H])C1(C([H])([H])[H])C([H])(O[H])C4([H])C5([H])OC6(C([H])(C([H])([H])[H])C([H])([H])[H])C7([H])OC6(C([H])([H])C53OC4(O[H])C21C([H])([H])[H])C7([H])O[H]

$$$$
61:0:0
     RDKit          3D

 35 37  0  0  1  0  0  0  0  0999 V2000
    3.1480   -3.3624   -3.7359 C   0  0  0  0  0  0  0  0  0  0  0  0
    4.0639   -2.4087   -2.9624 C   0  0  0  0  0  0  0  0  0  0  0  0
    4.3462   -1.1799   -3.8275 C   0  0  0  0  0  0  0  0  0  0  0  0
    3.3125   -1.9030   -1.7604 C   0  0  0  0  0  0  0  0  0  0  0  0
    3.8473   -1.7031   -0.5369 C   0  0  0  0  0  0  0  0  0  0  0  0
    3.0423   -1.2885    0.4893 O   0  0  0  0  0  0  0  0  0  0  0  0
    3.2665   -1.6952    1.7835 C   0  0  0  0  0  0  0  0  0  0  0  0
    2.5286   -0.9834    2.6463 N   0  0  0  0  0  0  0  0  0  0  0  0
    4.6532   -2.1627    2.2170 C   0  0  1  0  0  0  0  0  0  0  0  0
    4.5938   -3.0389    3.3996 C   0  0  0  0  0  0  0  0  0  0  0  0
    4.5492   -3.7272    4.3286 N   0  0  0  0  0  0  0  0  0  0  0  0
    5.4504   -2.7802    1.0614 C   0  0  1  0  0  0  0  0  0  0  0  0
    5.0686   -4.2348    0.8187 C   0  0  0  0  0  0  0  0  0  0  0  0
    3.8459   -4.6542    0.5067 N   0  0  0  0  0  0  0  0  0  0  0  0
    3.8267   -5.9866    0.3678 C   0  0  0  0  0  0  0  0  0  0  0  0
    4.9670   -6.6813    0.5176 N   0  0  0  0  0  0  0  0  0  0  0  0
    6.1880   -5.5809    0.9010 S   0  0  0  0  0  0  0  0  0  0  0  0
    5.3130   -1.9151   -0.1954 C   0  0  1  0  0  0  0  0  0  0  0  0
    6.1154   -2.4352   -1.4028 C   0  0  0  0  0  0  0  0  0  0  0  0
    7.3262   -2.2662   -1.4701 O   0  0  0  0  0  0  0  0  0  0  0  0
    5.3423   -3.1641   -2.5145 C   0  0  0  0  0  0  0  0  0  0  0  0
    3.6596   -3.7907   -4.5954 H   0  0  0  0  0  0  0  0  0  0  0  0
    2.2217   -2.8835   -4.0624 H   0  0  0  0  0  0  0  0  0  0  0  0
    2.8420   -4.1708   -3.0829 H   0  0  0  0  0  0  0  0  0  0  0  0
    4.9069   -1.4499   -4.7163 H   0  0  0  0  0  0  0  0  0  0  0  0
    4.9381   -0.4667   -3.2523 H   0  0  0  0  0  0  0  0  0  0  0  0
    3.4326   -0.6709   -4.1439 H   0  0  0  0  0  0  0  0  0  0  0  0
    2.2629   -1.7500   -1.9540 H   0  0  0  0  0  0  0  0  0  0  0  0
    2.8457   -1.2086    3.5974 H   0  0  0  0  0  0  0  0  0  0  0  0
    6.5030   -2.7992    1.3527 H   0  0  0  0  0  0  0  0  0  0  0  0
    2.9068   -6.5024    0.1139 H   0  0  0  0  0  0  0  0  0  0  0  0
    5.7258   -0.9348    0.0380 H   0  0  0  0  0  0  0  0  0  0  0  0
    5.0659   -4.1469   -2.1289 H   0  0  0  0  0  0  0  0  0  0  0  0
    5.9931   -3.3381   -3.3697 H   0  0  0  0  0  0  0  0  0  0  0  0
    5.1858   -1.2665    2.5334 H   0  0  0  0  0  0  0  0  0  0  0  0
  1  2  1  0
  1 22  1  0
  1 23  1  0
  1 24  1  0
  2 21  1  0
  2  3  1  0
  2  4  1  0
  3 25  1  0
  3 26  1  0
  3 27  1  0
  4  5  2  0
  4 28  1  0
  5 18  1  0
  5  6  1  0
  6  7  1  0
  7  8  1  0
  7  9  1  0
  8 29  1  0
  9 10  1  0
  9 12  1  0
  9 35  1  1
 10 11  3  0
 12 13  1  0
 12 18  1  0
 12 30  1  1
 13 17  1  0
 13 14  2  0
 14 15  1  0
 15 16  2  0
 15 31  1  0
 16 17  1  0
 18 19  1  0
 18 32  1  1
 19 20  2  0
 19 21  1  0
 21 33  1  0
 21 34  1  0
M  CHG  2   7   1   8  -1
M  END
>  <i_m_ct_stereo_status>  (193) 
1

>  <s_m_source_file>  (193) 
/var/tmp/pbs.5076255.sched01/tmpbaygurib/766rrai79r.sdf

>  <i_m_source_file_index>  (193) 
8

>  <i_lp_mmshare_version>  (193) 
48012

>  <i_f3d_flags>  (193) 
0

>  <s_epik_input>  (193) 
W0NIM11DKFtDSDNdKShbQ0hdPTEpW0NIMl1DKD1PKVtDQEBIXShDMTIpW0NAQEhdKFtDQEhdKEMjTilDKFxPMik9TlxbSF0pYzNuW2NIXW5zMw==

>  <s_epik_cmdline>  (193) 
J2VwaWtfcHl0aG9uJywgJy1waHQnLCAnMi4wJywgJy1waCcsICc3LjAnLCAnLXRuJywgJzgnLCAnLW1hJywgJzIwMCcsICctaW1hZScsICc8aW5maWxlLm1hZT4nLCAnLW9tYWUnLCAnPG91dGZpbGUubWFlPic=

>  <r_lp_tautomer_probability>  (193) 
0.99995

>  <r_epik_Ionization_Penalty>  (193) 
9.88663e-08

>  <r_epik_Ionization_Penalty_Charging>  (193) 
0

>  <r_epik_Ionization_Penalty_Neutral>  (193) 
9.88663e-08

>  <r_epik_State_Penalty>  (193) 
0.833952

>  <r_epik_Charging_Adjusted_Penalty>  (193) 
0.833952

>  <i_epik_Tot_Q>  (193) 
0

>  <i_epik_Tot_abs_Q>  (193) 
2

>  <s_lp_Force_Field>  (193) 
OPLS3e

>  <r_lp_Energy>  (193) 
7.96701

>  <b_lp_Chiralities_Consistent>  (193) 
1

>  <s_lp_Variant>  (193) 
61:0-1

>  <s_i_glide_gridfile>  (193) 
pfpi4k_grid

>  <i_i_glide_lignum>  (193) 
8

>  <i_i_glide_rotatable_bonds>  (193) 
2

>  <r_i_docking_score>  (193) 
-3.77273

>  <r_i_glide_ligand_efficiency>  (193) 
-0.179654

>  <r_i_glide_ligand_efficiency_sa>  (193) 
-0.495651

>  <r_i_glide_ligand_efficiency_ln>  (193) 
-0.9328

>  <r_i_glide_gscore>  (193) 
-3.77273

>  <r_i_glide_lipo>  (193) 
-0.865059

>  <r_i_glide_hbond>  (193) 
-0.16

>  <r_i_glide_metal>  (193) 
-0

>  <r_i_glide_rewards>  (193) 
-1.45825

>  <r_i_glide_evdw>  (193) 
-22.1422

>  <r_i_glide_ecoul>  (193) 
-2.33724

>  <r_i_glide_erotb>  (193) 
0.201394

>  <r_i_glide_esite>  (193) 
-0.0331162

>  <r_i_glide_emodel>  (193) 
-29.9254

>  <r_i_glide_energy>  (193) 
-24.4794

>  <r_i_glide_einternal>  (193) 
0.673883

>  <r_i_glide_intrahb_reward>  (193) 
-0

>  <i_i_glide_confnum>  (193) 
4

>  <i_i_glide_posenum>  (193) 
32

>  <r_i_glide_eff_state_penalty>  (193) 
0

>  <ligand_id>  (193) 
61

>  <original_smiles>  (193) 
CC1(C)C=C2OC(=N)C(C#N)C(c3ncns3)C2C(=O)C1

>  <smiles>  (193) 
[H][N-][C+]1OC2=C([H])C(C([H])([H])[H])(C([H])([H])[H])C([H])([H])C(=O)C2([H])C([H])(c2nc([H])ns2)C1([H])C#N

$$$$
61:0:1
     RDKit          3D

 35 37  0  0  1  0  0  0  0  0999 V2000
    3.3064   -3.2826   -3.5560 C   0  0  0  0  0  0  0  0  0  0  0  0
    4.1635   -2.3568   -2.6839 C   0  0  0  0  0  0  0  0  0  0  0  0
    4.4123   -1.0554   -3.4438 C   0  0  0  0  0  0  0  0  0  0  0  0
    3.3776   -1.9801   -1.4546 C   0  0  0  0  0  0  0  0  0  0  0  0
    3.8807   -1.8482   -0.2102 C   0  0  0  0  0  0  0  0  0  0  0  0
    3.0181   -1.6019    0.8266 O   0  0  0  0  0  0  0  0  0  0  0  0
    3.2538   -2.0840    2.0952 C   0  0  0  0  0  0  0  0  0  0  0  0
    2.4449   -1.5271    3.0015 N   0  0  0  0  0  0  0  0  0  0  0  0
    4.6464   -2.5469    2.5056 C   0  0  1  0  0  0  0  0  0  0  0  0
    4.6085   -3.5281    3.6074 C   0  0  0  0  0  0  0  0  0  0  0  0
    4.5849   -4.2945    4.4731 N   0  0  0  0  0  0  0  0  0  0  0  0
    5.4763   -3.0333    1.3131 C   0  0  1  0  0  0  0  0  0  0  0  0
    5.1707   -4.4880    0.9588 C   0  0  0  0  0  0  0  0  0  0  0  0
    5.9980   -5.5065    1.1893 N   0  0  0  0  0  0  0  0  0  0  0  0
    5.4231   -6.6699    0.8348 C   0  0  0  0  0  0  0  0  0  0  0  0
    4.2131   -6.6611    0.2668 N   0  0  0  0  0  0  0  0  0  0  0  0
    3.6577   -5.0721    0.2819 S   0  0  0  0  0  0  0  0  0  0  0  0
    5.3461   -2.0513    0.1400 C   0  0  1  0  0  0  0  0  0  0  0  0
    6.1906   -2.4583   -1.0854 C   0  0  0  0  0  0  0  0  0  0  0  0
    7.4034   -2.2763   -1.0975 O   0  0  0  0  0  0  0  0  0  0  0  0
    5.4620   -3.0999   -2.2787 C   0  0  0  0  0  0  0  0  0  0  0  0
    3.8332   -3.6090   -4.4503 H   0  0  0  0  0  0  0  0  0  0  0  0
    2.3481   -2.8398   -3.8402 H   0  0  0  0  0  0  0  0  0  0  0  0
    3.0784   -4.1669   -2.9798 H   0  0  0  0  0  0  0  0  0  0  0  0
    4.9879   -1.2447   -4.3433 H   0  0  0  0  0  0  0  0  0  0  0  0
    4.9649   -0.3547   -2.8111 H   0  0  0  0  0  0  0  0  0  0  0  0
    3.4696   -0.5708   -3.7227 H   0  0  0  0  0  0  0  0  0  0  0  0
    2.3217   -1.8990   -1.6319 H   0  0  0  0  0  0  0  0  0  0  0  0
    2.7814   -1.8053    3.9344 H   0  0  0  0  0  0  0  0  0  0  0  0
    6.5219   -3.0345    1.6180 H   0  0  0  0  0  0  0  0  0  0  0  0
    5.9708   -7.5982    0.9324 H   0  0  0  0  0  0  0  0  0  0  0  0
    5.7165   -1.0799    0.4724 H   0  0  0  0  0  0  0  0  0  0  0  0
    5.2245   -4.1275   -2.0005 H   0  0  0  0  0  0  0  0  0  0  0  0
    6.1300   -3.1626   -3.1357 H   0  0  0  0  0  0  0  0  0  0  0  0
    5.1428   -1.6665    2.9132 H   0  0  0  0  0  0  0  0  0  0  0  0
  1  2  1  0
  1 22  1  0
  1 23  1  0
  1 24  1  0
  2 21  1  0
  2  3  1  0
  2  4  1  0
  3 25  1  0
  3 26  1  0
  3 27  1  0
  4  5  2  0
  4 28  1  0
  5 18  1  0
  5  6  1  0
  6  7  1  0
  7  8  1  0
  7  9  1  0
  8 29  1  0
  9 10  1  0
  9 12  1  0
  9 35  1  1
 10 11  3  0
 12 13  1  0
 12 18  1  0
 12 30  1  1
 13 17  1  0
 13 14  2  0
 14 15  1  0
 15 16  2  0
 15 31  1  0
 16 17  1  0
 18 19  1  0
 18 32  1  1
 19 20  2  0
 19 21  1  0
 21 33  1  0
 21 34  1  0
M  CHG  2   7   1   8  -1
M  END
>  <i_m_ct_stereo_status>  (194) 
1

>  <s_m_source_file>  (194) 
/var/tmp/pbs.5076255.sched01/tmpbaygurib/766rrai79r.sdf

>  <i_m_source_file_index>  (194) 
8

>  <i_lp_mmshare_version>  (194) 
48012

>  <i_f3d_flags>  (194) 
0

>  <s_epik_input>  (194) 
W0NIM11DKFtDSDNdKShbQ0hdPTEpW0NIMl1DKD1PKVtDQEBIXShDMTIpW0NAQEhdKFtDQEhdKEMjTilDKFxPMik9TlxbSF0pYzNuW2NIXW5zMw==

>  <s_epik_cmdline>  (194) 
J2VwaWtfcHl0aG9uJywgJy1waHQnLCAnMi4wJywgJy1waCcsICc3LjAnLCAnLXRuJywgJzgnLCAnLW1hJywgJzIwMCcsICctaW1hZScsICc8aW5maWxlLm1hZT4nLCAnLW9tYWUnLCAnPG91dGZpbGUubWFlPic=

>  <r_lp_tautomer_probability>  (194) 
0.99995

>  <r_epik_Ionization_Penalty>  (194) 
9.88663e-08

>  <r_epik_Ionization_Penalty_Charging>  (194) 
0

>  <r_epik_Ionization_Penalty_Neutral>  (194) 
9.88663e-08

>  <r_epik_State_Penalty>  (194) 
0.833952

>  <r_epik_Charging_Adjusted_Penalty>  (194) 
0.833952

>  <i_epik_Tot_Q>  (194) 
0

>  <i_epik_Tot_abs_Q>  (194) 
2

>  <s_lp_Force_Field>  (194) 
OPLS3e

>  <r_lp_Energy>  (194) 
7.96701

>  <b_lp_Chiralities_Consistent>  (194) 
1

>  <s_lp_Variant>  (194) 
61:0-1

>  <s_i_glide_gridfile>  (194) 
pfpi4k_grid

>  <i_i_glide_lignum>  (194) 
8

>  <i_i_glide_rotatable_bonds>  (194) 
2

>  <r_i_docking_score>  (194) 
-3.656

>  <r_i_glide_ligand_efficiency>  (194) 
-0.174095

>  <r_i_glide_ligand_efficiency_sa>  (194) 
-0.480315

>  <r_i_glide_ligand_efficiency_ln>  (194) 
-0.903938

>  <r_i_glide_gscore>  (194) 
-3.656

>  <r_i_glide_lipo>  (194) 
-0.782997

>  <r_i_glide_hbond>  (194) 
-0.16

>  <r_i_glide_metal>  (194) 
-0

>  <r_i_glide_rewards>  (194) 
-1.49008

>  <r_i_glide_evdw>  (194) 
-21.2849

>  <r_i_glide_ecoul>  (194) 
-2.20736

>  <r_i_glide_erotb>  (194) 
0.201394

>  <r_i_glide_esite>  (194) 
-0.0289616

>  <r_i_glide_emodel>  (194) 
-28.4719

>  <r_i_glide_energy>  (194) 
-23.4923

>  <r_i_glide_einternal>  (194) 
0.987141

>  <r_i_glide_intrahb_reward>  (194) 
-0

>  <i_i_glide_confnum>  (194) 
3

>  <i_i_glide_posenum>  (194) 
30

>  <r_i_glide_eff_state_penalty>  (194) 
0

>  <ligand_id>  (194) 
61

>  <original_smiles>  (194) 
CC1(C)C=C2OC(=N)C(C#N)C(c3ncns3)C2C(=O)C1

>  <smiles>  (194) 
[H][N-][C+]1OC2=C([H])C(C([H])([H])[H])(C([H])([H])[H])C([H])([H])C(=O)C2([H])C([H])(c2nc([H])ns2)C1([H])C#N

$$$$
61:0:2
     RDKit          3D

 35 37  0  0  1  0  0  0  0  0999 V2000
    2.5721   -3.1084   -3.7343 C   0  0  0  0  0  0  0  0  0  0  0  0
    3.7495   -2.3072   -3.1730 C   0  0  0  0  0  0  0  0  0  0  0  0
    4.1973   -1.2451   -4.1812 C   0  0  0  0  0  0  0  0  0  0  0  0
    3.2735   -1.5477   -1.9611 C   0  0  0  0  0  0  0  0  0  0  0  0
    3.9599   -1.3917   -0.8153 C   0  0  0  0  0  0  0  0  0  0  0  0
    3.3885   -0.7262    0.2408 O   0  0  0  0  0  0  0  0  0  0  0  0
    3.6505   -1.1001    1.5347 C   0  0  0  0  0  0  0  0  0  0  0  0
    3.1678   -0.1998    2.3957 N   0  0  0  0  0  0  0  0  0  0  0  0
    4.9420   -1.8422    1.8783 C   0  0  1  0  0  0  0  0  0  0  0  0
    4.8290   -2.6035    3.1367 C   0  0  0  0  0  0  0  0  0  0  0  0
    4.7375   -3.2044    4.1247 N   0  0  0  0  0  0  0  0  0  0  0  0
    5.4468   -2.7118    0.7179 C   0  0  1  0  0  0  0  0  0  0  0  0
    4.7528   -4.0709    0.6496 C   0  0  0  0  0  0  0  0  0  0  0  0
    5.3800   -5.2391    0.5871 N   0  0  0  0  0  0  0  0  0  0  0  0
    4.5022   -6.2542    0.5572 C   0  0  0  0  0  0  0  0  0  0  0  0
    3.1888   -5.9795    0.5739 N   0  0  0  0  0  0  0  0  0  0  0  0
    3.0136   -4.3125    0.6061 S   0  0  0  0  0  0  0  0  0  0  0  0
    5.3612   -1.9152   -0.5825 C   0  0  1  0  0  0  0  0  0  0  0  0
    5.8995   -2.6630   -1.8038 C   0  0  0  0  0  0  0  0  0  0  0  0
    7.1078   -2.7446   -1.9608 O   0  0  0  0  0  0  0  0  0  0  0  0
    4.8864   -3.2826   -2.7808 C   0  0  0  0  0  0  0  0  0  0  0  0
    2.8718   -3.6619   -4.6173 H   0  0  0  0  0  0  0  0  0  0  0  0
    1.7271   -2.4720   -4.0086 H   0  0  0  0  0  0  0  0  0  0  0  0
    2.2072   -3.8298   -3.0005 H   0  0  0  0  0  0  0  0  0  0  0  0
    4.5901   -1.6764   -5.0940 H   0  0  0  0  0  0  0  0  0  0  0  0
    4.9900   -0.6581   -3.7264 H   0  0  0  0  0  0  0  0  0  0  0  0
    3.3798   -0.5680   -4.4478 H   0  0  0  0  0  0  0  0  0  0  0  0
    2.2823   -1.1497   -2.0775 H   0  0  0  0  0  0  0  0  0  0  0  0
    3.5209   -0.4339    3.3308 H   0  0  0  0  0  0  0  0  0  0  0  0
    6.4990   -2.9315    0.9068 H   0  0  0  0  0  0  0  0  0  0  0  0
    4.8429   -7.2810    0.5313 H   0  0  0  0  0  0  0  0  0  0  0  0
    5.9850   -1.0267   -0.4763 H   0  0  0  0  0  0  0  0  0  0  0  0
    4.4582   -4.1564   -2.2898 H   0  0  0  0  0  0  0  0  0  0  0  0
    5.3845   -3.6525   -3.6740 H   0  0  0  0  0  0  0  0  0  0  0  0
    5.6845   -1.0609    2.0617 H   0  0  0  0  0  0  0  0  0  0  0  0
  1  2  1  0
  1 22  1  0
  1 23  1  0
  1 24  1  0
  2 21  1  0
  2  3  1  0
  2  4  1  0
  3 25  1  0
  3 26  1  0
  3 27  1  0
  4  5  2  0
  4 28  1  0
  5 18  1  0
  5  6  1  0
  6  7  1  0
  7  8  1  0
  7  9  1  0
  8 29  1  0
  9 10  1  0
  9 12  1  0
  9 35  1  1
 10 11  3  0
 12 13  1  0
 12 18  1  0
 12 30  1  1
 13 17  1  0
 13 14  2  0
 14 15  1  0
 15 16  2  0
 15 31  1  0
 16 17  1  0
 18 19  1  0
 18 32  1  1
 19 20  2  0
 19 21  1  0
 21 33  1  0
 21 34  1  0
M  CHG  2   7   1   8  -1
M  END
>  <i_m_ct_stereo_status>  (195) 
1

>  <s_m_source_file>  (195) 
/var/tmp/pbs.5076255.sched01/tmpbaygurib/766rrai79r.sdf

>  <i_m_source_file_index>  (195) 
8

>  <i_lp_mmshare_version>  (195) 
48012

>  <i_f3d_flags>  (195) 
0

>  <s_epik_input>  (195) 
W0NIM11DKFtDSDNdKShbQ0hdPTEpW0NIMl1DKD1PKVtDQEBIXShDMTIpW0NAQEhdKFtDQEhdKEMjTilDKFxPMik9TlxbSF0pYzNuW2NIXW5zMw==

>  <s_epik_cmdline>  (195) 
J2VwaWtfcHl0aG9uJywgJy1waHQnLCAnMi4wJywgJy1waCcsICc3LjAnLCAnLXRuJywgJzgnLCAnLW1hJywgJzIwMCcsICctaW1hZScsICc8aW5maWxlLm1hZT4nLCAnLW9tYWUnLCAnPG91dGZpbGUubWFlPic=

>  <r_lp_tautomer_probability>  (195) 
0.99995

>  <r_epik_Ionization_Penalty>  (195) 
9.88663e-08

>  <r_epik_Ionization_Penalty_Charging>  (195) 
0

>  <r_epik_Ionization_Penalty_Neutral>  (195) 
9.88663e-08

>  <r_epik_State_Penalty>  (195) 
0.833952

>  <r_epik_Charging_Adjusted_Penalty>  (195) 
0.833952

>  <i_epik_Tot_Q>  (195) 
0

>  <i_epik_Tot_abs_Q>  (195) 
2

>  <s_lp_Force_Field>  (195) 
OPLS3e

>  <r_lp_Energy>  (195) 
7.96701

>  <b_lp_Chiralities_Consistent>  (195) 
1

>  <s_lp_Variant>  (195) 
61:0-1

>  <s_i_glide_gridfile>  (195) 
pfpi4k_grid

>  <i_i_glide_lignum>  (195) 
8

>  <i_i_glide_rotatable_bonds>  (195) 
2

>  <r_i_docking_score>  (195) 
-3.56463

>  <r_i_glide_ligand_efficiency>  (195) 
-0.169744

>  <r_i_glide_ligand_efficiency_sa>  (195) 
-0.468312

>  <r_i_glide_ligand_efficiency_ln>  (195) 
-0.881348

>  <r_i_glide_gscore>  (195) 
-3.56463

>  <r_i_glide_lipo>  (195) 
-0.631791

>  <r_i_glide_hbond>  (195) 
-0.0783695

>  <r_i_glide_metal>  (195) 
-0

>  <r_i_glide_rewards>  (195) 
-1.58698

>  <r_i_glide_evdw>  (195) 
-26.9035

>  <r_i_glide_ecoul>  (195) 
-0.782946

>  <r_i_glide_erotb>  (195) 
0.201394

>  <r_i_glide_esite>  (195) 
-0.00626374

>  <r_i_glide_emodel>  (195) 
-32.8767

>  <r_i_glide_energy>  (195) 
-27.6865

>  <r_i_glide_einternal>  (195) 
0.514555

>  <r_i_glide_intrahb_reward>  (195) 
-0

>  <i_i_glide_confnum>  (195) 
1

>  <i_i_glide_posenum>  (195) 
1

>  <r_i_glide_eff_state_penalty>  (195) 
0

>  <ligand_id>  (195) 
61

>  <original_smiles>  (195) 
CC1(C)C=C2OC(=N)C(C#N)C(c3ncns3)C2C(=O)C1

>  <smiles>  (195) 
[H][N-][C+]1OC2=C([H])C(C([H])([H])[H])(C([H])([H])[H])C([H])([H])C(=O)C2([H])C([H])(c2nc([H])ns2)C1([H])C#N

$$$$
61:1:0
     RDKit          3D

 35 37  0  0  1  0  0  0  0  0999 V2000
    4.1431   -1.0186   -3.5523 C   0  0  0  0  0  0  0  0  0  0  0  0
    3.8983   -2.4481   -3.0448 C   0  0  0  0  0  0  0  0  0  0  0  0
    3.6625   -3.3919   -4.2199 C   0  0  0  0  0  0  0  0  0  0  0  0
    5.1209   -2.9399   -2.3036 C   0  0  0  0  0  0  0  0  0  0  0  0
    5.0789   -3.6513   -1.1741 C   0  0  0  0  0  0  0  0  0  0  0  0
    6.2749   -3.9517   -0.5829 O   0  0  0  0  0  0  0  0  0  0  0  0
    6.3899   -4.1050    0.7830 C   0  0  0  0  0  0  0  0  0  0  0  0
    7.5392   -4.0294    1.2778 N   0  0  0  0  0  0  0  0  0  0  0  0
    5.1196   -4.3753    1.5952 C   0  0  1  0  0  0  0  0  0  0  0  0
    5.2627   -4.0043    3.0142 C   0  0  0  0  0  0  0  0  0  0  0  0
    5.3640   -3.7138    4.1300 N   0  0  0  0  0  0  0  0  0  0  0  0
    3.8427   -3.7816    0.9931 C   0  0  1  0  0  0  0  0  0  0  0  0
    3.6553   -2.2985    1.3081 C   0  0  0  0  0  0  0  0  0  0  0  0
    2.6029   -1.8085    1.9642 N   0  0  0  0  0  0  0  0  0  0  0  0
    2.6913   -0.4717    2.0785 C   0  0  0  0  0  0  0  0  0  0  0  0
    3.7648    0.1548    1.5726 N   0  0  0  0  0  0  0  0  0  0  0  0
    4.7529   -1.0053    0.8615 S   0  0  0  0  0  0  0  0  0  0  0  0
    3.8009   -4.1210   -0.4914 C   0  0  1  0  0  0  0  0  0  0  0  0
    2.5382   -3.6376   -1.2159 C   0  0  0  0  0  0  0  0  0  0  0  0
    1.4610   -4.2369   -1.1207 O   0  0  0  0  0  0  0  0  0  0  0  0
    2.6752   -2.4166   -2.1168 C   0  0  0  0  0  0  0  0  0  0  0  0
    3.2758   -0.6205   -4.0801 H   0  0  0  0  0  0  0  0  0  0  0  0
    4.9929   -0.9867   -4.2312 H   0  0  0  0  0  0  0  0  0  0  0  0
    4.3533   -0.3427   -2.7208 H   0  0  0  0  0  0  0  0  0  0  0  0
    2.7752   -3.0810   -4.7699 H   0  0  0  0  0  0  0  0  0  0  0  0
    3.5051   -4.4247   -3.9289 H   0  0  0  0  0  0  0  0  0  0  0  0
    4.5556   -3.4377   -4.8368 H   0  0  0  0  0  0  0  0  0  0  0  0
    6.0717   -2.6427   -2.7197 H   0  0  0  0  0  0  0  0  0  0  0  0
    5.0064   -5.4601    1.6033 H   0  0  0  0  0  0  0  0  0  0  0  0
    2.9974   -4.2929    1.4648 H   0  0  0  0  0  0  0  0  0  0  0  0
    1.9240    0.0936    2.5931 H   0  0  0  0  0  0  0  0  0  0  0  0
    3.8031   -5.2033   -0.5893 H   0  0  0  0  0  0  0  0  0  0  0  0
    2.7524   -1.5497   -1.4575 H   0  0  0  0  0  0  0  0  0  0  0  0
    1.7653   -2.2818   -2.6983 H   0  0  0  0  0  0  0  0  0  0  0  0
    8.2379   -3.7990    0.5860 H   0  0  0  0  0  0  0  0  0  0  0  0
  1  2  1  0
  1 22  1  0
  1 23  1  0
  1 24  1  0
  2 21  1  0
  2  3  1  0
  2  4  1  0
  3 25  1  0
  3 26  1  0
  3 27  1  0
  4  5  2  0
  4 28  1  0
  5 18  1  0
  5  6  1  0
  6  7  1  0
  7  8  2  3
  7  9  1  0
  8 35  1  0
  9 10  1  0
  9 12  1  0
  9 29  1  1
 10 11  3  0
 12 13  1  0
 12 18  1  0
 12 30  1  1
 13 17  1  0
 13 14  2  0
 14 15  1  0
 15 16  2  0
 15 31  1  0
 16 17  1  0
 18 19  1  0
 18 32  1  1
 19 20  2  0
 19 21  1  0
 21 33  1  0
 21 34  1  0
M  END
>  <i_m_ct_stereo_status>  (196) 
1

>  <s_m_source_file>  (196) 
/var/tmp/pbs.5076255.sched01/tmpbaygurib/766rrai79r.sdf

>  <i_m_source_file_index>  (196) 
9

>  <i_lp_mmshare_version>  (196) 
48012

>  <i_f3d_flags>  (196) 
0

>  <s_epik_input>  (196) 
W0NIM11DKFtDSDNdKShbQ0hdPTEpW0NIMl1DKD1PKVtDQEBIXShDMTIpW0NAQEhdKFtDQEhdKEMjTilDKFxPMik9TlxbSF0pYzNuW2NIXW5zMw==

>  <s_epik_cmdline>  (196) 
J2VwaWtfcHl0aG9uJywgJy1waHQnLCAnMi4wJywgJy1waCcsICc3LjAnLCAnLXRuJywgJzgnLCAnLW1hJywgJzIwMCcsICctaW1hZScsICc8aW5maWxlLm1hZT4nLCAnLW9tYWUnLCAnPG91dGZpbGUubWFlPic=

>  <r_lp_tautomer_probability>  (196) 
0.99995

>  <r_epik_Ionization_Penalty>  (196) 
0.0697986

>  <r_epik_Ionization_Penalty_Charging>  (196) 
0

>  <r_epik_Ionization_Penalty_Neutral>  (196) 
0.0697986

>  <r_epik_State_Penalty>  (196) 
0.833952

>  <r_epik_Charging_Adjusted_Penalty>  (196) 
0.833952

>  <i_epik_Tot_Q>  (196) 
0

>  <i_epik_Tot_abs_Q>  (196) 
0

>  <s_epik_Chemistry_Notes>  (196) 
This compound has an imine and may undergo hydrolysis.

>  <s_lp_Force_Field>  (196) 
OPLS3e

>  <r_lp_Energy>  (196) 
7.65344

>  <b_lp_Chiralities_Consistent>  (196) 
1

>  <s_lp_Variant>  (196) 
61:0-2

>  <s_i_glide_gridfile>  (196) 
pfpi4k_grid

>  <i_i_glide_lignum>  (196) 
9

>  <i_i_glide_rotatable_bonds>  (196) 
2

>  <r_i_docking_score>  (196) 
-3.20255

>  <r_i_glide_ligand_efficiency>  (196) 
-0.152502

>  <r_i_glide_ligand_efficiency_sa>  (196) 
-0.420742

>  <r_i_glide_ligand_efficiency_ln>  (196) 
-0.791823

>  <r_i_glide_gscore>  (196) 
-3.20255

>  <r_i_glide_lipo>  (196) 
-0.639768

>  <r_i_glide_hbond>  (196) 
-0.00296209

>  <r_i_glide_metal>  (196) 
-0

>  <r_i_glide_rewards>  (196) 
-1.51659

>  <r_i_glide_evdw>  (196) 
-20.0621

>  <r_i_glide_ecoul>  (196) 
-1.39371

>  <r_i_glide_erotb>  (196) 
0.201394

>  <r_i_glide_esite>  (196) 
-0.0324636

>  <r_i_glide_emodel>  (196) 
-25.6185

>  <r_i_glide_energy>  (196) 
-21.4558

>  <r_i_glide_einternal>  (196) 
0.788919

>  <r_i_glide_intrahb_reward>  (196) 
-0

>  <i_i_glide_confnum>  (196) 
1

>  <i_i_glide_posenum>  (196) 
22

>  <r_i_glide_eff_state_penalty>  (196) 
0

>  <ligand_id>  (196) 
61

>  <original_smiles>  (196) 
CC1(C)C=C2OC(=N)C(C#N)C(c3ncns3)C2C(=O)C1

>  <smiles>  (196) 
[H]N=C1OC2=C([H])C(C([H])([H])[H])(C([H])([H])[H])C([H])([H])C(=O)C2([H])C([H])(c2nc([H])ns2)C1([H])C#N

$$$$
61:1:1
     RDKit          3D

 35 37  0  0  1  0  0  0  0  0999 V2000
    4.5155   -1.1763   -1.7360 C   0  0  0  0  0  0  0  0  0  0  0  0
    4.6735   -2.2113   -0.6077 C   0  0  0  0  0  0  0  0  0  0  0  0
    5.4638   -3.4299   -1.1104 C   0  0  0  0  0  0  0  0  0  0  0  0
    5.4606   -1.5874    0.5289 C   0  0  0  0  0  0  0  0  0  0  0  0
    5.1887   -1.7655    1.8296 C   0  0  0  0  0  0  0  0  0  0  0  0
    5.9229   -1.0353    2.7325 O   0  0  0  0  0  0  0  0  0  0  0  0
    5.4014   -0.6283    3.9431 C   0  0  0  0  0  0  0  0  0  0  0  0
    5.9825    0.2990    4.5705 N   0  0  0  0  0  0  0  0  0  0  0  0
    4.1619   -1.3506    4.4764 C   0  0  1  0  0  0  0  0  0  0  0  0
    3.4418   -0.5258    5.4607 C   0  0  0  0  0  0  0  0  0  0  0  0
    2.8754    0.1188    6.2382 N   0  0  0  0  0  0  0  0  0  0  0  0
    3.2416   -1.9060    3.3858 C   0  0  1  0  0  0  0  0  0  0  0  0
    2.3221   -0.8428    2.7899 C   0  0  0  0  0  0  0  0  0  0  0  0
    0.9998   -0.8293    2.9323 N   0  0  0  0  0  0  0  0  0  0  0  0
    0.4630    0.2426    2.3191 C   0  0  0  0  0  0  0  0  0  0  0  0
    1.2738    1.1078    1.6924 N   0  0  0  0  0  0  0  0  0  0  0  0
    2.8465    0.5479    1.8631 S   0  0  0  0  0  0  0  0  0  0  0  0
    4.0824   -2.6704    2.3643 C   0  0  1  0  0  0  0  0  0  0  0  0
    3.2675   -3.3195    1.2346 C   0  0  0  0  0  0  0  0  0  0  0  0
    2.6183   -4.3472    1.4243 O   0  0  0  0  0  0  0  0  0  0  0  0
    3.2604   -2.6237   -0.1250 C   0  0  0  0  0  0  0  0  0  0  0  0
    3.9329   -1.5725   -2.5691 H   0  0  0  0  0  0  0  0  0  0  0  0
    5.4751   -0.8326   -2.1212 H   0  0  0  0  0  0  0  0  0  0  0  0
    3.9947   -0.2938   -1.3692 H   0  0  0  0  0  0  0  0  0  0  0  0
    4.9454   -3.9443   -1.9217 H   0  0  0  0  0  0  0  0  0  0  0  0
    5.6086   -4.1488   -0.3027 H   0  0  0  0  0  0  0  0  0  0  0  0
    6.4559   -3.1376   -1.4578 H   0  0  0  0  0  0  0  0  0  0  0  0
    6.2439   -0.9018    0.2467 H   0  0  0  0  0  0  0  0  0  0  0  0
    4.5447   -2.1981    5.0429 H   0  0  0  0  0  0  0  0  0  0  0  0
    2.5733   -2.6254    3.8665 H   0  0  0  0  0  0  0  0  0  0  0  0
   -0.6083    0.4070    2.3160 H   0  0  0  0  0  0  0  0  0  0  0  0
    4.5830   -3.4875    2.8808 H   0  0  0  0  0  0  0  0  0  0  0  0
    2.6293   -1.7405   -0.0175 H   0  0  0  0  0  0  0  0  0  0  0  0
    2.7683   -3.2509   -0.8708 H   0  0  0  0  0  0  0  0  0  0  0  0
    6.7856    0.6241    4.0468 H   0  0  0  0  0  0  0  0  0  0  0  0
  1  2  1  0
  1 22  1  0
  1 23  1  0
  1 24  1  0
  2 21  1  0
  2  3  1  0
  2  4  1  0
  3 25  1  0
  3 26  1  0
  3 27  1  0
  4  5  2  0
  4 28  1  0
  5 18  1  0
  5  6  1  0
  6  7  1  0
  7  8  2  3
  7  9  1  0
  8 35  1  0
  9 10  1  0
  9 12  1  0
  9 29  1  1
 10 11  3  0
 12 13  1  0
 12 18  1  0
 12 30  1  1
 13 17  1  0
 13 14  2  0
 14 15  1  0
 15 16  2  0
 15 31  1  0
 16 17  1  0
 18 19  1  0
 18 32  1  1
 19 20  2  0
 19 21  1  0
 21 33  1  0
 21 34  1  0
M  END
>  <i_m_ct_stereo_status>  (197) 
1

>  <s_m_source_file>  (197) 
/var/tmp/pbs.5076255.sched01/tmpbaygurib/766rrai79r.sdf

>  <i_m_source_file_index>  (197) 
9

>  <i_lp_mmshare_version>  (197) 
48012

>  <i_f3d_flags>  (197) 
0

>  <s_epik_input>  (197) 
W0NIM11DKFtDSDNdKShbQ0hdPTEpW0NIMl1DKD1PKVtDQEBIXShDMTIpW0NAQEhdKFtDQEhdKEMjTilDKFxPMik9TlxbSF0pYzNuW2NIXW5zMw==

>  <s_epik_cmdline>  (197) 
J2VwaWtfcHl0aG9uJywgJy1waHQnLCAnMi4wJywgJy1waCcsICc3LjAnLCAnLXRuJywgJzgnLCAnLW1hJywgJzIwMCcsICctaW1hZScsICc8aW5maWxlLm1hZT4nLCAnLW9tYWUnLCAnPG91dGZpbGUubWFlPic=

>  <r_lp_tautomer_probability>  (197) 
0.99995

>  <r_epik_Ionization_Penalty>  (197) 
0.0697986

>  <r_epik_Ionization_Penalty_Charging>  (197) 
0

>  <r_epik_Ionization_Penalty_Neutral>  (197) 
0.0697986

>  <r_epik_State_Penalty>  (197) 
0.833952

>  <r_epik_Charging_Adjusted_Penalty>  (197) 
0.833952

>  <i_epik_Tot_Q>  (197) 
0

>  <i_epik_Tot_abs_Q>  (197) 
0

>  <s_epik_Chemistry_Notes>  (197) 
This compound has an imine and may undergo hydrolysis.

>  <s_lp_Force_Field>  (197) 
OPLS3e

>  <r_lp_Energy>  (197) 
7.65344

>  <b_lp_Chiralities_Consistent>  (197) 
1

>  <s_lp_Variant>  (197) 
61:0-2

>  <s_i_glide_gridfile>  (197) 
pfpi4k_grid

>  <i_i_glide_lignum>  (197) 
9

>  <i_i_glide_rotatable_bonds>  (197) 
2

>  <r_i_docking_score>  (197) 
-2.83634

>  <r_i_glide_ligand_efficiency>  (197) 
-0.135064

>  <r_i_glide_ligand_efficiency_sa>  (197) 
-0.372631

>  <r_i_glide_ligand_efficiency_ln>  (197) 
-0.701279

>  <r_i_glide_gscore>  (197) 
-2.83634

>  <r_i_glide_lipo>  (197) 
-0.31091

>  <r_i_glide_hbond>  (197) 
0

>  <r_i_glide_metal>  (197) 
-0

>  <r_i_glide_rewards>  (197) 
-1.46932

>  <r_i_glide_evdw>  (197) 
-22.8173

>  <r_i_glide_ecoul>  (197) 
-0.431323

>  <r_i_glide_erotb>  (197) 
0.201394

>  <r_i_glide_esite>  (197) 
-0.0519353

>  <r_i_glide_emodel>  (197) 
-26.8782

>  <r_i_glide_energy>  (197) 
-23.2487

>  <r_i_glide_einternal>  (197) 
0.864882

>  <r_i_glide_intrahb_reward>  (197) 
-0

>  <i_i_glide_confnum>  (197) 
2

>  <i_i_glide_posenum>  (197) 
1

>  <r_i_glide_eff_state_penalty>  (197) 
0

>  <ligand_id>  (197) 
61

>  <original_smiles>  (197) 
CC1(C)C=C2OC(=N)C(C#N)C(c3ncns3)C2C(=O)C1

>  <smiles>  (197) 
[H]N=C1OC2=C([H])C(C([H])([H])[H])(C([H])([H])[H])C([H])([H])C(=O)C2([H])C([H])(c2nc([H])ns2)C1([H])C#N

$$$$
61:1:2
     RDKit          3D

 35 37  0  0  1  0  0  0  0  0999 V2000
   -1.7557    2.4150    5.5322 C   0  0  0  0  0  0  0  0  0  0  0  0
   -0.9689    2.7758    4.2570 C   0  0  0  0  0  0  0  0  0  0  0  0
   -1.8439    2.5587    3.0078 C   0  0  0  0  0  0  0  0  0  0  0  0
   -0.5977    4.2439    4.3084 C   0  0  0  0  0  0  0  0  0  0  0  0
    0.5800    4.7474    3.8985 C   0  0  0  0  0  0  0  0  0  0  0  0
    0.7931    6.0943    4.0651 O   0  0  0  0  0  0  0  0  0  0  0  0
    2.0500    6.5938    4.3377 C   0  0  0  0  0  0  0  0  0  0  0  0
    2.1496    7.7294    4.8760 N   0  0  0  0  0  0  0  0  0  0  0  0
    3.2649    5.7425    3.9424 C   0  0  1  0  0  0  0  0  0  0  0  0
    4.4686    6.1388    4.6910 C   0  0  0  0  0  0  0  0  0  0  0  0
    5.4193    6.4460    5.2791 N   0  0  0  0  0  0  0  0  0  0  0  0
    3.0137    4.2297    3.9931 C   0  0  1  0  0  0  0  0  0  0  0  0
    3.1246    3.6470    5.3984 C   0  0  0  0  0  0  0  0  0  0  0  0
    2.3950    4.0285    6.4479 N   0  0  0  0  0  0  0  0  0  0  0  0
    2.7164    3.3195    7.5430 C   0  0  0  0  0  0  0  0  0  0  0  0
    3.6625    2.3709    7.4428 N   0  0  0  0  0  0  0  0  0  0  0  0
    4.2136    2.3558    5.8488 S   0  0  0  0  0  0  0  0  0  0  0  0
    1.7017    3.9180    3.2825 C   0  0  1  0  0  0  0  0  0  0  0  0
    1.3563    2.4202    3.2193 C   0  0  0  0  0  0  0  0  0  0  0  0
    1.9329    1.6620    2.4433 O   0  0  0  0  0  0  0  0  0  0  0  0
    0.3051    1.8971    4.2023 C   0  0  0  0  0  0  0  0  0  0  0  0
   -2.0338    1.3617    5.5447 H   0  0  0  0  0  0  0  0  0  0  0  0
   -2.6675    3.0054    5.6273 H   0  0  0  0  0  0  0  0  0  0  0  0
   -1.1518    2.6065    6.4202 H   0  0  0  0  0  0  0  0  0  0  0  0
   -2.1363    1.5153    2.8926 H   0  0  0  0  0  0  0  0  0  0  0  0
   -1.3039    2.8484    2.1035 H   0  0  0  0  0  0  0  0  0  0  0  0
   -2.7503    3.1662    3.0426 H   0  0  0  0  0  0  0  0  0  0  0  0
   -1.3295    4.9012    4.7460 H   0  0  0  0  0  0  0  0  0  0  0  0
    3.4743    6.0017    2.9028 H   0  0  0  0  0  0  0  0  0  0  0  0
    3.8084    3.7536    3.4166 H   0  0  0  0  0  0  0  0  0  0  0  0
    2.2199    3.5037    8.4851 H   0  0  0  0  0  0  0  0  0  0  0  0
    1.8147    4.2492    2.2496 H   0  0  0  0  0  0  0  0  0  0  0  0
    0.7781    1.8751    5.1846 H   0  0  0  0  0  0  0  0  0  0  0  0
    0.0487    0.8653    3.9593 H   0  0  0  0  0  0  0  0  0  0  0  0
    1.2403    8.1391    5.0335 H   0  0  0  0  0  0  0  0  0  0  0  0
  1  2  1  0
  1 22  1  0
  1 23  1  0
  1 24  1  0
  2 21  1  0
  2  3  1  0
  2  4  1  0
  3 25  1  0
  3 26  1  0
  3 27  1  0
  4  5  2  0
  4 28  1  0
  5 18  1  0
  5  6  1  0
  6  7  1  0
  7  8  2  3
  7  9  1  0
  8 35  1  0
  9 10  1  0
  9 12  1  0
  9 29  1  6
 10 11  3  0
 12 13  1  0
 12 18  1  0
 12 30  1  6
 13 17  1  0
 13 14  2  0
 14 15  1  0
 15 16  2  0
 15 31  1  0
 16 17  1  0
 18 19  1  0
 18 32  1  6
 19 20  2  0
 19 21  1  0
 21 33  1  0
 21 34  1  0
M  END
>  <i_m_ct_stereo_status>  (198) 
1

>  <s_m_source_file>  (198) 
/var/tmp/pbs.5076255.sched01/tmpbaygurib/766rrai79r.sdf

>  <i_m_source_file_index>  (198) 
9

>  <i_lp_mmshare_version>  (198) 
48012

>  <i_f3d_flags>  (198) 
0

>  <s_epik_input>  (198) 
W0NIM11DKFtDSDNdKShbQ0hdPTEpW0NIMl1DKD1PKVtDQEBIXShDMTIpW0NAQEhdKFtDQEhdKEMjTilDKFxPMik9TlxbSF0pYzNuW2NIXW5zMw==

>  <s_epik_cmdline>  (198) 
J2VwaWtfcHl0aG9uJywgJy1waHQnLCAnMi4wJywgJy1waCcsICc3LjAnLCAnLXRuJywgJzgnLCAnLW1hJywgJzIwMCcsICctaW1hZScsICc8aW5maWxlLm1hZT4nLCAnLW9tYWUnLCAnPG91dGZpbGUubWFlPic=

>  <r_lp_tautomer_probability>  (198) 
0.99995

>  <r_epik_Ionization_Penalty>  (198) 
0.0697986

>  <r_epik_Ionization_Penalty_Charging>  (198) 
0

>  <r_epik_Ionization_Penalty_Neutral>  (198) 
0.0697986

>  <r_epik_State_Penalty>  (198) 
0.833952

>  <r_epik_Charging_Adjusted_Penalty>  (198) 
0.833952

>  <i_epik_Tot_Q>  (198) 
0

>  <i_epik_Tot_abs_Q>  (198) 
0

>  <s_epik_Chemistry_Notes>  (198) 
This compound has an imine and may undergo hydrolysis.

>  <s_lp_Force_Field>  (198) 
OPLS3e

>  <r_lp_Energy>  (198) 
7.65344

>  <b_lp_Chiralities_Consistent>  (198) 
1

>  <s_lp_Variant>  (198) 
61:0-2

>  <s_i_glide_gridfile>  (198) 
pfpi4k_grid

>  <i_i_glide_lignum>  (198) 
9

>  <i_i_glide_rotatable_bonds>  (198) 
2

>  <r_i_docking_score>  (198) 
-2.47763

>  <r_i_glide_ligand_efficiency>  (198) 
-0.117982

>  <r_i_glide_ligand_efficiency_sa>  (198) 
-0.325504

>  <r_i_glide_ligand_efficiency_ln>  (198) 
-0.612588

>  <r_i_glide_gscore>  (198) 
-2.47763

>  <r_i_glide_lipo>  (198) 
-0.0649208

>  <r_i_glide_hbond>  (198) 
0

>  <r_i_glide_metal>  (198) 
-0

>  <r_i_glide_rewards>  (198) 
-1.3649

>  <r_i_glide_evdw>  (198) 
-21.2727

>  <r_i_glide_ecoul>  (198) 
-0.744383

>  <r_i_glide_erotb>  (198) 
0.201394

>  <r_i_glide_esite>  (198) 
-0.0739123

>  <r_i_glide_emodel>  (198) 
-25.1161

>  <r_i_glide_energy>  (198) 
-22.0171

>  <r_i_glide_einternal>  (198) 
0.918118

>  <r_i_glide_intrahb_reward>  (198) 
-0

>  <i_i_glide_confnum>  (198) 
1

>  <i_i_glide_posenum>  (198) 
36

>  <r_i_glide_eff_state_penalty>  (198) 
0

>  <ligand_id>  (198) 
61

>  <original_smiles>  (198) 
CC1(C)C=C2OC(=N)C(C#N)C(c3ncns3)C2C(=O)C1

>  <smiles>  (198) 
[H]N=C1OC2=C([H])C(C([H])([H])[H])(C([H])([H])[H])C([H])([H])C(=O)C2([H])C([H])(c2nc([H])ns2)C1([H])C#N

$$$$
61:2:0
     RDKit          3D

 35 37  0  0  1  0  0  0  0  0999 V2000
    4.1433   -1.0177   -3.5422 C   0  0  0  0  0  0  0  0  0  0  0  0
    3.8973   -2.4483   -3.0386 C   0  0  0  0  0  0  0  0  0  0  0  0
    3.6599   -3.3901   -4.2162 C   0  0  0  0  0  0  0  0  0  0  0  0
    5.1205   -2.9389   -2.3001 C   0  0  0  0  0  0  0  0  0  0  0  0
    5.0807   -3.6616   -1.1733 C   0  0  0  0  0  0  0  0  0  0  0  0
    6.2738   -3.9795   -0.5813 O   0  0  0  0  0  0  0  0  0  0  0  0
    6.3945   -4.1106    0.7832 C   0  0  0  0  0  0  0  0  0  0  0  0
    7.5432   -4.0272    1.2831 N   0  0  0  0  0  0  0  0  0  0  0  0
    5.1157   -4.3807    1.5949 C   0  0  1  0  0  0  0  0  0  0  0  0
    5.2641   -4.0166    3.0149 C   0  0  0  0  0  0  0  0  0  0  0  0
    5.3755   -3.7329    4.1299 N   0  0  0  0  0  0  0  0  0  0  0  0
    3.8396   -3.7881    0.9957 C   0  0  1  0  0  0  0  0  0  0  0  0
    3.6535   -2.3073    1.3103 C   0  0  0  0  0  0  0  0  0  0  0  0
    2.6086   -1.8189    1.9775 N   0  0  0  0  0  0  0  0  0  0  0  0
    2.6967   -0.4824    2.0944 C   0  0  0  0  0  0  0  0  0  0  0  0
    3.7656    0.1434    1.5812 N   0  0  0  0  0  0  0  0  0  0  0  0
    4.7443   -1.0083    0.8634 S   0  0  0  0  0  0  0  0  0  0  0  0
    3.7983   -4.1275   -0.4868 C   0  0  1  0  0  0  0  0  0  0  0  0
    2.5375   -3.6399   -1.2162 C   0  0  0  0  0  0  0  0  0  0  0  0
    1.4622   -4.2389   -1.1215 O   0  0  0  0  0  0  0  0  0  0  0  0
    2.6776   -2.4164   -2.1104 C   0  0  0  0  0  0  0  0  0  0  0  0
    3.2727   -0.6161   -4.0659 H   0  0  0  0  0  0  0  0  0  0  0  0
    4.9943   -0.9804   -4.2210 H   0  0  0  0  0  0  0  0  0  0  0  0
    4.3526   -0.3435   -2.7084 H   0  0  0  0  0  0  0  0  0  0  0  0
    2.7689   -3.0807   -4.7659 H   0  0  0  0  0  0  0  0  0  0  0  0
    3.5047   -4.4240   -3.9255 H   0  0  0  0  0  0  0  0  0  0  0  0
    4.5512   -3.4339   -4.8382 H   0  0  0  0  0  0  0  0  0  0  0  0
    6.0722   -2.6476   -2.7120 H   0  0  0  0  0  0  0  0  0  0  0  0
    7.5699   -4.0977    2.2919 H   0  0  0  0  0  0  0  0  0  0  0  0
    5.0071   -5.4647    1.5986 H   0  0  0  0  0  0  0  0  0  0  0  0
    2.9986   -4.3022    1.4650 H   0  0  0  0  0  0  0  0  0  0  0  0
    1.9320    0.0771    2.6164 H   0  0  0  0  0  0  0  0  0  0  0  0
    3.7999   -5.2133   -0.5906 H   0  0  0  0  0  0  0  0  0  0  0  0
    2.7538   -1.5567   -1.4444 H   0  0  0  0  0  0  0  0  0  0  0  0
    1.7641   -2.2760   -2.6888 H   0  0  0  0  0  0  0  0  0  0  0  0
  1  2  1  0
  1 22  1  0
  1 23  1  0
  1 24  1  0
  2 21  1  0
  2  3  1  0
  2  4  1  0
  3 25  1  0
  3 26  1  0
  3 27  1  0
  4  5  2  0
  4 28  1  0
  5 18  1  0
  5  6  1  0
  6  7  1  0
  7  8  2  3
  7  9  1  0
  8 29  1  0
  9 10  1  0
  9 12  1  0
  9 30  1  1
 10 11  3  0
 12 13  1  0
 12 18  1  0
 12 31  1  1
 13 17  1  0
 13 14  2  0
 14 15  1  0
 15 16  2  0
 15 32  1  0
 16 17  1  0
 18 19  1  0
 18 33  1  1
 19 20  2  0
 19 21  1  0
 21 34  1  0
 21 35  1  0
M  END
>  <i_m_ct_stereo_status>  (199) 
1

>  <s_m_source_file>  (199) 
/var/tmp/pbs.5076255.sched01/tmpbaygurib/766rrai79r.sdf

>  <i_m_source_file_index>  (199) 
10

>  <i_lp_mmshare_version>  (199) 
48012

>  <i_f3d_flags>  (199) 
0

>  <s_epik_input>  (199) 
W0NIM11DKFtDSDNdKShbQ0hdPTEpW0NIMl1DKD1PKVtDQEBIXShDMTIpW0NAQEhdKFtDQEhdKEMjTilDKFxPMik9TlxbSF0pYzNuW2NIXW5zMw==

>  <s_epik_cmdline>  (199) 
J2VwaWtfcHl0aG9uJywgJy1waHQnLCAnMi4wJywgJy1waCcsICc3LjAnLCAnLXRuJywgJzgnLCAnLW1hJywgJzIwMCcsICctaW1hZScsICc8aW5maWxlLm1hZT4nLCAnLW9tYWUnLCAnPG91dGZpbGUubWFlPic=

>  <r_lp_tautomer_probability>  (199) 
0.99995

>  <r_epik_Ionization_Penalty>  (199) 
0.0697986

>  <r_epik_Ionization_Penalty_Charging>  (199) 
0

>  <r_epik_Ionization_Penalty_Neutral>  (199) 
0.0697986

>  <r_epik_State_Penalty>  (199) 
0.833952

>  <r_epik_Charging_Adjusted_Penalty>  (199) 
0.833952

>  <i_epik_Tot_Q>  (199) 
0

>  <i_epik_Tot_abs_Q>  (199) 
0

>  <s_epik_Chemistry_Notes>  (199) 
This compound has an imine and may undergo hydrolysis.

>  <s_lp_Force_Field>  (199) 
OPLS3e

>  <r_lp_Energy>  (199) 
7.11567

>  <b_lp_Chiralities_Consistent>  (199) 
1

>  <s_lp_Variant>  (199) 
61:0-3

>  <s_i_glide_gridfile>  (199) 
pfpi4k_grid

>  <i_i_glide_lignum>  (199) 
10

>  <i_i_glide_rotatable_bonds>  (199) 
2

>  <r_i_docking_score>  (199) 
-3.22783

>  <r_i_glide_ligand_efficiency>  (199) 
-0.153706

>  <r_i_glide_ligand_efficiency_sa>  (199) 
-0.424064

>  <r_i_glide_ligand_efficiency_ln>  (199) 
-0.798076

>  <r_i_glide_gscore>  (199) 
-3.22783

>  <r_i_glide_lipo>  (199) 
-0.632849

>  <r_i_glide_hbond>  (199) 
-0.00289465

>  <r_i_glide_metal>  (199) 
-0

>  <r_i_glide_rewards>  (199) 
-1.51648

>  <r_i_glide_evdw>  (199) 
-19.8863

>  <r_i_glide_ecoul>  (199) 
-1.67372

>  <r_i_glide_erotb>  (199) 
0.201394

>  <r_i_glide_esite>  (199) 
-0.0316329

>  <r_i_glide_emodel>  (199) 
-25.2662

>  <r_i_glide_energy>  (199) 
-21.56

>  <r_i_glide_einternal>  (199) 
0.793638

>  <r_i_glide_intrahb_reward>  (199) 
-0

>  <i_i_glide_confnum>  (199) 
1

>  <i_i_glide_posenum>  (199) 
7

>  <r_i_glide_eff_state_penalty>  (199) 
0

>  <ligand_id>  (199) 
61

>  <original_smiles>  (199) 
CC1(C)C=C2OC(=N)C(C#N)C(c3ncns3)C2C(=O)C1

>  <smiles>  (199) 
[H]N=C1OC2=C([H])C(C([H])([H])[H])(C([H])([H])[H])C([H])([H])C(=O)C2([H])C([H])(c2nc([H])ns2)C1([H])C#N

$$$$
61:2:1
     RDKit          3D

 35 37  0  0  1  0  0  0  0  0999 V2000
   -1.0981    4.8285    9.5269 C   0  0  0  0  0  0  0  0  0  0  0  0
   -1.5470    3.4567    8.9957 C   0  0  0  0  0  0  0  0  0  0  0  0
   -2.6401    2.8656    9.9017 C   0  0  0  0  0  0  0  0  0  0  0  0
   -2.1519    3.6364    7.6171 C   0  0  0  0  0  0  0  0  0  0  0  0
   -1.9620    2.7967    6.5829 C   0  0  0  0  0  0  0  0  0  0  0  0
   -2.5293    3.1203    5.3733 O   0  0  0  0  0  0  0  0  0  0  0  0
   -1.9023    2.8114    4.1800 C   0  0  0  0  0  0  0  0  0  0  0  0
   -2.2066    3.4684    3.1454 N   0  0  0  0  0  0  0  0  0  0  0  0
   -0.9004    1.6449    4.1856 C   0  0  1  0  0  0  0  0  0  0  0  0
    0.0209    1.6805    3.0369 C   0  0  0  0  0  0  0  0  0  0  0  0
    0.7454    1.6986    2.1388 N   0  0  0  0  0  0  0  0  0  0  0  0
   -0.1508    1.4578    5.5095 C   0  0  1  0  0  0  0  0  0  0  0  0
    1.0378    2.4021    5.6665 C   0  0  0  0  0  0  0  0  0  0  0  0
    0.9523    3.7280    5.7540 N   0  0  0  0  0  0  0  0  0  0  0  0
    2.1685    4.2791    5.8980 C   0  0  0  0  0  0  0  0  0  0  0  0
    3.2454    3.4758    5.9357 N   0  0  0  0  0  0  0  0  0  0  0  0
    2.7086    1.8885    5.7594 S   0  0  0  0  0  0  0  0  0  0  0  0
   -1.1488    1.5108    6.6651 C   0  0  1  0  0  0  0  0  0  0  0  0
   -0.5199    1.2974    8.0513 C   0  0  0  0  0  0  0  0  0  0  0  0
   -0.1911    0.1745    8.4306 O   0  0  0  0  0  0  0  0  0  0  0  0
   -0.3049    2.5321    8.9294 C   0  0  0  0  0  0  0  0  0  0  0  0
   -0.6527    4.7430   10.5186 H   0  0  0  0  0  0  0  0  0  0  0  0
   -1.9302    5.5322    9.5930 H   0  0  0  0  0  0  0  0  0  0  0  0
   -0.3477    5.2701    8.8690 H   0  0  0  0  0  0  0  0  0  0  0  0
   -2.2786    2.6828   10.9148 H   0  0  0  0  0  0  0  0  0  0  0  0
   -2.9839    1.9128    9.5003 H   0  0  0  0  0  0  0  0  0  0  0  0
   -3.5135    3.5184    9.9606 H   0  0  0  0  0  0  0  0  0  0  0  0
   -2.7392    4.5280    7.4802 H   0  0  0  0  0  0  0  0  0  0  0  0
   -1.7074    3.1913    2.3056 H   0  0  0  0  0  0  0  0  0  0  0  0
   -1.5059    0.7525    4.0287 H   0  0  0  0  0  0  0  0  0  0  0  0
    0.2796    0.4513    5.4935 H   0  0  0  0  0  0  0  0  0  0  0  0
    2.2806    5.3517    5.9968 H   0  0  0  0  0  0  0  0  0  0  0  0
   -1.8621    0.7011    6.5253 H   0  0  0  0  0  0  0  0  0  0  0  0
    0.5389    3.0787    8.5054 H   0  0  0  0  0  0  0  0  0  0  0  0
   -0.0029    2.2299    9.9335 H   0  0  0  0  0  0  0  0  0  0  0  0
  1  2  1  0
  1 22  1  0
  1 23  1  0
  1 24  1  0
  2 21  1  0
  2  3  1  0
  2  4  1  0
  3 25  1  0
  3 26  1  0
  3 27  1  0
  4  5  2  0
  4 28  1  0
  5 18  1  0
  5  6  1  0
  6  7  1  0
  7  8  2  3
  7  9  1  0
  8 29  1  0
  9 10  1  0
  9 12  1  0
  9 30  1  6
 10 11  3  0
 12 13  1  0
 12 18  1  0
 12 31  1  6
 13 17  1  0
 13 14  2  0
 14 15  1  0
 15 16  2  0
 15 32  1  0
 16 17  1  0
 18 19  1  0
 18 33  1  6
 19 20  2  0
 19 21  1  0
 21 34  1  0
 21 35  1  0
M  END
>  <i_m_ct_stereo_status>  (200) 
1

>  <s_m_source_file>  (200) 
/var/tmp/pbs.5076255.sched01/tmpbaygurib/766rrai79r.sdf

>  <i_m_source_file_index>  (200) 
10

>  <i_lp_mmshare_version>  (200) 
48012

>  <i_f3d_flags>  (200) 
0

>  <s_epik_input>  (200) 
W0NIM11DKFtDSDNdKShbQ0hdPTEpW0NIMl1DKD1PKVtDQEBIXShDMTIpW0NAQEhdKFtDQEhdKEMjTilDKFxPMik9TlxbSF0pYzNuW2NIXW5zMw==

>  <s_epik_cmdline>  (200) 
J2VwaWtfcHl0aG9uJywgJy1waHQnLCAnMi4wJywgJy1waCcsICc3LjAnLCAnLXRuJywgJzgnLCAnLW1hJywgJzIwMCcsICctaW1hZScsICc8aW5maWxlLm1hZT4nLCAnLW9tYWUnLCAnPG91dGZpbGUubWFlPic=

>  <r_lp_tautomer_probability>  (200) 
0.99995

>  <r_epik_Ionization_Penalty>  (200) 
0.0697986

>  <r_epik_Ionization_Penalty_Charging>  (200) 
0

>  <r_epik_Ionization_Penalty_Neutral>  (200) 
0.0697986

>  <r_epik_State_Penalty>  (200) 
0.833952

>  <r_epik_Charging_Adjusted_Penalty>  (200) 
0.833952

>  <i_epik_Tot_Q>  (200) 
0

>  <i_epik_Tot_abs_Q>  (200) 
0

>  <s_epik_Chemistry_Notes>  (200) 
This compound has an imine and may undergo hydrolysis.

>  <s_lp_Force_Field>  (200) 
OPLS3e

>  <r_lp_Energy>  (200) 
7.11567

>  <b_lp_Chiralities_Consistent>  (200) 
1

>  <s_lp_Variant>  (200) 
61:0-3

>  <s_i_glide_gridfile>  (200) 
pfpi4k_grid

>  <i_i_glide_lignum>  (200) 
10

>  <i_i_glide_rotatable_bonds>  (200) 
2

>  <r_i_docking_score>  (200) 
-2.61661

>  <r_i_glide_ligand_efficiency>  (200) 
-0.124601

>  <r_i_glide_ligand_efficiency_sa>  (200) 
-0.343764

>  <r_i_glide_ligand_efficiency_ln>  (200) 
-0.646953

>  <r_i_glide_gscore>  (200) 
-2.61661

>  <r_i_glide_lipo>  (200) 
-0.139643

>  <r_i_glide_hbond>  (200) 
0

>  <r_i_glide_metal>  (200) 
-0

>  <r_i_glide_rewards>  (200) 
-1.3476

>  <r_i_glide_evdw>  (200) 
-21.1967

>  <r_i_glide_ecoul>  (200) 
-1.08623

>  <r_i_glide_erotb>  (200) 
0.201394

>  <r_i_glide_esite>  (200) 
-0.108001

>  <r_i_glide_emodel>  (200) 
-25.1874

>  <r_i_glide_energy>  (200) 
-22.2829

>  <r_i_glide_einternal>  (200) 
0.922952

>  <r_i_glide_intrahb_reward>  (200) 
-0

>  <i_i_glide_confnum>  (200) 
4

>  <i_i_glide_posenum>  (200) 
29

>  <r_i_glide_eff_state_penalty>  (200) 
0

>  <ligand_id>  (200) 
61

>  <original_smiles>  (200) 
CC1(C)C=C2OC(=N)C(C#N)C(c3ncns3)C2C(=O)C1

>  <smiles>  (200) 
[H]N=C1OC2=C([H])C(C([H])([H])[H])(C([H])([H])[H])C([H])([H])C(=O)C2([H])C([H])(c2nc([H])ns2)C1([H])C#N

$$$$
61:2:2
     RDKit          3D

 35 37  0  0  1  0  0  0  0  0999 V2000
    2.0443    1.3932    3.2801 C   0  0  0  0  0  0  0  0  0  0  0  0
    0.5568    1.6219    3.6068 C   0  0  0  0  0  0  0  0  0  0  0  0
   -0.3346    0.9681    2.5333 C   0  0  0  0  0  0  0  0  0  0  0  0
    0.2352    0.9644    4.9361 C   0  0  0  0  0  0  0  0  0  0  0  0
   -0.5691    1.5001    5.8708 C   0  0  0  0  0  0  0  0  0  0  0  0
   -0.7313    0.8206    7.0537 O   0  0  0  0  0  0  0  0  0  0  0  0
   -0.8701    1.4931    8.2518 C   0  0  0  0  0  0  0  0  0  0  0  0
   -0.5829    0.8901    9.3239 N   0  0  0  0  0  0  0  0  0  0  0  0
   -1.4376    2.9163    8.2046 C   0  0  1  0  0  0  0  0  0  0  0  0
   -1.1428    3.6641    9.4361 C   0  0  0  0  0  0  0  0  0  0  0  0
   -0.9136    4.2502   10.4060 N   0  0  0  0  0  0  0  0  0  0  0  0
   -1.0637    3.6967    6.9411 C   0  0  1  0  0  0  0  0  0  0  0  0
    0.3352    4.3059    7.0097 C   0  0  0  0  0  0  0  0  0  0  0  0
    1.4646    3.6132    7.1462 N   0  0  0  0  0  0  0  0  0  0  0  0
    2.5314    4.4281    7.1576 C   0  0  0  0  0  0  0  0  0  0  0  0
    2.3350    5.7517    7.0450 N   0  0  0  0  0  0  0  0  0  0  0  0
    0.6757    6.0186    6.9100 S   0  0  0  0  0  0  0  0  0  0  0  0
   -1.3117    2.8208    5.7126 C   0  0  1  0  0  0  0  0  0  0  0  0
   -1.0070    3.5150    4.3781 C   0  0  0  0  0  0  0  0  0  0  0  0
   -1.7735    4.3634    3.9182 O   0  0  0  0  0  0  0  0  0  0  0  0
    0.3101    3.1481    3.6884 C   0  0  0  0  0  0  0  0  0  0  0  0
    2.3227    1.8572    2.3329 H   0  0  0  0  0  0  0  0  0  0  0  0
    2.2902    0.3314    3.2191 H   0  0  0  0  0  0  0  0  0  0  0  0
    2.6808    1.8287    4.0517 H   0  0  0  0  0  0  0  0  0  0  0  0
   -0.1708    1.4002    1.5439 H   0  0  0  0  0  0  0  0  0  0  0  0
   -1.3915    1.0940    2.7755 H   0  0  0  0  0  0  0  0  0  0  0  0
   -0.1491   -0.1054    2.4725 H   0  0  0  0  0  0  0  0  0  0  0  0
    0.7327    0.0279    5.1351 H   0  0  0  0  0  0  0  0  0  0  0  0
   -0.7442    1.4151   10.1758 H   0  0  0  0  0  0  0  0  0  0  0  0
   -2.5199    2.7933    8.1994 H   0  0  0  0  0  0  0  0  0  0  0  0
   -1.7534    4.5393    6.8849 H   0  0  0  0  0  0  0  0  0  0  0  0
    3.5337    4.0263    7.2545 H   0  0  0  0  0  0  0  0  0  0  0  0
   -2.3702    2.5667    5.6861 H   0  0  0  0  0  0  0  0  0  0  0  0
    1.1116    3.6239    4.2537 H   0  0  0  0  0  0  0  0  0  0  0  0
    0.3501    3.5794    2.6924 H   0  0  0  0  0  0  0  0  0  0  0  0
  1  2  1  0
  1 22  1  0
  1 23  1  0
  1 24  1  0
  2 21  1  0
  2  3  1  0
  2  4  1  0
  3 25  1  0
  3 26  1  0
  3 27  1  0
  4  5  2  0
  4 28  1  0
  5 18  1  0
  5  6  1  0
  6  7  1  0
  7  8  2  3
  7  9  1  0
  8 29  1  0
  9 10  1  0
  9 12  1  0
  9 30  1  6
 10 11  3  0
 12 13  1  0
 12 18  1  0
 12 31  1  6
 13 17  1  0
 13 14  2  0
 14 15  1  0
 15 16  2  0
 15 32  1  0
 16 17  1  0
 18 19  1  0
 18 33  1  6
 19 20  2  0
 19 21  1  0
 21 34  1  0
 21 35  1  0
M  END
>  <i_m_ct_stereo_status>  (201) 
1

>  <s_m_source_file>  (201) 
/var/tmp/pbs.5076255.sched01/tmpbaygurib/766rrai79r.sdf

>  <i_m_source_file_index>  (201) 
10

>  <i_lp_mmshare_version>  (201) 
48012

>  <i_f3d_flags>  (201) 
0

>  <s_epik_input>  (201) 
W0NIM11DKFtDSDNdKShbQ0hdPTEpW0NIMl1DKD1PKVtDQEBIXShDMTIpW0NAQEhdKFtDQEhdKEMjTilDKFxPMik9TlxbSF0pYzNuW2NIXW5zMw==

>  <s_epik_cmdline>  (201) 
J2VwaWtfcHl0aG9uJywgJy1waHQnLCAnMi4wJywgJy1waCcsICc3LjAnLCAnLXRuJywgJzgnLCAnLW1hJywgJzIwMCcsICctaW1hZScsICc8aW5maWxlLm1hZT4nLCAnLW9tYWUnLCAnPG91dGZpbGUubWFlPic=

>  <r_lp_tautomer_probability>  (201) 
0.99995

>  <r_epik_Ionization_Penalty>  (201) 
0.0697986

>  <r_epik_Ionization_Penalty_Charging>  (201) 
0

>  <r_epik_Ionization_Penalty_Neutral>  (201) 
0.0697986

>  <r_epik_State_Penalty>  (201) 
0.833952

>  <r_epik_Charging_Adjusted_Penalty>  (201) 
0.833952

>  <i_epik_Tot_Q>  (201) 
0

>  <i_epik_Tot_abs_Q>  (201) 
0

>  <s_epik_Chemistry_Notes>  (201) 
This compound has an imine and may undergo hydrolysis.

>  <s_lp_Force_Field>  (201) 
OPLS3e

>  <r_lp_Energy>  (201) 
7.11567

>  <b_lp_Chiralities_Consistent>  (201) 
1

>  <s_lp_Variant>  (201) 
61:0-3

>  <s_i_glide_gridfile>  (201) 
pfpi4k_grid

>  <i_i_glide_lignum>  (201) 
10

>  <i_i_glide_rotatable_bonds>  (201) 
2

>  <r_i_docking_score>  (201) 
-2.54818

>  <r_i_glide_ligand_efficiency>  (201) 
-0.121342

>  <r_i_glide_ligand_efficiency_sa>  (201) 
-0.334774

>  <r_i_glide_ligand_efficiency_ln>  (201) 
-0.630033

>  <r_i_glide_gscore>  (201) 
-2.54818

>  <r_i_glide_lipo>  (201) 
-0.0217708

>  <r_i_glide_hbond>  (201) 
-0.133602

>  <r_i_glide_metal>  (201) 
-0

>  <r_i_glide_rewards>  (201) 
-1.3476

>  <r_i_glide_evdw>  (201) 
-16.6155

>  <r_i_glide_ecoul>  (201) 
-2.23622

>  <r_i_glide_erotb>  (201) 
0.201394

>  <r_i_glide_esite>  (201) 
-0.0803999

>  <r_i_glide_emodel>  (201) 
-21.6978

>  <r_i_glide_energy>  (201) 
-18.8517

>  <r_i_glide_einternal>  (201) 
0.874842

>  <r_i_glide_intrahb_reward>  (201) 
-0

>  <i_i_glide_confnum>  (201) 
4

>  <i_i_glide_posenum>  (201) 
9

>  <r_i_glide_eff_state_penalty>  (201) 
0

>  <ligand_id>  (201) 
61

>  <original_smiles>  (201) 
CC1(C)C=C2OC(=N)C(C#N)C(c3ncns3)C2C(=O)C1

>  <smiles>  (201) 
[H]N=C1OC2=C([H])C(C([H])([H])[H])(C([H])([H])[H])C([H])([H])C(=O)C2([H])C([H])(c2nc([H])ns2)C1([H])C#N

$$$$
61:3:0
     RDKit          3D

 34 36  0  0  1  0  0  0  0  0999 V2000
    4.1152   -1.0176   -3.6660 C   0  0  0  0  0  0  0  0  0  0  0  0
    3.8905   -2.4356   -3.1259 C   0  0  0  0  0  0  0  0  0  0  0  0
    3.6938   -3.4255   -4.2649 C   0  0  0  0  0  0  0  0  0  0  0  0
    5.1174   -2.8807   -2.3618 C   0  0  0  0  0  0  0  0  0  0  0  0
    5.0707   -3.5700   -1.2169 C   0  0  0  0  0  0  0  0  0  0  0  0
    6.2520   -3.8084   -0.5675 O   0  0  0  0  0  0  0  0  0  0  0  0
    6.2851   -4.1362    0.7624 C   0  0  0  0  0  0  0  0  0  0  0  0
    7.5234   -4.3060    1.2330 N   0  0  0  0  0  0  0  0  0  0  0  0
    5.0357   -4.1891    1.6461 C   0  0  1  0  0  0  0  0  0  0  0  0
    5.2056   -3.6430    3.0042 C   0  0  0  0  0  0  0  0  0  0  0  0
    5.3210   -3.2121    4.0763 N   0  0  0  0  0  0  0  0  0  0  0  0
    3.7981   -3.6108    0.9522 C   0  0  1  0  0  0  0  0  0  0  0  0
    3.6286   -2.1114    1.1751 C   0  0  0  0  0  0  0  0  0  0  0  0
    2.5812   -1.5560    1.7766 N   0  0  0  0  0  0  0  0  0  0  0  0
    2.7031   -0.2201    1.8067 C   0  0  0  0  0  0  0  0  0  0  0  0
    3.8030    0.3435    1.2809 N   0  0  0  0  0  0  0  0  0  0  0  0
    4.7811   -0.8815    0.6882 S   0  0  0  0  0  0  0  0  0  0  0  0
    3.7951   -4.0267   -0.5179 C   0  0  1  0  0  0  0  0  0  0  0  0
    2.5334   -3.5864   -1.2683 C   0  0  0  0  0  0  0  0  0  0  0  0
    1.4715   -4.1834   -1.1155 O   0  0  0  0  0  0  0  0  0  0  0  0
    2.6521   -2.3979   -2.2174 C   0  0  0  0  0  0  0  0  0  0  0  0
    3.2492   -0.6514   -4.2181 H   0  0  0  0  0  0  0  0  0  0  0  0
    4.9748   -0.9847   -4.3320 H   0  0  0  0  0  0  0  0  0  0  0  0
    4.2948   -0.3145   -2.8504 H   0  0  0  0  0  0  0  0  0  0  0  0
    2.8081   -3.1555   -4.8388 H   0  0  0  0  0  0  0  0  0  0  0  0
    3.5609   -4.4445   -3.9184 H   0  0  0  0  0  0  0  0  0  0  0  0
    4.5875   -3.4591   -4.8815 H   0  0  0  0  0  0  0  0  0  0  0  0
    6.0740   -2.5732   -2.7551 H   0  0  0  0  0  0  0  0  0  0  0  0
    4.8603   -5.2556    1.7930 H   0  0  0  0  0  0  0  0  0  0  0  0
    2.9259   -4.0660    1.4263 H   0  0  0  0  0  0  0  0  0  0  0  0
    1.9432    0.3987    2.2607 H   0  0  0  0  0  0  0  0  0  0  0  0
    3.8071   -5.1175   -0.5586 H   0  0  0  0  0  0  0  0  0  0  0  0
    2.6943   -1.5163   -1.5790 H   0  0  0  0  0  0  0  0  0  0  0  0
    1.7441   -2.2976   -2.8093 H   0  0  0  0  0  0  0  0  0  0  0  0
  1  2  1  0
  1 22  1  0
  1 23  1  0
  1 24  1  0
  2 21  1  0
  2  3  1  0
  2  4  1  0
  3 25  1  0
  3 26  1  0
  3 27  1  0
  4  5  2  0
  4 28  1  0
  5 18  1  0
  5  6  1  0
  6  7  1  0
  7  8  2  3
  7  9  1  0
  9 10  1  0
  9 12  1  0
  9 29  1  1
 10 11  3  0
 12 13  1  0
 12 18  1  0
 12 30  1  1
 13 17  1  0
 13 14  2  0
 14 15  1  0
 15 16  2  0
 15 31  1  0
 16 17  1  0
 18 19  1  0
 18 32  1  1
 19 20  2  0
 19 21  1  0
 21 33  1  0
 21 34  1  0
M  CHG  1   8  -1
M  END
>  <i_m_ct_stereo_status>  (202) 
1

>  <s_m_source_file>  (202) 
/var/tmp/pbs.5076255.sched01/tmpbaygurib/766rrai79r.sdf

>  <i_m_source_file_index>  (202) 
11

>  <i_lp_mmshare_version>  (202) 
48012

>  <i_f3d_flags>  (202) 
0

>  <s_epik_input>  (202) 
W0NIM11DKFtDSDNdKShbQ0hdPTEpW0NIMl1DKD1PKVtDQEBIXShDMTIpW0NAQEhdKFtDQEhdKEMjTilDKFxPMik9TlxbSF0pYzNuW2NIXW5zMw==

>  <s_epik_cmdline>  (202) 
J2VwaWtfcHl0aG9uJywgJy1waHQnLCAnMi4wJywgJy1waCcsICc3LjAnLCAnLXRuJywgJzgnLCAnLW1hJywgJzIwMCcsICctaW1hZScsICc8aW5maWxlLm1hZT4nLCAnLW9tYWUnLCAnPG91dGZpbGUubWFlPic=

>  <r_lp_tautomer_probability>  (202) 
0.99995

>  <r_epik_Ionization_Penalty>  (202) 
1.41933

>  <r_epik_Ionization_Penalty_Charging>  (202) 
1.41933

>  <r_epik_Ionization_Penalty_Neutral>  (202) 
4.01687e-07

>  <r_epik_State_Penalty>  (202) 
2.28809

>  <r_epik_Charging_Adjusted_Penalty>  (202) 
3.70742

>  <i_epik_Tot_Q>  (202) 
-1

>  <i_epik_Tot_abs_Q>  (202) 
1

>  <s_epik_Chemistry_Notes>  (202) 
This compound has an imine and may undergo hydrolysis.

>  <s_lp_Force_Field>  (202) 
OPLS3e

>  <r_lp_Energy>  (202) 
10.8877

>  <b_lp_Chiralities_Consistent>  (202) 
1

>  <s_lp_Variant>  (202) 
61:0-4

>  <s_i_glide_gridfile>  (202) 
pfpi4k_grid

>  <i_i_glide_lignum>  (202) 
11

>  <i_i_glide_rotatable_bonds>  (202) 
2

>  <r_i_docking_score>  (202) 
-3.16946

>  <r_i_glide_ligand_efficiency>  (202) 
-0.150927

>  <r_i_glide_ligand_efficiency_sa>  (202) 
-0.416395

>  <r_i_glide_ligand_efficiency_ln>  (202) 
-0.783643

>  <r_i_glide_gscore>  (202) 
-3.16946

>  <r_i_glide_lipo>  (202) 
-0.69254

>  <r_i_glide_hbond>  (202) 
-0.005047

>  <r_i_glide_metal>  (202) 
-0

>  <r_i_glide_rewards>  (202) 
-1.55214

>  <r_i_glide_evdw>  (202) 
-19.2703

>  <r_i_glide_ecoul>  (202) 
-0.823406

>  <r_i_glide_erotb>  (202) 
0.202575

>  <r_i_glide_esite>  (202) 
-0.0352803

>  <r_i_glide_emodel>  (202) 
-26.9121

>  <r_i_glide_energy>  (202) 
-20.0937

>  <r_i_glide_einternal>  (202) 
0.885744

>  <r_i_glide_intrahb_reward>  (202) 
-0

>  <i_i_glide_confnum>  (202) 
2

>  <i_i_glide_posenum>  (202) 
25

>  <r_i_glide_eff_state_penalty>  (202) 
0

>  <ligand_id>  (202) 
61

>  <original_smiles>  (202) 
CC1(C)C=C2OC(=N)C(C#N)C(c3ncns3)C2C(=O)C1

>  <smiles>  (202) 
[H]C1=C2OC(=[N-])C([H])(C#N)C([H])(c3nc([H])ns3)C2([H])C(=O)C([H])([H])C1(C([H])([H])[H])C([H])([H])[H]

$$$$
61:3:1
     RDKit          3D

 34 36  0  0  1  0  0  0  0  0999 V2000
    4.5157   -0.9496   -1.7328 C   0  0  0  0  0  0  0  0  0  0  0  0
    4.3367   -2.4704   -1.6765 C   0  0  0  0  0  0  0  0  0  0  0  0
    4.0330   -3.0200   -3.0771 C   0  0  0  0  0  0  0  0  0  0  0  0
    5.6371   -3.0958   -1.2162 C   0  0  0  0  0  0  0  0  0  0  0  0
    5.7120   -4.1216   -0.3566 C   0  0  0  0  0  0  0  0  0  0  0  0
    6.9535   -4.4860    0.0856 O   0  0  0  0  0  0  0  0  0  0  0  0
    7.1264   -5.2137    1.2369 C   0  0  0  0  0  0  0  0  0  0  0  0
    8.4082   -5.4514    1.5193 N   0  0  0  0  0  0  0  0  0  0  0  0
    5.9660   -5.6151    2.1556 C   0  0  1  0  0  0  0  0  0  0  0  0
    6.2710   -5.5444    3.5973 C   0  0  0  0  0  0  0  0  0  0  0  0
    6.5003   -5.4872    4.7359 N   0  0  0  0  0  0  0  0  0  0  0  0
    4.6599   -4.8939    1.7909 C   0  0  1  0  0  0  0  0  0  0  0  0
    4.4892   -3.5418    2.4979 C   0  0  0  0  0  0  0  0  0  0  0  0
    3.6210   -3.3080    3.4800 N   0  0  0  0  0  0  0  0  0  0  0  0
    3.7220   -2.0405    3.9237 C   0  0  0  0  0  0  0  0  0  0  0  0
    4.6158   -1.2129    3.3516 N   0  0  0  0  0  0  0  0  0  0  0  0
    5.4331   -2.0925    2.1752 S   0  0  0  0  0  0  0  0  0  0  0  0
    4.5201   -4.8423    0.2612 C   0  0  1  0  0  0  0  0  0  0  0  0
    3.1851   -4.2372   -0.1962 C   0  0  0  0  0  0  0  0  0  0  0  0
    2.1415   -4.8837   -0.1280 O   0  0  0  0  0  0  0  0  0  0  0  0
    3.1964   -2.7872   -0.6778 C   0  0  0  0  0  0  0  0  0  0  0  0
    3.6000   -0.4774   -2.0796 H   0  0  0  0  0  0  0  0  0  0  0  0
    5.3208   -0.6552   -2.4040 H   0  0  0  0  0  0  0  0  0  0  0  0
    4.7435   -0.5433   -0.7456 H   0  0  0  0  0  0  0  0  0  0  0  0
    3.0876   -2.6348   -3.4641 H   0  0  0  0  0  0  0  0  0  0  0  0
    3.9702   -4.1086   -3.0467 H   0  0  0  0  0  0  0  0  0  0  0  0
    4.8359   -2.7693   -3.7730 H   0  0  0  0  0  0  0  0  0  0  0  0
    6.5478   -2.6213   -1.5547 H   0  0  0  0  0  0  0  0  0  0  0  0
    5.8165   -6.6784    1.9596 H   0  0  0  0  0  0  0  0  0  0  0  0
    3.8433   -5.5125    2.1710 H   0  0  0  0  0  0  0  0  0  0  0  0
    3.0956   -1.6858    4.7275 H   0  0  0  0  0  0  0  0  0  0  0  0
    4.5467   -5.8657   -0.1227 H   0  0  0  0  0  0  0  0  0  0  0  0
    3.2736   -2.1566    0.2088 H   0  0  0  0  0  0  0  0  0  0  0  0
    2.2353   -2.5540   -1.1241 H   0  0  0  0  0  0  0  0  0  0  0  0
  1  2  1  0
  1 22  1  0
  1 23  1  0
  1 24  1  0
  2 21  1  0
  2  3  1  0
  2  4  1  0
  3 25  1  0
  3 26  1  0
  3 27  1  0
  4  5  2  0
  4 28  1  0
  5 18  1  0
  5  6  1  0
  6  7  1  0
  7  8  2  3
  7  9  1  0
  9 10  1  0
  9 12  1  0
  9 29  1  6
 10 11  3  0
 12 13  1  0
 12 18  1  0
 12 30  1  1
 13 17  1  0
 13 14  2  0
 14 15  1  0
 15 16  2  0
 15 31  1  0
 16 17  1  0
 18 19  1  0
 18 32  1  6
 19 20  2  0
 19 21  1  0
 21 33  1  0
 21 34  1  0
M  CHG  1   8  -1
M  END
>  <i_m_ct_stereo_status>  (203) 
1

>  <s_m_source_file>  (203) 
/var/tmp/pbs.5076255.sched01/tmpbaygurib/766rrai79r.sdf

>  <i_m_source_file_index>  (203) 
11

>  <i_lp_mmshare_version>  (203) 
48012

>  <i_f3d_flags>  (203) 
0

>  <s_epik_input>  (203) 
W0NIM11DKFtDSDNdKShbQ0hdPTEpW0NIMl1DKD1PKVtDQEBIXShDMTIpW0NAQEhdKFtDQEhdKEMjTilDKFxPMik9TlxbSF0pYzNuW2NIXW5zMw==

>  <s_epik_cmdline>  (203) 
J2VwaWtfcHl0aG9uJywgJy1waHQnLCAnMi4wJywgJy1waCcsICc3LjAnLCAnLXRuJywgJzgnLCAnLW1hJywgJzIwMCcsICctaW1hZScsICc8aW5maWxlLm1hZT4nLCAnLW9tYWUnLCAnPG91dGZpbGUubWFlPic=

>  <r_lp_tautomer_probability>  (203) 
0.99995

>  <r_epik_Ionization_Penalty>  (203) 
1.41933

>  <r_epik_Ionization_Penalty_Charging>  (203) 
1.41933

>  <r_epik_Ionization_Penalty_Neutral>  (203) 
4.01687e-07

>  <r_epik_State_Penalty>  (203) 
2.28809

>  <r_epik_Charging_Adjusted_Penalty>  (203) 
3.70742

>  <i_epik_Tot_Q>  (203) 
-1

>  <i_epik_Tot_abs_Q>  (203) 
1

>  <s_epik_Chemistry_Notes>  (203) 
This compound has an imine and may undergo hydrolysis.

>  <s_lp_Force_Field>  (203) 
OPLS3e

>  <r_lp_Energy>  (203) 
10.8877

>  <b_lp_Chiralities_Consistent>  (203) 
1

>  <s_lp_Variant>  (203) 
61:0-4

>  <s_i_glide_gridfile>  (203) 
pfpi4k_grid

>  <i_i_glide_lignum>  (203) 
11

>  <i_i_glide_rotatable_bonds>  (203) 
2

>  <r_i_docking_score>  (203) 
-2.78686

>  <r_i_glide_ligand_efficiency>  (203) 
-0.132708

>  <r_i_glide_ligand_efficiency_sa>  (203) 
-0.36613

>  <r_i_glide_ligand_efficiency_ln>  (203) 
-0.689046

>  <r_i_glide_gscore>  (203) 
-2.78686

>  <r_i_glide_lipo>  (203) 
-0.355461

>  <r_i_glide_hbond>  (203) 
-0.00947383

>  <r_i_glide_metal>  (203) 
-0

>  <r_i_glide_rewards>  (203) 
-1.5029

>  <r_i_glide_evdw>  (203) 
-20.7949

>  <r_i_glide_ecoul>  (203) 
-0.360066

>  <r_i_glide_erotb>  (203) 
0.202575

>  <r_i_glide_esite>  (203) 
-0.0278491

>  <r_i_glide_emodel>  (203) 
-26.7906

>  <r_i_glide_energy>  (203) 
-21.155

>  <r_i_glide_einternal>  (203) 
1.32649

>  <r_i_glide_intrahb_reward>  (203) 
-0

>  <i_i_glide_confnum>  (203) 
2

>  <i_i_glide_posenum>  (203) 
33

>  <r_i_glide_eff_state_penalty>  (203) 
0

>  <ligand_id>  (203) 
61

>  <original_smiles>  (203) 
CC1(C)C=C2OC(=N)C(C#N)C(c3ncns3)C2C(=O)C1

>  <smiles>  (203) 
[H]C1=C2OC(=[N-])C([H])(C#N)C([H])(c3nc([H])ns3)C2([H])C(=O)C([H])([H])C1(C([H])([H])[H])C([H])([H])[H]

$$$$
61:3:2
     RDKit          3D

 34 36  0  0  1  0  0  0  0  0999 V2000
    4.7214   -1.1729   -1.2879 C   0  0  0  0  0  0  0  0  0  0  0  0
    4.8394   -2.1059   -0.0729 C   0  0  0  0  0  0  0  0  0  0  0  0
    5.6979   -3.3342   -0.4202 C   0  0  0  0  0  0  0  0  0  0  0  0
    5.5418   -1.3597    1.0495 C   0  0  0  0  0  0  0  0  0  0  0  0
    5.1896   -1.4448    2.3422 C   0  0  0  0  0  0  0  0  0  0  0  0
    5.8149   -0.6123    3.2345 O   0  0  0  0  0  0  0  0  0  0  0  0
    5.2803   -0.3357    4.4682 C   0  0  0  0  0  0  0  0  0  0  0  0
    6.0152    0.5077    5.2014 N   0  0  0  0  0  0  0  0  0  0  0  0
    3.9162   -0.8544    4.9151 C   0  0  1  0  0  0  0  0  0  0  0  0
    3.1283    0.1322    5.6771 C   0  0  0  0  0  0  0  0  0  0  0  0
    2.4992    0.9029    6.2762 N   0  0  0  0  0  0  0  0  0  0  0  0
    3.1191   -1.5020    3.7715 C   0  0  1  0  0  0  0  0  0  0  0  0
    2.2674   -0.4967    3.0012 C   0  0  0  0  0  0  0  0  0  0  0  0
    0.9482   -0.5765    2.8440 N   0  0  0  0  0  0  0  0  0  0  0  0
    0.4885    0.4619    2.1186 C   0  0  0  0  0  0  0  0  0  0  0  0
    1.3583    1.3818    1.6767 N   0  0  0  0  0  0  0  0  0  0  0  0
    2.8833    0.9367    2.2067 S   0  0  0  0  0  0  0  0  0  0  0  0
    4.0702   -2.3240    2.8885 C   0  0  1  0  0  0  0  0  0  0  0  0
    3.3553   -3.1042    1.7703 C   0  0  0  0  0  0  0  0  0  0  0  0
    2.7424   -4.1421    2.0049 O   0  0  0  0  0  0  0  0  0  0  0  0
    3.4111   -2.5193    0.3588 C   0  0  0  0  0  0  0  0  0  0  0  0
    4.2036   -1.6576   -2.1159 H   0  0  0  0  0  0  0  0  0  0  0  0
    5.6954   -0.8367   -1.6402 H   0  0  0  0  0  0  0  0  0  0  0  0
    4.1573   -0.2795   -1.0238 H   0  0  0  0  0  0  0  0  0  0  0  0
    5.2435   -3.9360   -1.2097 H   0  0  0  0  0  0  0  0  0  0  0  0
    5.8242   -3.9747    0.4553 H   0  0  0  0  0  0  0  0  0  0  0  0
    6.6980   -3.0352   -0.7421 H   0  0  0  0  0  0  0  0  0  0  0  0
    6.3204   -0.6690    0.7630 H   0  0  0  0  0  0  0  0  0  0  0  0
    4.1515   -1.6429    5.6310 H   0  0  0  0  0  0  0  0  0  0  0  0
    2.4032   -2.1901    4.2299 H   0  0  0  0  0  0  0  0  0  0  0  0
   -0.5618    0.5610    1.8799 H   0  0  0  0  0  0  0  0  0  0  0  0
    4.5476   -3.0740    3.5229 H   0  0  0  0  0  0  0  0  0  0  0  0
    2.7454   -1.6559    0.3492 H   0  0  0  0  0  0  0  0  0  0  0  0
    2.9900   -3.2263   -0.3541 H   0  0  0  0  0  0  0  0  0  0  0  0
  1  2  1  0
  1 22  1  0
  1 23  1  0
  1 24  1  0
  2 21  1  0
  2  3  1  0
  2  4  1  0
  3 25  1  0
  3 26  1  0
  3 27  1  0
  4  5  2  0
  4 28  1  0
  5 18  1  0
  5  6  1  0
  6  7  1  0
  7  8  2  3
  7  9  1  0
  9 10  1  0
  9 12  1  0
  9 29  1  1
 10 11  3  0
 12 13  1  0
 12 18  1  0
 12 30  1  1
 13 17  1  0
 13 14  2  0
 14 15  1  0
 15 16  2  0
 15 31  1  0
 16 17  1  0
 18 19  1  0
 18 32  1  1
 19 20  2  0
 19 21  1  0
 21 33  1  0
 21 34  1  0
M  CHG  1   8  -1
M  END
>  <i_m_ct_stereo_status>  (204) 
1

>  <s_m_source_file>  (204) 
/var/tmp/pbs.5076255.sched01/tmpbaygurib/766rrai79r.sdf

>  <i_m_source_file_index>  (204) 
11

>  <i_lp_mmshare_version>  (204) 
48012

>  <i_f3d_flags>  (204) 
0

>  <s_epik_input>  (204) 
W0NIM11DKFtDSDNdKShbQ0hdPTEpW0NIMl1DKD1PKVtDQEBIXShDMTIpW0NAQEhdKFtDQEhdKEMjTilDKFxPMik9TlxbSF0pYzNuW2NIXW5zMw==

>  <s_epik_cmdline>  (204) 
J2VwaWtfcHl0aG9uJywgJy1waHQnLCAnMi4wJywgJy1waCcsICc3LjAnLCAnLXRuJywgJzgnLCAnLW1hJywgJzIwMCcsICctaW1hZScsICc8aW5maWxlLm1hZT4nLCAnLW9tYWUnLCAnPG91dGZpbGUubWFlPic=

>  <r_lp_tautomer_probability>  (204) 
0.99995

>  <r_epik_Ionization_Penalty>  (204) 
1.41933

>  <r_epik_Ionization_Penalty_Charging>  (204) 
1.41933

>  <r_epik_Ionization_Penalty_Neutral>  (204) 
4.01687e-07

>  <r_epik_State_Penalty>  (204) 
2.28809

>  <r_epik_Charging_Adjusted_Penalty>  (204) 
3.70742

>  <i_epik_Tot_Q>  (204) 
-1

>  <i_epik_Tot_abs_Q>  (204) 
1

>  <s_epik_Chemistry_Notes>  (204) 
This compound has an imine and may undergo hydrolysis.

>  <s_lp_Force_Field>  (204) 
OPLS3e

>  <r_lp_Energy>  (204) 
10.8877

>  <b_lp_Chiralities_Consistent>  (204) 
1

>  <s_lp_Variant>  (204) 
61:0-4

>  <s_i_glide_gridfile>  (204) 
pfpi4k_grid

>  <i_i_glide_lignum>  (204) 
11

>  <i_i_glide_rotatable_bonds>  (204) 
2

>  <r_i_docking_score>  (204) 
-2.69795

>  <r_i_glide_ligand_efficiency>  (204) 
-0.128474

>  <r_i_glide_ligand_efficiency_sa>  (204) 
-0.354449

>  <r_i_glide_ligand_efficiency_ln>  (204) 
-0.667062

>  <r_i_glide_gscore>  (204) 
-2.69795

>  <r_i_glide_lipo>  (204) 
-0.336082

>  <r_i_glide_hbond>  (204) 
0

>  <r_i_glide_metal>  (204) 
-0

>  <r_i_glide_rewards>  (204) 
-1.45073

>  <r_i_glide_evdw>  (204) 
-21.5132

>  <r_i_glide_ecoul>  (204) 
0.186754

>  <r_i_glide_erotb>  (204) 
0.202575

>  <r_i_glide_esite>  (204) 
-0.0660593

>  <r_i_glide_emodel>  (204) 
-27.1743

>  <r_i_glide_energy>  (204) 
-21.3264

>  <r_i_glide_einternal>  (204) 
0.805966

>  <r_i_glide_intrahb_reward>  (204) 
-0

>  <i_i_glide_confnum>  (204) 
2

>  <i_i_glide_posenum>  (204) 
2

>  <r_i_glide_eff_state_penalty>  (204) 
0

>  <ligand_id>  (204) 
61

>  <original_smiles>  (204) 
CC1(C)C=C2OC(=N)C(C#N)C(c3ncns3)C2C(=O)C1

>  <smiles>  (204) 
[H]C1=C2OC(=[N-])C([H])(C#N)C([H])(c3nc([H])ns3)C2([H])C(=O)C([H])([H])C1(C([H])([H])[H])C([H])([H])[H]

$$$$
63:0:0
     RDKit          3D

 30 32  0  0  1  0  0  0  0  0999 V2000
    2.7276   -2.1564   -3.8201 C   0  0  0  0  0  0  0  0  0  0  0  0
    3.4024   -1.0838   -3.2146 C   0  0  0  0  0  0  0  0  0  0  0  0
    4.6711   -1.2956   -2.6596 C   0  0  0  0  0  0  0  0  0  0  0  0
    5.2868   -2.5593   -2.7215 C   0  0  0  0  0  0  0  0  0  0  0  0
    6.6682   -2.7818   -2.1270 C   0  0  0  0  0  0  0  0  0  0  0  0
    6.7377   -2.4605   -0.6827 N   0  0  0  0  0  0  0  0  0  0  0  0
    8.1119   -2.6336   -0.1020 C   0  0  0  0  0  0  0  0  0  0  0  0
    8.5494   -4.0949   -0.1612 C   0  0  2  0  0  0  0  0  0  0  0  0
    8.6312   -5.3993    0.6447 C   0  0  0  0  0  0  0  0  0  0  0  0
    7.4918   -4.5565    0.8846 C   0  0  2  0  0  0  0  0  0  0  0  0
    6.0990   -4.5660    0.3297 C   0  0  0  0  0  0  0  0  0  0  0  0
    5.7246   -3.1744    0.0829 N   0  0  0  0  0  0  0  0  0  0  0  0
    4.5930   -3.6298   -3.3237 C   0  0  0  0  0  0  0  0  0  0  0  0
    3.3126   -3.4292   -3.8549 C   0  0  0  0  0  0  0  0  0  0  0  0
    1.7386   -2.0418   -4.2387 H   0  0  0  0  0  0  0  0  0  0  0  0
    2.9418   -0.1063   -3.1672 H   0  0  0  0  0  0  0  0  0  0  0  0
    5.1809   -0.4721   -2.1865 H   0  0  0  0  0  0  0  0  0  0  0  0
    6.9728   -3.8133   -2.2904 H   0  0  0  0  0  0  0  0  0  0  0  0
    7.4361   -2.2322   -2.6596 H   0  0  0  0  0  0  0  0  0  0  0  0
    8.8401   -2.0514   -0.6438 H   0  0  0  0  0  0  0  0  0  0  0  0
    8.0847   -2.2523    0.9070 H   0  0  0  0  0  0  0  0  0  0  0  0
    8.6403   -4.4018   -1.2095 H   0  0  0  0  0  0  0  0  0  0  0  0
    8.4783   -6.3061    0.0548 H   0  0  0  0  0  0  0  0  0  0  0  0
    9.3189   -5.4961    1.4868 H   0  0  0  0  0  0  0  0  0  0  0  0
    7.5240   -4.1605    1.9066 H   0  0  0  0  0  0  0  0  0  0  0  0
    6.0841   -5.0517   -0.6324 H   0  0  0  0  0  0  0  0  0  0  0  0
    5.3940   -5.0409    1.0206 H   0  0  0  0  0  0  0  0  0  0  0  0
    4.8628   -3.1897   -0.4570 H   0  0  0  0  0  0  0  0  0  0  0  0
    5.0128   -4.6280   -3.3468 H   0  0  0  0  0  0  0  0  0  0  0  0
    2.7455   -4.2531   -4.2593 H   0  0  0  0  0  0  0  0  0  0  0  0
  1 14  2  0
  1  2  1  0
  1 15  1  0
  2  3  2  0
  2 16  1  0
  3  4  1  0
  3 17  1  0
  4  5  1  0
  4 13  2  0
  5  6  1  0
  5 18  1  0
  5 19  1  0
  6 12  1  0
  6  7  1  0
  7  8  1  0
  7 20  1  0
  7 21  1  0
  8 10  1  0
  8  9  1  0
  8 22  1  6
  9 10  1  0
  9 23  1  0
  9 24  1  0
 10 11  1  0
 10 25  1  1
 11 12  1  0
 11 26  1  0
 11 27  1  0
 12 28  1  0
 13 14  1  0
 13 29  1  0
 14 30  1  0
M  END
>  <i_m_ct_stereo_status>  (205) 
1

>  <s_m_source_file>  (205) 
/var/tmp/pbs.5076255.sched01/tmpbaygurib/766rrai79r.sdf

>  <i_m_source_file_index>  (205) 
13

>  <i_lp_mmshare_version>  (205) 
48012

>  <i_f3d_flags>  (205) 
0

>  <s_epik_input>  (205) 
W2NIXTFbY0hdW2NIXVtjSF1bY0hdYzFbQ0gyXU4oW0NIMl0yKVtOSF1bQ0gyXVtDQEhdKFtDQEBIXTIzKVtDSDJdMw==

>  <s_epik_cmdline>  (205) 
J2VwaWtfcHl0aG9uJywgJy1waHQnLCAnMi4wJywgJy1waCcsICc3LjAnLCAnLXRuJywgJzgnLCAnLW1hJywgJzIwMCcsICctaW1hZScsICc8aW5maWxlLm1hZT4nLCAnLW9tYWUnLCAnPG91dGZpbGUubWFlPic=

>  <r_epik_Ionization_Penalty>  (205) 
0.507927

>  <r_epik_Ionization_Penalty_Charging>  (205) 
0

>  <r_epik_Ionization_Penalty_Neutral>  (205) 
0.507927

>  <r_epik_State_Penalty>  (205) 
0.426313

>  <r_epik_Charging_Adjusted_Penalty>  (205) 
0.426313

>  <i_epik_Tot_Q>  (205) 
0

>  <i_epik_Tot_abs_Q>  (205) 
0

>  <s_lp_Force_Field>  (205) 
OPLS3e

>  <r_lp_Energy>  (205) 
70.8577

>  <b_lp_Chiralities_Consistent>  (205) 
1

>  <s_lp_Variant>  (205) 
63:0-1

>  <s_i_glide_gridfile>  (205) 
pfpi4k_grid

>  <i_i_glide_lignum>  (205) 
13

>  <i_i_glide_rotatable_bonds>  (205) 
2

>  <r_i_docking_score>  (205) 
-3.46874

>  <r_i_glide_ligand_efficiency>  (205) 
-0.247767

>  <r_i_glide_ligand_efficiency_sa>  (205) 
-0.597154

>  <r_i_glide_ligand_efficiency_ln>  (205) 
-0.953197

>  <r_i_glide_gscore>  (205) 
-3.46874

>  <r_i_glide_lipo>  (205) 
-0.90363

>  <r_i_glide_hbond>  (205) 
0

>  <r_i_glide_metal>  (205) 
-0

>  <r_i_glide_rewards>  (205) 
-2.12544

>  <r_i_glide_evdw>  (205) 
-20.0402

>  <r_i_glide_ecoul>  (205) 
-2.04601

>  <r_i_glide_erotb>  (205) 
0.902859

>  <r_i_glide_esite>  (205) 
-0.0336193

>  <r_i_glide_emodel>  (205) 
-23.0402

>  <r_i_glide_energy>  (205) 
-22.0862

>  <r_i_glide_einternal>  (205) 
2.47585

>  <r_i_glide_intrahb_reward>  (205) 
-0

>  <i_i_glide_confnum>  (205) 
4

>  <i_i_glide_posenum>  (205) 
5

>  <r_i_glide_eff_state_penalty>  (205) 
0

>  <ligand_id>  (205) 
63

>  <original_smiles>  (205) 
c1ccc(CN2CC3CC3CN2)cc1

>  <smiles>  (205) 
[H]c1c([H])c([H])c(C([H])([H])N2N([H])C([H])([H])C3([H])C([H])([H])C3([H])C2([H])[H])c([H])c1[H]

$$$$
63:0:1
     RDKit          3D

 30 32  0  0  1  0  0  0  0  0999 V2000
    3.0340   -1.2873   -3.9734 C   0  0  0  0  0  0  0  0  0  0  0  0
    3.9443   -0.5234   -3.2221 C   0  0  0  0  0  0  0  0  0  0  0  0
    4.4585   -1.0332   -2.0140 C   0  0  0  0  0  0  0  0  0  0  0  0
    4.0344   -2.2786   -1.5425 C   0  0  0  0  0  0  0  0  0  0  0  0
    4.5286   -2.8217   -0.2220 C   0  0  0  0  0  0  0  0  0  0  0  0
    3.5968   -2.6341    0.9231 N   0  0  0  0  0  0  0  0  0  0  0  0
    3.3793   -1.1904    1.3111 C   0  0  0  0  0  0  0  0  0  0  0  0
    4.6896   -0.5592    1.7790 C   0  0  2  0  0  0  0  0  0  0  0  0
    5.4906   -0.1932    3.0358 C   0  0  0  0  0  0  0  0  0  0  0  0
    4.7094   -1.3964    3.0837 C   0  0  2  0  0  0  0  0  0  0  0  0
    5.0882   -2.8204    2.8223 C   0  0  0  0  0  0  0  0  0  0  0  0
    3.9994   -3.4437    2.0655 N   0  0  0  0  0  0  0  0  0  0  0  0
    3.1091   -3.0358   -2.2911 C   0  0  0  0  0  0  0  0  0  0  0  0
    2.6205   -2.5486   -3.5159 C   0  0  0  0  0  0  0  0  0  0  0  0
    2.6178   -0.8670   -4.8770 H   0  0  0  0  0  0  0  0  0  0  0  0
    4.2156    0.4758   -3.5382 H   0  0  0  0  0  0  0  0  0  0  0  0
    5.1367   -0.4358   -1.4209 H   0  0  0  0  0  0  0  0  0  0  0  0
    4.7167   -3.8803   -0.3416 H   0  0  0  0  0  0  0  0  0  0  0  0
    5.5066   -2.3843   -0.0125 H   0  0  0  0  0  0  0  0  0  0  0  0
    3.0094   -0.6095    0.4758 H   0  0  0  0  0  0  0  0  0  0  0  0
    2.6110   -1.1436    2.0869 H   0  0  0  0  0  0  0  0  0  0  0  0
    5.4448   -0.5534    0.9810 H   0  0  0  0  0  0  0  0  0  0  0  0
    6.5707   -0.2946    2.9110 H   0  0  0  0  0  0  0  0  0  0  0  0
    5.1512    0.6182    3.6806 H   0  0  0  0  0  0  0  0  0  0  0  0
    3.8781   -1.2936    3.7916 H   0  0  0  0  0  0  0  0  0  0  0  0
    5.9630   -2.8265    2.1774 H   0  0  0  0  0  0  0  0  0  0  0  0
    5.2665   -3.3627    3.7583 H   0  0  0  0  0  0  0  0  0  0  0  0
    4.3221   -4.3599    1.7540 H   0  0  0  0  0  0  0  0  0  0  0  0
    2.7617   -3.9677   -1.8883 H   0  0  0  0  0  0  0  0  0  0  0  0
    1.9043   -3.1481   -4.0715 H   0  0  0  0  0  0  0  0  0  0  0  0
  1 14  2  0
  1  2  1  0
  1 15  1  0
  2  3  2  0
  2 16  1  0
  3  4  1  0
  3 17  1  0
  4  5  1  0
  4 13  2  0
  5  6  1  0
  5 18  1  0
  5 19  1  0
  6 12  1  0
  6  7  1  0
  7  8  1  0
  7 20  1  0
  7 21  1  0
  8 10  1  0
  8  9  1  0
  8 22  1  6
  9 10  1  0
  9 23  1  0
  9 24  1  0
 10 11  1  0
 10 25  1  1
 11 12  1  0
 11 26  1  0
 11 27  1  0
 12 28  1  0
 13 14  1  0
 13 29  1  0
 14 30  1  0
M  END
>  <i_m_ct_stereo_status>  (206) 
1

>  <s_m_source_file>  (206) 
/var/tmp/pbs.5076255.sched01/tmpbaygurib/766rrai79r.sdf

>  <i_m_source_file_index>  (206) 
13

>  <i_lp_mmshare_version>  (206) 
48012

>  <i_f3d_flags>  (206) 
0

>  <s_epik_input>  (206) 
W2NIXTFbY0hdW2NIXVtjSF1bY0hdYzFbQ0gyXU4oW0NIMl0yKVtOSF1bQ0gyXVtDQEhdKFtDQEBIXTIzKVtDSDJdMw==

>  <s_epik_cmdline>  (206) 
J2VwaWtfcHl0aG9uJywgJy1waHQnLCAnMi4wJywgJy1waCcsICc3LjAnLCAnLXRuJywgJzgnLCAnLW1hJywgJzIwMCcsICctaW1hZScsICc8aW5maWxlLm1hZT4nLCAnLW9tYWUnLCAnPG91dGZpbGUubWFlPic=

>  <r_epik_Ionization_Penalty>  (206) 
0.507927

>  <r_epik_Ionization_Penalty_Charging>  (206) 
0

>  <r_epik_Ionization_Penalty_Neutral>  (206) 
0.507927

>  <r_epik_State_Penalty>  (206) 
0.426313

>  <r_epik_Charging_Adjusted_Penalty>  (206) 
0.426313

>  <i_epik_Tot_Q>  (206) 
0

>  <i_epik_Tot_abs_Q>  (206) 
0

>  <s_lp_Force_Field>  (206) 
OPLS3e

>  <r_lp_Energy>  (206) 
70.8577

>  <b_lp_Chiralities_Consistent>  (206) 
1

>  <s_lp_Variant>  (206) 
63:0-1

>  <s_i_glide_gridfile>  (206) 
pfpi4k_grid

>  <i_i_glide_lignum>  (206) 
13

>  <i_i_glide_rotatable_bonds>  (206) 
2

>  <r_i_docking_score>  (206) 
-3.1713

>  <r_i_glide_ligand_efficiency>  (206) 
-0.226522

>  <r_i_glide_ligand_efficiency_sa>  (206) 
-0.54595

>  <r_i_glide_ligand_efficiency_ln>  (206) 
-0.871463

>  <r_i_glide_gscore>  (206) 
-3.1713

>  <r_i_glide_lipo>  (206) 
-0.863551

>  <r_i_glide_hbond>  (206) 
0

>  <r_i_glide_metal>  (206) 
-0

>  <r_i_glide_rewards>  (206) 
-2.12544

>  <r_i_glide_evdw>  (206) 
-18.5449

>  <r_i_glide_ecoul>  (206) 
-0.965113

>  <r_i_glide_erotb>  (206) 
0.902859

>  <r_i_glide_esite>  (206) 
-0.0131628

>  <r_i_glide_emodel>  (206) 
-21.2058

>  <r_i_glide_energy>  (206) 
-19.51

>  <r_i_glide_einternal>  (206) 
0.0181107

>  <r_i_glide_intrahb_reward>  (206) 
-0

>  <i_i_glide_confnum>  (206) 
1

>  <i_i_glide_posenum>  (206) 
14

>  <r_i_glide_eff_state_penalty>  (206) 
0

>  <ligand_id>  (206) 
63

>  <original_smiles>  (206) 
c1ccc(CN2CC3CC3CN2)cc1

>  <smiles>  (206) 
[H]c1c([H])c([H])c(C([H])([H])N2N([H])C([H])([H])C3([H])C([H])([H])C3([H])C2([H])[H])c([H])c1[H]

$$$$
63:0:2
     RDKit          3D

 30 32  0  0  1  0  0  0  0  0999 V2000
    3.4139   -1.4253   -4.0282 C   0  0  0  0  0  0  0  0  0  0  0  0
    3.9227   -0.5459   -3.0564 C   0  0  0  0  0  0  0  0  0  0  0  0
    4.6768   -1.0553   -1.9812 C   0  0  0  0  0  0  0  0  0  0  0  0
    4.9628   -2.4202   -1.8908 C   0  0  0  0  0  0  0  0  0  0  0  0
    5.7468   -2.9476   -0.6983 C   0  0  0  0  0  0  0  0  0  0  0  0
    4.8796   -3.3388    0.4366 N   0  0  0  0  0  0  0  0  0  0  0  0
    5.6319   -3.6270    1.6986 C   0  0  0  0  0  0  0  0  0  0  0  0
    6.5420   -4.8394    1.5269 C   0  0  2  0  0  0  0  0  0  0  0  0
    6.6545   -6.3624    1.7307 C   0  0  0  0  0  0  0  0  0  0  0  0
    5.3494   -5.8448    1.4266 C   0  0  2  0  0  0  0  0  0  0  0  0
    4.6274   -5.7263    0.1187 C   0  0  0  0  0  0  0  0  0  0  0  0
    3.9655   -4.4229    0.0949 N   0  0  0  0  0  0  0  0  0  0  0  0
    4.4664   -3.3023   -2.8731 C   0  0  0  0  0  0  0  0  0  0  0  0
    3.6666   -2.8057   -3.9223 C   0  0  0  0  0  0  0  0  0  0  0  0
    2.8022   -1.0409   -4.8236 H   0  0  0  0  0  0  0  0  0  0  0  0
    3.7123    0.5089   -3.1214 H   0  0  0  0  0  0  0  0  0  0  0  0
    5.0204   -0.3771   -1.2131 H   0  0  0  0  0  0  0  0  0  0  0  0
    6.3696   -3.7793   -1.0173 H   0  0  0  0  0  0  0  0  0  0  0  0
    6.4443   -2.1831   -0.3585 H   0  0  0  0  0  0  0  0  0  0  0  0
    6.2560   -2.7712    1.9454 H   0  0  0  0  0  0  0  0  0  0  0  0
    4.9253   -3.7585    2.5209 H   0  0  0  0  0  0  0  0  0  0  0  0
    7.3000   -4.6263    0.7705 H   0  0  0  0  0  0  0  0  0  0  0  0
    7.1901   -6.8724    0.9307 H   0  0  0  0  0  0  0  0  0  0  0  0
    6.7771   -6.7817    2.7265 H   0  0  0  0  0  0  0  0  0  0  0  0
    4.6713   -5.9352    2.2791 H   0  0  0  0  0  0  0  0  0  0  0  0
    5.3474   -5.7439   -0.6886 H   0  0  0  0  0  0  0  0  0  0  0  0
    3.8967   -6.5306   -0.0054 H   0  0  0  0  0  0  0  0  0  0  0  0
    3.5840   -4.2603   -0.8344 H   0  0  0  0  0  0  0  0  0  0  0  0
    4.6513   -4.3618   -2.8079 H   0  0  0  0  0  0  0  0  0  0  0  0
    3.2395   -3.4783   -4.6461 H   0  0  0  0  0  0  0  0  0  0  0  0
  1 14  2  0
  1  2  1  0
  1 15  1  0
  2  3  2  0
  2 16  1  0
  3  4  1  0
  3 17  1  0
  4  5  1  0
  4 13  2  0
  5  6  1  0
  5 18  1  0
  5 19  1  0
  6 12  1  0
  6  7  1  0
  7  8  1  0
  7 20  1  0
  7 21  1  0
  8 10  1  0
  8  9  1  0
  8 22  1  6
  9 10  1  0
  9 23  1  0
  9 24  1  0
 10 11  1  0
 10 25  1  1
 11 12  1  0
 11 26  1  0
 11 27  1  0
 12 28  1  0
 13 14  1  0
 13 29  1  0
 14 30  1  0
M  END
>  <i_m_ct_stereo_status>  (207) 
1

>  <s_m_source_file>  (207) 
/var/tmp/pbs.5076255.sched01/tmpbaygurib/766rrai79r.sdf

>  <i_m_source_file_index>  (207) 
13

>  <i_lp_mmshare_version>  (207) 
48012

>  <i_f3d_flags>  (207) 
0

>  <s_epik_input>  (207) 
W2NIXTFbY0hdW2NIXVtjSF1bY0hdYzFbQ0gyXU4oW0NIMl0yKVtOSF1bQ0gyXVtDQEhdKFtDQEBIXTIzKVtDSDJdMw==

>  <s_epik_cmdline>  (207) 
J2VwaWtfcHl0aG9uJywgJy1waHQnLCAnMi4wJywgJy1waCcsICc3LjAnLCAnLXRuJywgJzgnLCAnLW1hJywgJzIwMCcsICctaW1hZScsICc8aW5maWxlLm1hZT4nLCAnLW9tYWUnLCAnPG91dGZpbGUubWFlPic=

>  <r_epik_Ionization_Penalty>  (207) 
0.507927

>  <r_epik_Ionization_Penalty_Charging>  (207) 
0

>  <r_epik_Ionization_Penalty_Neutral>  (207) 
0.507927

>  <r_epik_State_Penalty>  (207) 
0.426313

>  <r_epik_Charging_Adjusted_Penalty>  (207) 
0.426313

>  <i_epik_Tot_Q>  (207) 
0

>  <i_epik_Tot_abs_Q>  (207) 
0

>  <s_lp_Force_Field>  (207) 
OPLS3e

>  <r_lp_Energy>  (207) 
70.8577

>  <b_lp_Chiralities_Consistent>  (207) 
1

>  <s_lp_Variant>  (207) 
63:0-1

>  <s_i_glide_gridfile>  (207) 
pfpi4k_grid

>  <i_i_glide_lignum>  (207) 
13

>  <i_i_glide_rotatable_bonds>  (207) 
2

>  <r_i_docking_score>  (207) 
-3.10387

>  <r_i_glide_ligand_efficiency>  (207) 
-0.221705

>  <r_i_glide_ligand_efficiency_sa>  (207) 
-0.53434

>  <r_i_glide_ligand_efficiency_ln>  (207) 
-0.852932

>  <r_i_glide_gscore>  (207) 
-3.10387

>  <r_i_glide_lipo>  (207) 
-0.674409

>  <r_i_glide_hbond>  (207) 
0

>  <r_i_glide_metal>  (207) 
-0

>  <r_i_glide_rewards>  (207) 
-2.16737

>  <r_i_glide_evdw>  (207) 
-19.7574

>  <r_i_glide_ecoul>  (207) 
-1.13748

>  <r_i_glide_erotb>  (207) 
0.902859

>  <r_i_glide_esite>  (207) 
-0.00645558

>  <r_i_glide_emodel>  (207) 
-21.8426

>  <r_i_glide_energy>  (207) 
-20.8949

>  <r_i_glide_einternal>  (207) 
0.392476

>  <r_i_glide_intrahb_reward>  (207) 
-0

>  <i_i_glide_confnum>  (207) 
4

>  <i_i_glide_posenum>  (207) 
12

>  <r_i_glide_eff_state_penalty>  (207) 
0

>  <ligand_id>  (207) 
63

>  <original_smiles>  (207) 
c1ccc(CN2CC3CC3CN2)cc1

>  <smiles>  (207) 
[H]c1c([H])c([H])c(C([H])([H])N2N([H])C([H])([H])C3([H])C([H])([H])C3([H])C2([H])[H])c([H])c1[H]

$$$$
63:1:0
     RDKit          3D

 31 33  0  0  1  0  0  0  0  0999 V2000
    3.4985   -1.3462   -4.3197 C   0  0  0  0  0  0  0  0  0  0  0  0
    2.9303   -2.5569   -3.8779 C   0  0  0  0  0  0  0  0  0  0  0  0
    3.0229   -2.9224   -2.5213 C   0  0  0  0  0  0  0  0  0  0  0  0
    3.7000   -2.0934   -1.5991 C   0  0  0  0  0  0  0  0  0  0  0  0
    3.8167   -2.5031   -0.1465 C   0  0  0  0  0  0  0  0  0  0  0  0
    2.9484   -1.7304    0.7604 N   0  0  1  0  0  0  0  0  0  0  0  0
    2.6420   -2.5267    1.9886 C   0  0  0  0  0  0  0  0  0  0  0  0
    2.0120   -1.6363    3.0230 C   0  0  1  0  0  0  0  0  0  0  0  0
    2.2939   -1.1354    4.4251 C   0  0  0  0  0  0  0  0  0  0  0  0
    3.1442   -0.6614    3.3103 C   0  0  2  0  0  0  0  0  0  0  0  0
    3.0239    0.3485    2.2121 C   0  0  0  0  0  0  0  0  0  0  0  0
    3.4904   -0.3312    0.9956 N   0  0  0  0  0  0  0  0  0  0  0  0
    4.3021   -0.9057   -2.0578 C   0  0  0  0  0  0  0  0  0  0  0  0
    4.1768   -0.5192   -3.4035 C   0  0  0  0  0  0  0  0  0  0  0  0
    3.4112   -1.0421   -5.3489 H   0  0  0  0  0  0  0  0  0  0  0  0
    2.4036   -3.1979   -4.5778 H   0  0  0  0  0  0  0  0  0  0  0  0
    2.5712   -3.8536   -2.2017 H   0  0  0  0  0  0  0  0  0  0  0  0
    3.5971   -3.5742   -0.0879 H   0  0  0  0  0  0  0  0  0  0  0  0
    4.8538   -2.4002    0.1690 H   0  0  0  0  0  0  0  0  0  0  0  0
    1.9618   -3.3487    1.7682 H   0  0  0  0  0  0  0  0  0  0  0  0
    3.5513   -2.9774    2.3960 H   0  0  0  0  0  0  0  0  0  0  0  0
    1.0385   -1.2678    2.6929 H   0  0  0  0  0  0  0  0  0  0  0  0
    1.6342   -0.3756    4.8492 H   0  0  0  0  0  0  0  0  0  0  0  0
    2.7382   -1.8294    5.1442 H   0  0  0  0  0  0  0  0  0  0  0  0
    4.1586   -1.0462    3.4016 H   0  0  0  0  0  0  0  0  0  0  0  0
    1.9950    0.7021    2.1209 H   0  0  0  0  0  0  0  0  0  0  0  0
    3.6588    1.2087    2.4383 H   0  0  0  0  0  0  0  0  0  0  0  0
    3.0795    0.1027    0.1840 H   0  0  0  0  0  0  0  0  0  0  0  0
    4.8410   -0.2595   -1.3781 H   0  0  0  0  0  0  0  0  0  0  0  0
    4.5961    0.4141   -3.7439 H   0  0  0  0  0  0  0  0  0  0  0  0
    2.0687   -1.5590    0.2521 H   0  0  0  0  0  0  0  0  0  0  0  0
  1 14  2  0
  1  2  1  0
  1 15  1  0
  2  3  2  0
  2 16  1  0
  3  4  1  0
  3 17  1  0
  4  5  1  0
  4 13  2  0
  5  6  1  0
  5 18  1  0
  5 19  1  0
  6 12  1  0
  6  7  1  0
  6 31  1  6
  7  8  1  0
  7 20  1  0
  7 21  1  0
  8 10  1  0
  8  9  1  0
  8 22  1  6
  9 10  1  0
  9 23  1  0
  9 24  1  0
 10 11  1  0
 10 25  1  1
 11 12  1  0
 11 26  1  0
 11 27  1  0
 12 28  1  0
 13 14  1  0
 13 29  1  0
 14 30  1  0
M  CHG  1   6   1
M  END
>  <i_m_ct_stereo_status>  (208) 
1

>  <s_m_source_file>  (208) 
/var/tmp/pbs.5076255.sched01/tmpbaygurib/766rrai79r.sdf

>  <i_m_source_file_index>  (208) 
14

>  <i_lp_mmshare_version>  (208) 
48012

>  <i_f3d_flags>  (208) 
0

>  <s_epik_input>  (208) 
W2NIXTFbY0hdW2NIXVtjSF1bY0hdYzFbQ0gyXU4oW0NIMl0yKVtOSF1bQ0gyXVtDQEhdKFtDQEBIXTIzKVtDSDJdMw==

>  <s_epik_cmdline>  (208) 
J2VwaWtfcHl0aG9uJywgJy1waHQnLCAnMi4wJywgJy1waCcsICc3LjAnLCAnLXRuJywgJzgnLCAnLW1hJywgJzIwMCcsICctaW1hZScsICc8aW5maWxlLm1hZT4nLCAnLW9tYWUnLCAnPG91dGZpbGUubWFlPic=

>  <r_epik_Ionization_Penalty>  (208) 
0.510682

>  <r_epik_Ionization_Penalty_Charging>  (208) 
0.510682

>  <r_epik_Ionization_Penalty_Neutral>  (208) 
7.70634e-09

>  <r_epik_State_Penalty>  (208) 
0.624297

>  <r_epik_Charging_Adjusted_Penalty>  (208) 
1.13498

>  <i_epik_Tot_Q>  (208) 
1

>  <i_epik_Tot_abs_Q>  (208) 
1

>  <s_lp_Force_Field>  (208) 
OPLS3e

>  <r_lp_Energy>  (208) 
56.1662

>  <b_lp_Chiralities_Consistent>  (208) 
1

>  <s_lp_Variant>  (208) 
63:0-2

>  <s_i_glide_gridfile>  (208) 
pfpi4k_grid

>  <i_i_glide_lignum>  (208) 
14

>  <i_i_glide_rotatable_bonds>  (208) 
2

>  <r_i_docking_score>  (208) 
-3.76833

>  <r_i_glide_ligand_efficiency>  (208) 
-0.269166

>  <r_i_glide_ligand_efficiency_sa>  (208) 
-0.648729

>  <r_i_glide_ligand_efficiency_ln>  (208) 
-1.03552

>  <r_i_glide_gscore>  (208) 
-3.76833

>  <r_i_glide_lipo>  (208) 
-0.42034

>  <r_i_glide_hbond>  (208) 
-0.2

>  <r_i_glide_metal>  (208) 
-0

>  <r_i_glide_rewards>  (208) 
-2.11857

>  <r_i_glide_evdw>  (208) 
-18.0825

>  <r_i_glide_ecoul>  (208) 
-6.40319

>  <r_i_glide_erotb>  (208) 
0.894922

>  <r_i_glide_esite>  (208) 
-0.0597379

>  <r_i_glide_emodel>  (208) 
-30.5266

>  <r_i_glide_energy>  (208) 
-24.4857

>  <r_i_glide_einternal>  (208) 
1.12201

>  <r_i_glide_intrahb_reward>  (208) 
-0

>  <i_i_glide_confnum>  (208) 
1

>  <i_i_glide_posenum>  (208) 
24

>  <r_i_glide_eff_state_penalty>  (208) 
0

>  <ligand_id>  (208) 
63

>  <original_smiles>  (208) 
c1ccc(CN2CC3CC3CN2)cc1

>  <smiles>  (208) 
[H]c1c([H])c([H])c(C([H])([H])[N+]2([H])N([H])C([H])([H])C3([H])C([H])([H])C3([H])C2([H])[H])c([H])c1[H]

$$$$
63:1:1
     RDKit          3D

 31 33  0  0  1  0  0  0  0  0999 V2000
    4.1910   -3.2838   -3.8404 C   0  0  0  0  0  0  0  0  0  0  0  0
    3.4927   -2.0624   -3.8176 C   0  0  0  0  0  0  0  0  0  0  0  0
    3.4854   -1.2815   -2.6474 C   0  0  0  0  0  0  0  0  0  0  0  0
    4.1740   -1.7266   -1.4933 C   0  0  0  0  0  0  0  0  0  0  0  0
    4.1882   -0.8940   -0.2272 C   0  0  0  0  0  0  0  0  0  0  0  0
    3.0284   -1.1102    0.6730 N   0  0  1  0  0  0  0  0  0  0  0  0
    3.0864   -2.4693    1.3018 C   0  0  0  0  0  0  0  0  0  0  0  0
    2.1200   -2.5073    2.4616 C   0  0  1  0  0  0  0  0  0  0  0  0
    2.1511   -2.7419    3.9554 C   0  0  0  0  0  0  0  0  0  0  0  0
    2.7614   -1.4990    3.4082 C   0  0  2  0  0  0  0  0  0  0  0  0
    2.2436   -0.1840    2.9142 C   0  0  0  0  0  0  0  0  0  0  0  0
    2.9485    0.0727    1.6483 N   0  0  0  0  0  0  0  0  0  0  0  0
    4.8898   -2.9404   -1.5334 C   0  0  0  0  0  0  0  0  0  0  0  0
    4.8970   -3.7139   -2.7040 C   0  0  0  0  0  0  0  0  0  0  0  0
    4.1813   -3.9097   -4.7199 H   0  0  0  0  0  0  0  0  0  0  0  0
    2.9522   -1.7285   -4.6918 H   0  0  0  0  0  0  0  0  0  0  0  0
    2.9483   -0.3445   -2.6460 H   0  0  0  0  0  0  0  0  0  0  0  0
    5.1177   -1.0566    0.3196 H   0  0  0  0  0  0  0  0  0  0  0  0
    4.2287    0.1399   -0.5358 H   0  0  0  0  0  0  0  0  0  0  0  0
    2.8086   -3.2253    0.5659 H   0  0  0  0  0  0  0  0  0  0  0  0
    4.1013   -2.6992    1.6412 H   0  0  0  0  0  0  0  0  0  0  0  0
    1.0942   -2.3565    2.1165 H   0  0  0  0  0  0  0  0  0  0  0  0
    1.2252   -2.6041    4.5095 H   0  0  0  0  0  0  0  0  0  0  0  0
    2.8219   -3.5086    4.3421 H   0  0  0  0  0  0  0  0  0  0  0  0
    3.8447   -1.4946    3.5482 H   0  0  0  0  0  0  0  0  0  0  0  0
    1.1625   -0.2092    2.7704 H   0  0  0  0  0  0  0  0  0  0  0  0
    2.4653    0.5972    3.6441 H   0  0  0  0  0  0  0  0  0  0  0  0
    2.4195    0.7267    1.0886 H   0  0  0  0  0  0  0  0  0  0  0  0
    5.4330   -3.2857   -0.6676 H   0  0  0  0  0  0  0  0  0  0  0  0
    5.4130   -4.6550   -2.7215 H   0  0  0  0  0  0  0  0  0  0  0  0
    2.1611   -1.0514    0.1231 H   0  0  0  0  0  0  0  0  0  0  0  0
  1 14  2  0
  1  2  1  0
  1 15  1  0
  2  3  2  0
  2 16  1  0
  3  4  1  0
  3 17  1  0
  4  5  1  0
  4 13  2  0
  5  6  1  0
  5 18  1  0
  5 19  1  0
  6 12  1  0
  6  7  1  0
  6 31  1  6
  7  8  1  0
  7 20  1  0
  7 21  1  0
  8 10  1  0
  8  9  1  0
  8 22  1  6
  9 10  1  0
  9 23  1  0
  9 24  1  0
 10 11  1  0
 10 25  1  6
 11 12  1  0
 11 26  1  0
 11 27  1  0
 12 28  1  0
 13 14  1  0
 13 29  1  0
 14 30  1  0
M  CHG  1   6   1
M  END
>  <i_m_ct_stereo_status>  (209) 
1

>  <s_m_source_file>  (209) 
/var/tmp/pbs.5076255.sched01/tmpbaygurib/766rrai79r.sdf

>  <i_m_source_file_index>  (209) 
14

>  <i_lp_mmshare_version>  (209) 
48012

>  <i_f3d_flags>  (209) 
0

>  <s_epik_input>  (209) 
W2NIXTFbY0hdW2NIXVtjSF1bY0hdYzFbQ0gyXU4oW0NIMl0yKVtOSF1bQ0gyXVtDQEhdKFtDQEBIXTIzKVtDSDJdMw==

>  <s_epik_cmdline>  (209) 
J2VwaWtfcHl0aG9uJywgJy1waHQnLCAnMi4wJywgJy1waCcsICc3LjAnLCAnLXRuJywgJzgnLCAnLW1hJywgJzIwMCcsICctaW1hZScsICc8aW5maWxlLm1hZT4nLCAnLW9tYWUnLCAnPG91dGZpbGUubWFlPic=

>  <r_epik_Ionization_Penalty>  (209) 
0.510682

>  <r_epik_Ionization_Penalty_Charging>  (209) 
0.510682

>  <r_epik_Ionization_Penalty_Neutral>  (209) 
7.70634e-09

>  <r_epik_State_Penalty>  (209) 
0.624297

>  <r_epik_Charging_Adjusted_Penalty>  (209) 
1.13498

>  <i_epik_Tot_Q>  (209) 
1

>  <i_epik_Tot_abs_Q>  (209) 
1

>  <s_lp_Force_Field>  (209) 
OPLS3e

>  <r_lp_Energy>  (209) 
56.1662

>  <b_lp_Chiralities_Consistent>  (209) 
1

>  <s_lp_Variant>  (209) 
63:0-2

>  <s_i_glide_gridfile>  (209) 
pfpi4k_grid

>  <i_i_glide_lignum>  (209) 
14

>  <i_i_glide_rotatable_bonds>  (209) 
2

>  <r_i_docking_score>  (209) 
-3.63067

>  <r_i_glide_ligand_efficiency>  (209) 
-0.259333

>  <r_i_glide_ligand_efficiency_sa>  (209) 
-0.625031

>  <r_i_glide_ligand_efficiency_ln>  (209) 
-0.997695

>  <r_i_glide_gscore>  (209) 
-3.63067

>  <r_i_glide_lipo>  (209) 
-0.288671

>  <r_i_glide_hbond>  (209) 
-0.2

>  <r_i_glide_metal>  (209) 
-0

>  <r_i_glide_rewards>  (209) 
-2.11857

>  <r_i_glide_evdw>  (209) 
-18.345

>  <r_i_glide_ecoul>  (209) 
-6.17615

>  <r_i_glide_erotb>  (209) 
0.894922

>  <r_i_glide_esite>  (209) 
-0.0746803

>  <r_i_glide_emodel>  (209) 
-30.7337

>  <r_i_glide_energy>  (209) 
-24.5211

>  <r_i_glide_einternal>  (209) 
0.354263

>  <r_i_glide_intrahb_reward>  (209) 
-0

>  <i_i_glide_confnum>  (209) 
4

>  <i_i_glide_posenum>  (209) 
20

>  <r_i_glide_eff_state_penalty>  (209) 
0

>  <ligand_id>  (209) 
63

>  <original_smiles>  (209) 
c1ccc(CN2CC3CC3CN2)cc1

>  <smiles>  (209) 
[H]c1c([H])c([H])c(C([H])([H])[N+]2([H])N([H])C([H])([H])C3([H])C([H])([H])C3([H])C2([H])[H])c([H])c1[H]

$$$$
63:1:2
     RDKit          3D

 31 33  0  0  1  0  0  0  0  0999 V2000
    3.1094   -1.4171   -3.9320 C   0  0  0  0  0  0  0  0  0  0  0  0
    3.2724   -2.7968   -3.7428 C   0  0  0  0  0  0  0  0  0  0  0  0
    4.1579   -3.2579   -2.7481 C   0  0  0  0  0  0  0  0  0  0  0  0
    4.8083   -2.3689   -1.8750 C   0  0  0  0  0  0  0  0  0  0  0  0
    5.7236   -2.8847   -0.7774 C   0  0  0  0  0  0  0  0  0  0  0  0
    5.0097   -3.4405    0.4094 N   0  0  1  0  0  0  0  0  0  0  0  0
    4.1639   -4.6285    0.0601 C   0  0  0  0  0  0  0  0  0  0  0  0
    3.7517   -5.3280    1.3251 C   0  0  1  0  0  0  0  0  0  0  0  0
    3.8985   -6.6920    1.9467 C   0  0  0  0  0  0  0  0  0  0  0  0
    5.0946   -5.8142    1.8465 C   0  0  2  0  0  0  0  0  0  0  0  0
    5.6198   -4.6229    2.5800 C   0  0  0  0  0  0  0  0  0  0  0  0
    6.0059   -3.6471    1.5363 N   0  0  0  0  0  0  0  0  0  0  0  0
    4.6416   -0.9754   -2.0789 C   0  0  0  0  0  0  0  0  0  0  0  0
    3.8117   -0.5098   -3.1211 C   0  0  0  0  0  0  0  0  0  0  0  0
    2.4345   -1.0525   -4.7053 H   0  0  0  0  0  0  0  0  0  0  0  0
    2.7216   -3.5114   -4.3394 H   0  0  0  0  0  0  0  0  0  0  0  0
    4.2852   -4.3191   -2.6419 H   0  0  0  0  0  0  0  0  0  0  0  0
    6.3879   -3.6375   -1.1866 H   0  0  0  0  0  0  0  0  0  0  0  0
    6.3697   -2.0698   -0.4573 H   0  0  0  0  0  0  0  0  0  0  0  0
    3.2444   -4.3294   -0.4415 H   0  0  0  0  0  0  0  0  0  0  0  0
    4.6978   -5.3207   -0.5826 H   0  0  0  0  0  0  0  0  0  0  0  0
    3.1058   -4.7046    1.9308 H   0  0  0  0  0  0  0  0  0  0  0  0
    3.5166   -6.8299    2.9590 H   0  0  0  0  0  0  0  0  0  0  0  0
    3.8628   -7.5668    1.2945 H   0  0  0  0  0  0  0  0  0  0  0  0
    5.8171   -6.2198    1.1485 H   0  0  0  0  0  0  0  0  0  0  0  0
    4.8662   -4.2159    3.2508 H   0  0  0  0  0  0  0  0  0  0  0  0
    6.4868   -4.9270    3.1747 H   0  0  0  0  0  0  0  0  0  0  0  0
    6.0030   -2.7126    1.9083 H   0  0  0  0  0  0  0  0  0  0  0  0
    5.1570   -0.2605   -1.4562 H   0  0  0  0  0  0  0  0  0  0  0  0
    3.6864    0.5525   -3.2802 H   0  0  0  0  0  0  0  0  0  0  0  0
    4.3928   -2.7221    0.7349 H   0  0  0  0  0  0  0  0  0  0  0  0
  1 14  2  0
  1  2  1  0
  1 15  1  0
  2  3  2  0
  2 16  1  0
  3  4  1  0
  3 17  1  0
  4  5  1  0
  4 13  2  0
  5  6  1  0
  5 18  1  0
  5 19  1  0
  6 12  1  0
  6  7  1  0
  6 31  1  1
  7  8  1  0
  7 20  1  0
  7 21  1  0
  8 10  1  0
  8  9  1  0
  8 22  1  1
  9 10  1  0
  9 23  1  0
  9 24  1  0
 10 11  1  0
 10 25  1  6
 11 12  1  0
 11 26  1  0
 11 27  1  0
 12 28  1  0
 13 14  1  0
 13 29  1  0
 14 30  1  0
M  CHG  1   6   1
M  END
>  <i_m_ct_stereo_status>  (210) 
1

>  <s_m_source_file>  (210) 
/var/tmp/pbs.5076255.sched01/tmpbaygurib/766rrai79r.sdf

>  <i_m_source_file_index>  (210) 
14

>  <i_lp_mmshare_version>  (210) 
48012

>  <i_f3d_flags>  (210) 
0

>  <s_epik_input>  (210) 
W2NIXTFbY0hdW2NIXVtjSF1bY0hdYzFbQ0gyXU4oW0NIMl0yKVtOSF1bQ0gyXVtDQEhdKFtDQEBIXTIzKVtDSDJdMw==

>  <s_epik_cmdline>  (210) 
J2VwaWtfcHl0aG9uJywgJy1waHQnLCAnMi4wJywgJy1waCcsICc3LjAnLCAnLXRuJywgJzgnLCAnLW1hJywgJzIwMCcsICctaW1hZScsICc8aW5maWxlLm1hZT4nLCAnLW9tYWUnLCAnPG91dGZpbGUubWFlPic=

>  <r_epik_Ionization_Penalty>  (210) 
0.510682

>  <r_epik_Ionization_Penalty_Charging>  (210) 
0.510682

>  <r_epik_Ionization_Penalty_Neutral>  (210) 
7.70634e-09

>  <r_epik_State_Penalty>  (210) 
0.624297

>  <r_epik_Charging_Adjusted_Penalty>  (210) 
1.13498

>  <i_epik_Tot_Q>  (210) 
1

>  <i_epik_Tot_abs_Q>  (210) 
1

>  <s_lp_Force_Field>  (210) 
OPLS3e

>  <r_lp_Energy>  (210) 
56.1662

>  <b_lp_Chiralities_Consistent>  (210) 
1

>  <s_lp_Variant>  (210) 
63:0-2

>  <s_i_glide_gridfile>  (210) 
pfpi4k_grid

>  <i_i_glide_lignum>  (210) 
14

>  <i_i_glide_rotatable_bonds>  (210) 
2

>  <r_i_docking_score>  (210) 
-3.30817

>  <r_i_glide_ligand_efficiency>  (210) 
-0.236298

>  <r_i_glide_ligand_efficiency_sa>  (210) 
-0.569511

>  <r_i_glide_ligand_efficiency_ln>  (210) 
-0.909073

>  <r_i_glide_gscore>  (210) 
-3.30817

>  <r_i_glide_lipo>  (210) 
-0.553664

>  <r_i_glide_hbond>  (210) 
0

>  <r_i_glide_metal>  (210) 
-0

>  <r_i_glide_rewards>  (210) 
-2.11857

>  <r_i_glide_evdw>  (210) 
-19.3351

>  <r_i_glide_ecoul>  (210) 
-3.76071

>  <r_i_glide_erotb>  (210) 
0.894922

>  <r_i_glide_esite>  (210) 
0

>  <r_i_glide_emodel>  (210) 
-28.6566

>  <r_i_glide_energy>  (210) 
-23.0958

>  <r_i_glide_einternal>  (210) 
0.197864

>  <r_i_glide_intrahb_reward>  (210) 
-0

>  <i_i_glide_confnum>  (210) 
5

>  <i_i_glide_posenum>  (210) 
31

>  <r_i_glide_eff_state_penalty>  (210) 
0

>  <ligand_id>  (210) 
63

>  <original_smiles>  (210) 
c1ccc(CN2CC3CC3CN2)cc1

>  <smiles>  (210) 
[H]c1c([H])c([H])c(C([H])([H])[N+]2([H])N([H])C([H])([H])C3([H])C([H])([H])C3([H])C2([H])[H])c([H])c1[H]

$$$$
63:2:0
     RDKit          3D

 31 33  0  0  1  0  0  0  0  0999 V2000
   -4.7363   -9.7927   -5.5230 C   0  0  0  0  0  0  0  0  0  0  0  0
   -5.3764  -10.6249   -6.4568 C   0  0  0  0  0  0  0  0  0  0  0  0
   -6.2676  -10.0760   -7.4015 C   0  0  0  0  0  0  0  0  0  0  0  0
   -6.5304   -8.6901   -7.4039 C   0  0  0  0  0  0  0  0  0  0  0  0
   -7.4902   -8.0795   -8.4105 C   0  0  0  0  0  0  0  0  0  0  0  0
   -8.8683   -8.0252   -7.9309 N   0  0  0  0  0  0  0  0  0  0  0  0
   -9.6236   -7.0541   -8.7515 C   0  0  0  0  0  0  0  0  0  0  0  0
  -11.0869   -7.3203   -8.5267 C   0  0  1  0  0  0  0  0  0  0  0  0
  -12.2842   -7.4991   -9.3921 C   0  0  0  0  0  0  0  0  0  0  0  0
  -11.3216   -8.6449   -9.2403 C   0  0  2  0  0  0  0  0  0  0  0  0
  -10.9178   -9.6244   -8.1695 C   0  0  0  0  0  0  0  0  0  0  0  0
   -9.4577   -9.4404   -7.9115 N   0  0  0  0  0  0  0  0  0  0  0  0
   -5.8883   -7.8591   -6.4566 C   0  0  0  0  0  0  0  0  0  0  0  0
   -4.9888   -8.4086   -5.5241 C   0  0  0  0  0  0  0  0  0  0  0  0
   -4.0624  -10.2146   -4.7910 H   0  0  0  0  0  0  0  0  0  0  0  0
   -5.1898  -11.6893   -6.4448 H   0  0  0  0  0  0  0  0  0  0  0  0
   -6.7425  -10.7221   -8.1236 H   0  0  0  0  0  0  0  0  0  0  0  0
   -7.1384   -7.0734   -8.6398 H   0  0  0  0  0  0  0  0  0  0  0  0
   -7.4549   -8.6321   -9.3532 H   0  0  0  0  0  0  0  0  0  0  0  0
   -9.3944   -6.0377   -8.4294 H   0  0  0  0  0  0  0  0  0  0  0  0
   -9.3820   -7.1413   -9.8139 H   0  0  0  0  0  0  0  0  0  0  0  0
  -11.3824   -7.2066   -7.4821 H   0  0  0  0  0  0  0  0  0  0  0  0
  -13.2519   -7.5762   -8.8957 H   0  0  0  0  0  0  0  0  0  0  0  0
  -12.2697   -6.9390  -10.3256 H   0  0  0  0  0  0  0  0  0  0  0  0
  -10.8168   -8.8525  -10.1884 H   0  0  0  0  0  0  0  0  0  0  0  0
  -11.5112   -9.4822   -7.2615 H   0  0  0  0  0  0  0  0  0  0  0  0
  -11.1060  -10.6378   -8.5286 H   0  0  0  0  0  0  0  0  0  0  0  0
   -8.9405   -9.9566   -8.6041 H   0  0  0  0  0  0  0  0  0  0  0  0
   -6.0821   -6.7961   -6.4518 H   0  0  0  0  0  0  0  0  0  0  0  0
   -4.4976   -7.7758   -4.7992 H   0  0  0  0  0  0  0  0  0  0  0  0
   -9.2366   -9.8050   -6.9978 H   0  0  0  0  0  0  0  0  0  0  0  0
  1 14  2  0
  1  2  1  0
  1 15  1  0
  2  3  2  0
  2 16  1  0
  3  4  1  0
  3 17  1  0
  4  5  1  0
  4 13  2  0
  5  6  1  0
  5 18  1  0
  5 19  1  0
  6 12  1  0
  6  7  1  0
  7  8  1  0
  7 20  1  0
  7 21  1  0
  8 10  1  0
  8  9  1  0
  8 22  1  1
  9 10  1  0
  9 23  1  0
  9 24  1  0
 10 11  1  0
 10 25  1  6
 11 12  1  0
 11 26  1  0
 11 27  1  0
 12 28  1  0
 12 31  1  0
 13 14  1  0
 13 29  1  0
 14 30  1  0
M  CHG  1  12   1
M  END
>  <i_m_ct_stereo_status>  (211) 
1

>  <s_m_source_file>  (211) 
/var/tmp/pbs.5076255.sched01/tmpbaygurib/766rrai79r.sdf

>  <i_m_source_file_index>  (211) 
15

>  <i_lp_mmshare_version>  (211) 
48012

>  <i_f3d_flags>  (211) 
0

>  <s_epik_input>  (211) 
W2NIXTFbY0hdW2NIXVtjSF1bY0hdYzFbQ0gyXU4oW0NIMl0yKVtOSF1bQ0gyXVtDQEhdKFtDQEBIXTIzKVtDSDJdMw==

>  <s_epik_cmdline>  (211) 
J2VwaWtfcHl0aG9uJywgJy1waHQnLCAnMi4wJywgJy1waCcsICc3LjAnLCAnLXRuJywgJzgnLCAnLW1hJywgJzIwMCcsICctaW1hZScsICc8aW5maWxlLm1hZT4nLCAnLW9tYWUnLCAnPG91dGZpbGUubWFlPic=

>  <r_epik_Ionization_Penalty>  (211) 
0.785822

>  <r_epik_Ionization_Penalty_Charging>  (211) 
0.785822

>  <r_epik_Ionization_Penalty_Neutral>  (211) 
8.35753e-10

>  <r_epik_State_Penalty>  (211) 
1.0698

>  <r_epik_Charging_Adjusted_Penalty>  (211) 
1.85563

>  <i_epik_Tot_Q>  (211) 
1

>  <i_epik_Tot_abs_Q>  (211) 
1

>  <s_lp_Force_Field>  (211) 
OPLS3e

>  <r_lp_Energy>  (211) 
63.5544

>  <b_lp_Chiralities_Consistent>  (211) 
1

>  <s_lp_Variant>  (211) 
63:0-3

>  <s_i_glide_gridfile>  (211) 
pfpi4k_grid

>  <i_i_glide_lignum>  (211) 
15

>  <i_i_glide_rotatable_bonds>  (211) 
2

>  <r_i_docking_score>  (211) 
-4.12829

>  <r_i_glide_ligand_efficiency>  (211) 
-0.294878

>  <r_i_glide_ligand_efficiency_sa>  (211) 
-0.710697

>  <r_i_glide_ligand_efficiency_ln>  (211) 
-1.13444

>  <r_i_glide_gscore>  (211) 
-4.12829

>  <r_i_glide_lipo>  (211) 
-1.33943

>  <r_i_glide_hbond>  (211) 
0

>  <r_i_glide_metal>  (211) 
-0

>  <r_i_glide_rewards>  (211) 
-2.49357

>  <r_i_glide_evdw>  (211) 
-17.0492

>  <r_i_glide_ecoul>  (211) 
-2.25167

>  <r_i_glide_erotb>  (211) 
0.894922

>  <r_i_glide_esite>  (211) 
0

>  <r_i_glide_emodel>  (211) 
-23.1818

>  <r_i_glide_energy>  (211) 
-19.3009

>  <r_i_glide_einternal>  (211) 
0.836747

>  <r_i_glide_intrahb_reward>  (211) 
-0

>  <i_i_glide_confnum>  (211) 
1

>  <i_i_glide_posenum>  (211) 
37

>  <r_i_glide_eff_state_penalty>  (211) 
0

>  <ligand_id>  (211) 
63

>  <original_smiles>  (211) 
c1ccc(CN2CC3CC3CN2)cc1

>  <smiles>  (211) 
[H]c1c([H])c([H])c(C([H])([H])N2C([H])([H])C3([H])C([H])([H])C3([H])C([H])([H])[N+]2([H])[H])c([H])c1[H]

$$$$
63:2:1
     RDKit          3D

 31 33  0  0  1  0  0  0  0  0999 V2000
   -4.5878   -9.0004   -5.1485 C   0  0  0  0  0  0  0  0  0  0  0  0
   -5.2263   -7.7520   -5.2833 C   0  0  0  0  0  0  0  0  0  0  0  0
   -6.0900   -7.5223   -6.3710 C   0  0  0  0  0  0  0  0  0  0  0  0
   -6.3099   -8.5350   -7.3294 C   0  0  0  0  0  0  0  0  0  0  0  0
   -7.2304   -8.2752   -8.5118 C   0  0  0  0  0  0  0  0  0  0  0  0
   -8.2818   -9.2741   -8.6985 N   0  0  0  0  0  0  0  0  0  0  0  0
   -9.1643   -9.2801   -7.5138 C   0  0  0  0  0  0  0  0  0  0  0  0
  -10.4457   -9.9672   -7.8916 C   0  0  1  0  0  0  0  0  0  0  0  0
  -11.8992   -9.6764   -7.7454 C   0  0  0  0  0  0  0  0  0  0  0  0
  -11.1185   -8.9703   -8.8240 C   0  0  2  0  0  0  0  0  0  0  0  0
  -10.4562   -9.3155  -10.1330 C   0  0  0  0  0  0  0  0  0  0  0  0
   -9.0006   -8.9922  -10.0192 N   0  0  0  0  0  0  0  0  0  0  0  0
   -5.6693   -9.7839   -7.1865 C   0  0  0  0  0  0  0  0  0  0  0  0
   -4.8155  -10.0165   -6.0915 C   0  0  0  0  0  0  0  0  0  0  0  0
   -3.9244   -9.1827   -4.3198 H   0  0  0  0  0  0  0  0  0  0  0  0
   -5.0621   -6.9755   -4.5523 H   0  0  0  0  0  0  0  0  0  0  0  0
   -6.5773   -6.5626   -6.4728 H   0  0  0  0  0  0  0  0  0  0  0  0
   -7.6779   -7.2847   -8.4138 H   0  0  0  0  0  0  0  0  0  0  0  0
   -6.6122   -8.2556   -9.4090 H   0  0  0  0  0  0  0  0  0  0  0  0
   -8.6991   -9.8280   -6.6934 H   0  0  0  0  0  0  0  0  0  0  0  0
   -9.3709   -8.2658   -7.1677 H   0  0  0  0  0  0  0  0  0  0  0  0
  -10.2845  -10.9963   -8.2148 H   0  0  0  0  0  0  0  0  0  0  0  0
  -12.6033  -10.4496   -8.0508 H   0  0  0  0  0  0  0  0  0  0  0  0
  -12.1903   -9.0982   -6.8679 H   0  0  0  0  0  0  0  0  0  0  0  0
  -11.0669   -7.8983   -8.6160 H   0  0  0  0  0  0  0  0  0  0  0  0
  -10.6106  -10.3691  -10.3825 H   0  0  0  0  0  0  0  0  0  0  0  0
  -10.9076   -8.7201  -10.9287 H   0  0  0  0  0  0  0  0  0  0  0  0
   -8.8736   -8.0066  -10.1949 H   0  0  0  0  0  0  0  0  0  0  0  0
   -5.8323  -10.5620   -7.9181 H   0  0  0  0  0  0  0  0  0  0  0  0
   -4.3275  -10.9740   -5.9764 H   0  0  0  0  0  0  0  0  0  0  0  0
   -8.4963   -9.5196  -10.7156 H   0  0  0  0  0  0  0  0  0  0  0  0
  1 14  2  0
  1  2  1  0
  1 15  1  0
  2  3  2  0
  2 16  1  0
  3  4  1  0
  3 17  1  0
  4  5  1  0
  4 13  2  0
  5  6  1  0
  5 18  1  0
  5 19  1  0
  6 12  1  0
  6  7  1  0
  7  8  1  0
  7 20  1  0
  7 21  1  0
  8 10  1  0
  8  9  1  0
  8 22  1  6
  9 10  1  0
  9 23  1  0
  9 24  1  0
 10 11  1  0
 10 25  1  1
 11 12  1  0
 11 26  1  0
 11 27  1  0
 12 28  1  0
 12 31  1  0
 13 14  1  0
 13 29  1  0
 14 30  1  0
M  CHG  1  12   1
M  END
>  <i_m_ct_stereo_status>  (212) 
1

>  <s_m_source_file>  (212) 
/var/tmp/pbs.5076255.sched01/tmpbaygurib/766rrai79r.sdf

>  <i_m_source_file_index>  (212) 
15

>  <i_lp_mmshare_version>  (212) 
48012

>  <i_f3d_flags>  (212) 
0

>  <s_epik_input>  (212) 
W2NIXTFbY0hdW2NIXVtjSF1bY0hdYzFbQ0gyXU4oW0NIMl0yKVtOSF1bQ0gyXVtDQEhdKFtDQEBIXTIzKVtDSDJdMw==

>  <s_epik_cmdline>  (212) 
J2VwaWtfcHl0aG9uJywgJy1waHQnLCAnMi4wJywgJy1waCcsICc3LjAnLCAnLXRuJywgJzgnLCAnLW1hJywgJzIwMCcsICctaW1hZScsICc8aW5maWxlLm1hZT4nLCAnLW9tYWUnLCAnPG91dGZpbGUubWFlPic=

>  <r_epik_Ionization_Penalty>  (212) 
0.785822

>  <r_epik_Ionization_Penalty_Charging>  (212) 
0.785822

>  <r_epik_Ionization_Penalty_Neutral>  (212) 
8.35753e-10

>  <r_epik_State_Penalty>  (212) 
1.0698

>  <r_epik_Charging_Adjusted_Penalty>  (212) 
1.85563

>  <i_epik_Tot_Q>  (212) 
1

>  <i_epik_Tot_abs_Q>  (212) 
1

>  <s_lp_Force_Field>  (212) 
OPLS3e

>  <r_lp_Energy>  (212) 
63.5544

>  <b_lp_Chiralities_Consistent>  (212) 
1

>  <s_lp_Variant>  (212) 
63:0-3

>  <s_i_glide_gridfile>  (212) 
pfpi4k_grid

>  <i_i_glide_lignum>  (212) 
15

>  <i_i_glide_rotatable_bonds>  (212) 
2

>  <r_i_docking_score>  (212) 
-4.00714

>  <r_i_glide_ligand_efficiency>  (212) 
-0.286224

>  <r_i_glide_ligand_efficiency_sa>  (212) 
-0.689842

>  <r_i_glide_ligand_efficiency_ln>  (212) 
-1.10115

>  <r_i_glide_gscore>  (212) 
-4.00714

>  <r_i_glide_lipo>  (212) 
-1.43902

>  <r_i_glide_hbond>  (212) 
0

>  <r_i_glide_metal>  (212) 
-0

>  <r_i_glide_rewards>  (212) 
-2.35691

>  <r_i_glide_evdw>  (212) 
-17.6379

>  <r_i_glide_ecoul>  (212) 
-1.49489

>  <r_i_glide_erotb>  (212) 
0.894922

>  <r_i_glide_esite>  (212) 
0

>  <r_i_glide_emodel>  (212) 
-23.3077

>  <r_i_glide_energy>  (212) 
-19.1328

>  <r_i_glide_einternal>  (212) 
0.0812798

>  <r_i_glide_intrahb_reward>  (212) 
-0

>  <i_i_glide_confnum>  (212) 
2

>  <i_i_glide_posenum>  (212) 
40

>  <r_i_glide_eff_state_penalty>  (212) 
0

>  <ligand_id>  (212) 
63

>  <original_smiles>  (212) 
c1ccc(CN2CC3CC3CN2)cc1

>  <smiles>  (212) 
[H]c1c([H])c([H])c(C([H])([H])N2C([H])([H])C3([H])C([H])([H])C3([H])C([H])([H])[N+]2([H])[H])c([H])c1[H]

$$$$
64:0:0
     RDKit          3D

 91 98  0  0  1  0  0  0  0  0999 V2000
    3.3225   -9.1045    1.3588 C   0  0  0  0  0  0  0  0  0  0  0  0
    3.7254   -7.6820    1.7455 C   0  0  2  0  0  0  0  0  0  0  0  0
    5.1615   -7.6200    2.4261 C   0  0  1  0  0  0  0  0  0  0  0  0
    5.9357   -8.0112    1.2959 O   0  0  0  0  0  0  0  0  0  0  0  0
    5.7789   -6.3403    3.1870 C   0  0  1  0  0  0  0  0  0  0  0  0
    7.3384   -6.5260    3.0009 C   0  0  0  0  0  0  0  0  0  0  0  0
    7.9045   -7.5350    3.4043 O   0  0  0  0  0  0  0  0  0  0  0  0
    7.9970   -5.4739    2.4503 O   0  0  0  0  0  0  0  0  0  0  0  0
    7.6174   -5.1269    1.1340 C   0  0  2  0  0  0  0  0  0  0  0  0
    8.1300   -3.7667    0.6795 C   0  0  0  0  0  0  0  0  0  0  0  0
    6.7731   -3.1972    1.0811 C   0  0  1  0  0  0  0  0  0  0  0  0
    6.1861   -2.2502    0.2103 O   0  0  0  0  0  0  0  0  0  0  0  0
    6.1661   -4.6285    1.1101 C   0  0  1  0  0  0  0  0  0  0  0  0
    5.4450   -5.0051   -0.1855 C   0  0  0  0  0  0  0  0  0  0  0  0
    5.3497   -4.9997    2.3938 C   0  0  1  0  0  0  0  0  0  0  0  0
    3.8557   -4.5299    2.2964 C   0  0  0  0  0  0  0  0  0  0  0  0
    2.7292   -5.4392    1.7443 C   0  0  0  0  0  0  0  0  0  0  0  0
    2.6157   -6.8358    2.4361 C   0  0  1  0  0  0  0  0  0  0  0  0
    1.0996   -7.3711    2.8242 C   0  0  2  0  0  0  0  0  0  0  0  0
    0.1700   -7.0003    1.6258 C   0  0  0  0  0  0  0  0  0  0  0  0
    0.7215   -6.5505    4.1015 C   0  0  1  0  0  0  0  0  0  0  0  0
    0.6258   -5.1585    3.8920 O   0  0  0  0  0  0  0  0  0  0  0  0
   -0.6681   -7.0189    4.5765 C   0  0  0  0  0  0  0  0  0  0  0  0
   -0.8328   -8.4342    4.0526 C   0  0  1  0  0  0  0  0  0  0  0  0
   -2.1156   -8.6319    3.1977 C   0  0  0  0  0  0  0  0  0  0  0  0
    0.6016   -8.7962    3.5178 C   0  0  1  0  0  0  0  0  0  0  0  0
    0.2950   -9.9733    2.5514 C   0  0  0  0  0  0  0  0  0  0  0  0
    1.3316   -9.2313    4.8905 C   0  0  1  0  0  0  0  0  0  0  0  0
    2.1145  -10.6246    4.9864 C   0  0  1  0  0  0  0  0  0  0  0  0
    2.3375  -11.3696    3.8037 O   0  0  0  0  0  0  0  0  0  0  0  0
    3.3205  -10.4318    5.6456 O   0  0  0  0  0  0  0  0  0  0  0  0
    4.0818   -9.3701    5.1219 C   0  0  1  0  0  0  0  0  0  0  0  0
    3.3235   -8.4481    4.4214 O   0  0  0  0  0  0  0  0  0  0  0  0
    2.2869   -8.0913    5.2567 C   0  0  1  0  0  0  0  0  0  0  0  0
    1.6605   -6.8119    5.1237 O   0  0  0  0  0  0  0  0  0  0  0  0
    3.0261   -7.9583    6.6209 C   0  0  1  0  0  0  0  0  0  0  0  0
    2.4384   -8.7309    7.6610 O   0  0  0  0  0  0  0  0  0  0  0  0
    4.4333   -8.4793    6.2593 C   0  0  2  0  0  0  0  0  0  0  0  0
    5.6111   -7.5003    5.8598 C   0  0  1  0  0  0  0  0  0  0  0  0
    6.7607   -8.3125    5.7145 O   0  0  0  0  0  0  0  0  0  0  0  0
    5.5930   -6.2149    4.8641 C   0  0  0  0  0  0  0  0  0  0  0  0
    6.7681   -5.3576    5.4690 C   0  0  0  0  0  0  0  0  0  0  0  0
    4.4559   -5.2668    5.3357 C   0  0  0  0  0  0  0  0  0  0  0  0
    3.2344   -9.7321    2.2362 H   0  0  0  0  0  0  0  0  0  0  0  0
    4.0449   -9.5916    0.7019 H   0  0  0  0  0  0  0  0  0  0  0  0
    2.3786   -9.0990    0.8140 H   0  0  0  0  0  0  0  0  0  0  0  0
    3.8457   -7.2540    0.7505 H   0  0  0  0  0  0  0  0  0  0  0  0
    5.2954   -8.4732    3.0696 H   0  0  0  0  0  0  0  0  0  0  0  0
    5.6148   -8.8402    0.9985 H   0  0  0  0  0  0  0  0  0  0  0  0
    7.8296   -5.9067    0.4043 H   0  0  0  0  0  0  0  0  0  0  0  0
    8.9702   -3.3807    1.2542 H   0  0  0  0  0  0  0  0  0  0  0  0
    8.3174   -3.7210   -0.3941 H   0  0  0  0  0  0  0  0  0  0  0  0
    6.8335   -2.7683    2.0689 H   0  0  0  0  0  0  0  0  0  0  0  0
    5.8846   -2.7213   -0.5467 H   0  0  0  0  0  0  0  0  0  0  0  0
    4.4749   -4.5276   -0.2979 H   0  0  0  0  0  0  0  0  0  0  0  0
    5.3279   -6.0795   -0.2964 H   0  0  0  0  0  0  0  0  0  0  0  0
    6.0151   -4.6420   -1.0383 H   0  0  0  0  0  0  0  0  0  0  0  0
    5.6956   -4.2574    3.0990 H   0  0  0  0  0  0  0  0  0  0  0  0
    3.5134   -4.1556    3.2569 H   0  0  0  0  0  0  0  0  0  0  0  0
    3.8522   -3.6156    1.6940 H   0  0  0  0  0  0  0  0  0  0  0  0
    1.8418   -4.8343    1.8908 H   0  0  0  0  0  0  0  0  0  0  0  0
    2.7766   -5.5111    0.6566 H   0  0  0  0  0  0  0  0  0  0  0  0
    3.0844   -6.5568    3.3465 H   0  0  0  0  0  0  0  0  0  0  0  0
   -0.8134   -6.6657    1.9369 H   0  0  0  0  0  0  0  0  0  0  0  0
    0.0514   -7.8235    0.9264 H   0  0  0  0  0  0  0  0  0  0  0  0
    0.5220   -6.1908    1.0044 H   0  0  0  0  0  0  0  0  0  0  0  0
    0.5149   -4.7560    4.7407 H   0  0  0  0  0  0  0  0  0  0  0  0
   -0.7106   -6.9714    5.6657 H   0  0  0  0  0  0  0  0  0  0  0  0
   -1.4511   -6.3793    4.1646 H   0  0  0  0  0  0  0  0  0  0  0  0
   -1.1067   -9.0446    4.9119 H   0  0  0  0  0  0  0  0  0  0  0  0
   -2.0963   -8.2448    2.1858 H   0  0  0  0  0  0  0  0  0  0  0  0
   -2.9537   -8.1503    3.6783 H   0  0  0  0  0  0  0  0  0  0  0  0
   -2.3546   -9.6898    3.1077 H   0  0  0  0  0  0  0  0  0  0  0  0
   -0.1190  -10.8286    3.0935 H   0  0  0  0  0  0  0  0  0  0  0  0
    1.1255  -10.3208    1.9672 H   0  0  0  0  0  0  0  0  0  0  0  0
   -0.4558   -9.7071    1.8324 H   0  0  0  0  0  0  0  0  0  0  0  0
    0.6686   -9.2575    5.7594 H   0  0  0  0  0  0  0  0  0  0  0  0
    1.5121  -11.2989    5.5851 H   0  0  0  0  0  0  0  0  0  0  0  0
    2.4310  -12.2693    4.0469 H   0  0  0  0  0  0  0  0  0  0  0  0
    4.9284   -9.7823    4.5856 H   0  0  0  0  0  0  0  0  0  0  0  0
    3.0527   -6.9281    6.9618 H   0  0  0  0  0  0  0  0  0  0  0  0
    2.3840   -9.6235    7.3712 H   0  0  0  0  0  0  0  0  0  0  0  0
    4.8142   -9.0944    7.0726 H   0  0  0  0  0  0  0  0  0  0  0  0
    5.8105   -7.0548    6.8342 H   0  0  0  0  0  0  0  0  0  0  0  0
    6.8318   -8.5976    4.8196 H   0  0  0  0  0  0  0  0  0  0  0  0
    6.5911   -5.0459    6.4984 H   0  0  0  0  0  0  0  0  0  0  0  0
    6.8812   -4.4305    4.9272 H   0  0  0  0  0  0  0  0  0  0  0  0
    7.7353   -5.8600    5.4943 H   0  0  0  0  0  0  0  0  0  0  0  0
    4.3746   -5.2594    6.4233 H   0  0  0  0  0  0  0  0  0  0  0  0
    3.4753   -5.5059    4.9790 H   0  0  0  0  0  0  0  0  0  0  0  0
    4.6363   -4.2224    5.0678 H   0  0  0  0  0  0  0  0  0  0  0  0
  1  2  1  0
  1 44  1  0
  1 45  1  0
  1 46  1  0
  2 18  1  0
  2  3  1  0
  2 47  1  6
  3  4  1  0
  3  5  1  0
  3 48  1  1
  4 49  1  0
  5 15  1  0
  5 41  1  1
  5  6  1  0
  6  7  2  0
  6  8  1  0
  8  9  1  0
  9 13  1  0
  9 10  1  0
  9 50  1  6
 10 11  1  0
 10 51  1  0
 10 52  1  0
 11 12  1  0
 11 13  1  0
 11 53  1  1
 12 54  1  0
 13 14  1  6
 13 15  1  0
 14 55  1  0
 14 56  1  0
 14 57  1  0
 15 16  1  0
 15 58  1  1
 16 17  1  0
 16 59  1  0
 16 60  1  0
 17 18  1  0
 17 61  1  0
 17 62  1  0
 18 19  1  0
 18 63  1  1
 19 26  1  0
 19 20  1  6
 19 21  1  0
 20 64  1  0
 20 65  1  0
 20 66  1  0
 21 35  1  0
 21 22  1  6
 21 23  1  0
 22 67  1  0
 23 24  1  0
 23 68  1  0
 23 69  1  0
 24 25  1  0
 24 26  1  0
 24 70  1  1
 25 71  1  0
 25 72  1  0
 25 73  1  0
 26 27  1  6
 26 28  1  0
 27 74  1  0
 27 75  1  0
 27 76  1  0
 28 34  1  0
 28 29  1  0
 28 77  1  1
 29 30  1  0
 29 31  1  0
 29 78  1  1
 30 79  1  0
 31 32  1  0
 32 38  1  0
 32 33  1  0
 32 80  1  6
 33 34  1  0
 34 35  1  6
 34 36  1  0
 36 37  1  0
 36 38  1  0
 36 81  1  1
 37 82  1  0
 38 39  1  0
 38 83  1  1
 39 40  1  0
 39 41  1  0
 39 84  1  1
 40 85  1  0
 41 42  1  0
 41 43  1  0
 42 86  1  0
 42 87  1  0
 42 88  1  0
 43 89  1  0
 43 90  1  0
 43 91  1  0
M  END
>  <i_m_ct_stereo_status>  (213) 
1

>  <s_m_source_file>  (213) 
/var/tmp/pbs.5076255.sched01/tmpbaygurib/766rrai79r.sdf

>  <i_m_source_file_index>  (213) 
16

>  <i_lp_mmshare_version>  (213) 
48012

>  <i_f3d_flags>  (213) 
0

>  <s_epik_input>  (213) 
Tz1DMU9bQ0BIXShbQ0gyXVtDQEhdMltPSF0pW0NAQF0yKFtDSDNdKVtDQEhdKFtDQF0xMzQpW0NIMl1bQ0gyXVtDQEhdKFtDQEhdKFtDSDNdKVtDQEhdM1tPSF0pW0NAXTUoW0NIM10pW0NAQF02KFtPSF0pW0NIMl1bQ0BASF0oW0NIM10pW0NAXTUoW0NIM10pW0NAQEhdN1tDQF04KE82KU9bQ0BIXShPW0NAQEhdN1tPSF0pW0NASF0oW0NAQEhdOFtPSF0pW0NAQEhdKFtPSF0pQzQoW0NIM10pW0NIM10=

>  <s_epik_cmdline>  (213) 
J2VwaWtfcHl0aG9uJywgJy1waHQnLCAnMi4wJywgJy1waCcsICc3LjAnLCAnLXRuJywgJzgnLCAnLW1hJywgJzIwMCcsICctaW1hZScsICc8aW5maWxlLm1hZT4nLCAnLW9tYWUnLCAnPG91dGZpbGUubWFlPic=

>  <r_lp_tautomer_probability>  (213) 
1

>  <r_epik_Ionization_Penalty>  (213) 
6.41871e-06

>  <r_epik_Ionization_Penalty_Charging>  (213) 
0

>  <r_epik_Ionization_Penalty_Neutral>  (213) 
6.41871e-06

>  <r_epik_State_Penalty>  (213) 
-0

>  <r_epik_Charging_Adjusted_Penalty>  (213) 
0

>  <i_epik_Tot_Q>  (213) 
0

>  <i_epik_Tot_abs_Q>  (213) 
0

>  <s_epik_Chemistry_Notes>  (213) 
This compound has an ester and may undergo hydrolysis at high or low pH. This compound contains an acetal/aminal-like group ( X-CH(R)-Y where X, Y are N, S, or O) that may be acid/base labile, releasing an aldehyde.

>  <s_lp_Force_Field>  (213) 
OPLS3e

>  <r_lp_Energy>  (213) 
245.449

>  <b_lp_Chiralities_Consistent>  (213) 
1

>  <s_lp_Variant>  (213) 
64:0-1

>  <s_i_glide_gridfile>  (213) 
pfpi4k_grid

>  <i_i_glide_lignum>  (213) 
16

>  <i_i_glide_rotatable_bonds>  (213) 
6

>  <r_i_docking_score>  (213) 
-3.30889

>  <r_i_glide_ligand_efficiency>  (213) 
-0.0769509

>  <r_i_glide_ligand_efficiency_sa>  (213) 
-0.26959

>  <r_i_glide_ligand_efficiency_ln>  (213) 
-0.69497

>  <r_i_glide_gscore>  (213) 
-3.30889

>  <r_i_glide_lipo>  (213) 
-0.619109

>  <r_i_glide_hbond>  (213) 
0

>  <r_i_glide_metal>  (213) 
-0

>  <r_i_glide_rewards>  (213) 
-1.00324

>  <r_i_glide_evdw>  (213) 
-28.1765

>  <r_i_glide_ecoul>  (213) 
-1.29309

>  <r_i_glide_erotb>  (213) 
0

>  <r_i_glide_esite>  (213) 
-0.0837522

>  <r_i_glide_emodel>  (213) 
-45.0122

>  <r_i_glide_energy>  (213) 
-29.4696

>  <r_i_glide_einternal>  (213) 
1.44216

>  <r_i_glide_intrahb_reward>  (213) 
-1

>  <i_i_glide_confnum>  (213) 
2

>  <i_i_glide_posenum>  (213) 
16

>  <r_i_glide_eff_state_penalty>  (213) 
0

>  <ligand_id>  (213) 
64

>  <original_smiles>  (213) 
CC1C(O)C23C(=O)OC4CC(O)C4(C)C2CCC1C1(C)C2(O)CC(C)C1(C)C1C(O)OC4OC1(O2)C(O)C4C(O)C3(C)C

>  <smiles>  (213) 
[H]OC1([H])OC2([H])OC34OC5(O[H])C([H])([H])C([H])(C([H])([H])[H])C(C([H])([H])[H])(C13[H])C5(C([H])([H])[H])C1([H])C([H])([H])C([H])([H])C3([H])C(C(=O)OC5([H])C([H])([H])C([H])(O[H])C53C([H])([H])[H])(C([H])(O[H])C1([H])C([H])([H])[H])C(C([H])([H])[H])(C([H])([H])[H])C([H])(O[H])C2([H])C4([H])O[H]

$$$$
64:0:1
     RDKit          3D

 91 98  0  0  1  0  0  0  0  0999 V2000
    3.7147   -1.0692    4.9888 C   0  0  0  0  0  0  0  0  0  0  0  0
    2.4321   -0.2438    5.1142 C   0  0  2  0  0  0  0  0  0  0  0  0
    2.6411    1.0599    6.0020 C   0  0  1  0  0  0  0  0  0  0  0  0
    3.5643    1.7755    5.1783 O   0  0  0  0  0  0  0  0  0  0  0  0
    1.4382    1.9932    6.5671 C   0  0  1  0  0  0  0  0  0  0  0  0
    2.1220    3.4106    6.7228 C   0  0  0  0  0  0  0  0  0  0  0  0
    3.1168    3.5830    7.4221 O   0  0  0  0  0  0  0  0  0  0  0  0
    1.5230    4.4325    6.0941 O   0  0  0  0  0  0  0  0  0  0  0  0
    1.4436    4.3407    4.6895 C   0  0  2  0  0  0  0  0  0  0  0  0
    0.4745    5.3231    4.0350 C   0  0  0  0  0  0  0  0  0  0  0  0
   -0.5578    4.2006    4.0351 C   0  0  1  0  0  0  0  0  0  0  0  0
   -1.3757    4.0827    2.8926 O   0  0  0  0  0  0  0  0  0  0  0  0
    0.5705    3.1529    4.2698 C   0  0  1  0  0  0  0  0  0  0  0  0
    1.0956    2.4862    2.9870 C   0  0  0  0  0  0  0  0  0  0  0  0
    0.3035    2.1282    5.4281 C   0  0  1  0  0  0  0  0  0  0  0  0
   -0.5573    0.9071    4.9542 C   0  0  0  0  0  0  0  0  0  0  0  0
    0.0754   -0.4055    4.4276 C   0  0  0  0  0  0  0  0  0  0  0  0
    1.1294   -1.0630    5.3773 C   0  0  1  0  0  0  0  0  0  0  0  0
    1.0502   -2.7038    5.5876 C   0  0  2  0  0  0  0  0  0  0  0  0
    0.7414   -3.3215    4.1828 C   0  0  0  0  0  0  0  0  0  0  0  0
   -0.1493   -2.9184    6.5654 C   0  0  1  0  0  0  0  0  0  0  0  0
   -1.3950   -2.5096    6.0507 O   0  0  0  0  0  0  0  0  0  0  0  0
   -0.2817   -4.4255    6.8778 C   0  0  0  0  0  0  0  0  0  0  0  0
    1.1091   -5.0062    6.6538 C   0  0  1  0  0  0  0  0  0  0  0  0
    1.1190   -6.2108    5.6695 C   0  0  0  0  0  0  0  0  0  0  0  0
    2.0223   -3.7298    6.4593 C   0  0  1  0  0  0  0  0  0  0  0  0
    3.2670   -4.3042    5.7093 C   0  0  0  0  0  0  0  0  0  0  0  0
    2.2528   -3.3236    8.0258 C   0  0  1  0  0  0  0  0  0  0  0  0
    3.7335   -3.0851    8.5839 C   0  0  1  0  0  0  0  0  0  0  0  0
    4.7906   -3.0248    7.6620 O   0  0  0  0  0  0  0  0  0  0  0  0
    3.7519   -1.9467    9.3867 O   0  0  0  0  0  0  0  0  0  0  0  0
    3.1519   -0.8231    8.7895 C   0  0  1  0  0  0  0  0  0  0  0  0
    2.2669   -1.1428    7.7786 O   0  0  0  0  0  0  0  0  0  0  0  0
    1.3992   -2.0793    8.2973 C   0  0  1  0  0  0  0  0  0  0  0  0
    0.0832   -2.2204    7.7690 O   0  0  0  0  0  0  0  0  0  0  0  0
    1.1404   -1.4761    9.7135 C   0  0  1  0  0  0  0  0  0  0  0  0
    1.3597   -2.4032   10.7592 O   0  0  0  0  0  0  0  0  0  0  0  0
    2.1370   -0.2946    9.7437 C   0  0  2  0  0  0  0  0  0  0  0  0
    1.7094    1.1869    9.3557 C   0  0  1  0  0  0  0  0  0  0  0  0
    2.8418    1.9967    9.5970 O   0  0  0  0  0  0  0  0  0  0  0  0
    0.7970    1.7076    8.1095 C   0  0  0  0  0  0  0  0  0  0  0  0
    0.1975    3.0540    8.6922 C   0  0  0  0  0  0  0  0  0  0  0  0
   -0.5335    0.9106    8.1409 C   0  0  0  0  0  0  0  0  0  0  0  0
    4.0137   -1.4615    5.9515 H   0  0  0  0  0  0  0  0  0  0  0  0
    4.5512   -0.4770    4.6185 H   0  0  0  0  0  0  0  0  0  0  0  0
    3.5745   -1.8757    4.2713 H   0  0  0  0  0  0  0  0  0  0  0  0
    2.3551    0.1011    4.0863 H   0  0  0  0  0  0  0  0  0  0  0  0
    3.2679    0.8273    6.8428 H   0  0  0  0  0  0  0  0  0  0  0  0
    3.1498    1.9685    4.3499 H   0  0  0  0  0  0  0  0  0  0  0  0
    2.4265    4.3552    4.2204 H   0  0  0  0  0  0  0  0  0  0  0  0
    0.2201    6.1891    4.6434 H   0  0  0  0  0  0  0  0  0  0  0  0
    0.7920    5.6199    3.0314 H   0  0  0  0  0  0  0  0  0  0  0  0
   -1.1943    4.3152    4.9109 H   0  0  0  0  0  0  0  0  0  0  0  0
   -0.8008    4.1457    2.1308 H   0  0  0  0  0  0  0  0  0  0  0  0
    0.3646    1.8156    2.5398 H   0  0  0  0  0  0  0  0  0  0  0  0
    2.0243    1.9478    3.1320 H   0  0  0  0  0  0  0  0  0  0  0  0
    1.3360    3.2340    2.2310 H   0  0  0  0  0  0  0  0  0  0  0  0
   -0.4647    2.6354    6.0035 H   0  0  0  0  0  0  0  0  0  0  0  0
   -1.2700    0.6202    5.7229 H   0  0  0  0  0  0  0  0  0  0  0  0
   -1.2228    1.2729    4.1674 H   0  0  0  0  0  0  0  0  0  0  0  0
   -0.7841   -1.0460    4.2699 H   0  0  0  0  0  0  0  0  0  0  0  0
    0.4518   -0.2776    3.4131 H   0  0  0  0  0  0  0  0  0  0  0  0
    0.7739   -0.6224    6.2763 H   0  0  0  0  0  0  0  0  0  0  0  0
    0.0610   -4.1627    4.2331 H   0  0  0  0  0  0  0  0  0  0  0  0
    1.6427   -3.6305    3.6625 H   0  0  0  0  0  0  0  0  0  0  0  0
    0.2594   -2.6573    3.4779 H   0  0  0  0  0  0  0  0  0  0  0  0
   -1.9654   -3.2668    6.0544 H   0  0  0  0  0  0  0  0  0  0  0  0
   -0.6413   -4.5607    7.9020 H   0  0  0  0  0  0  0  0  0  0  0  0
   -0.9943   -4.8922    6.1936 H   0  0  0  0  0  0  0  0  0  0  0  0
    1.3782   -5.5552    7.5551 H   0  0  0  0  0  0  0  0  0  0  0  0
    0.9948   -5.9613    4.6217 H   0  0  0  0  0  0  0  0  0  0  0  0
    0.3301   -6.9170    5.9212 H   0  0  0  0  0  0  0  0  0  0  0  0
    2.0517   -6.7683    5.7452 H   0  0  0  0  0  0  0  0  0  0  0  0
    3.7584   -5.0738    6.3070 H   0  0  0  0  0  0  0  0  0  0  0  0
    4.0291   -3.5857    5.4496 H   0  0  0  0  0  0  0  0  0  0  0  0
    3.0260   -4.7857    4.7656 H   0  0  0  0  0  0  0  0  0  0  0  0
    1.8379   -4.0398    8.7335 H   0  0  0  0  0  0  0  0  0  0  0  0
    3.9874   -3.9134    9.2485 H   0  0  0  0  0  0  0  0  0  0  0  0
    5.5986   -3.0720    8.1539 H   0  0  0  0  0  0  0  0  0  0  0  0
    3.9338   -0.1129    8.5230 H   0  0  0  0  0  0  0  0  0  0  0  0
    0.1170   -1.1241    9.8163 H   0  0  0  0  0  0  0  0  0  0  0  0
    2.2417   -2.7374   10.6713 H   0  0  0  0  0  0  0  0  0  0  0  0
    2.5951   -0.2360   10.7291 H   0  0  0  0  0  0  0  0  0  0  0  0
    1.1012    1.4280   10.2320 H   0  0  0  0  0  0  0  0  0  0  0  0
    3.3700    2.0355    8.8100 H   0  0  0  0  0  0  0  0  0  0  0  0
   -0.4321    2.8885    9.5711 H   0  0  0  0  0  0  0  0  0  0  0  0
   -0.4355    3.5852    7.9802 H   0  0  0  0  0  0  0  0  0  0  0  0
    0.9535    3.7587    9.0408 H   0  0  0  0  0  0  0  0  0  0  0  0
   -0.8581    0.7266    9.1672 H   0  0  0  0  0  0  0  0  0  0  0  0
   -0.5053   -0.0495    7.6715 H   0  0  0  0  0  0  0  0  0  0  0  0
   -1.3610    1.4575    7.6867 H   0  0  0  0  0  0  0  0  0  0  0  0
  1  2  1  0
  1 44  1  0
  1 45  1  0
  1 46  1  0
  2 18  1  0
  2  3  1  0
  2 47  1  6
  3  4  1  0
  3  5  1  0
  3 48  1  1
  4 49  1  0
  5 15  1  0
  5 41  1  1
  5  6  1  0
  6  7  2  0
  6  8  1  0
  8  9  1  0
  9 13  1  0
  9 10  1  0
  9 50  1  6
 10 11  1  0
 10 51  1  0
 10 52  1  0
 11 12  1  0
 11 13  1  0
 11 53  1  1
 12 54  1  0
 13 14  1  6
 13 15  1  0
 14 55  1  0
 14 56  1  0
 14 57  1  0
 15 16  1  0
 15 58  1  1
 16 17  1  0
 16 59  1  0
 16 60  1  0
 17 18  1  0
 17 61  1  0
 17 62  1  0
 18 19  1  0
 18 63  1  1
 19 26  1  0
 19 20  1  6
 19 21  1  0
 20 64  1  0
 20 65  1  0
 20 66  1  0
 21 35  1  0
 21 22  1  6
 21 23  1  0
 22 67  1  0
 23 24  1  0
 23 68  1  0
 23 69  1  0
 24 25  1  0
 24 26  1  0
 24 70  1  1
 25 71  1  0
 25 72  1  0
 25 73  1  0
 26 27  1  6
 26 28  1  0
 27 74  1  0
 27 75  1  0
 27 76  1  0
 28 34  1  0
 28 29  1  0
 28 77  1  1
 29 30  1  0
 29 31  1  0
 29 78  1  1
 30 79  1  0
 31 32  1  0
 32 38  1  0
 32 33  1  0
 32 80  1  6
 33 34  1  0
 34 35  1  6
 34 36  1  0
 36 37  1  0
 36 38  1  0
 36 81  1  6
 37 82  1  0
 38 39  1  0
 38 83  1  1
 39 40  1  0
 39 41  1  0
 39 84  1  1
 40 85  1  0
 41 42  1  0
 41 43  1  0
 42 86  1  0
 42 87  1  0
 42 88  1  0
 43 89  1  0
 43 90  1  0
 43 91  1  0
M  END
>  <i_m_ct_stereo_status>  (214) 
1

>  <s_m_source_file>  (214) 
/var/tmp/pbs.5076255.sched01/tmpbaygurib/766rrai79r.sdf

>  <i_m_source_file_index>  (214) 
16

>  <i_lp_mmshare_version>  (214) 
48012

>  <i_f3d_flags>  (214) 
0

>  <s_epik_input>  (214) 
Tz1DMU9bQ0BIXShbQ0gyXVtDQEhdMltPSF0pW0NAQF0yKFtDSDNdKVtDQEhdKFtDQF0xMzQpW0NIMl1bQ0gyXVtDQEhdKFtDQEhdKFtDSDNdKVtDQEhdM1tPSF0pW0NAXTUoW0NIM10pW0NAQF02KFtPSF0pW0NIMl1bQ0BASF0oW0NIM10pW0NAXTUoW0NIM10pW0NAQEhdN1tDQF04KE82KU9bQ0BIXShPW0NAQEhdN1tPSF0pW0NASF0oW0NAQEhdOFtPSF0pW0NAQEhdKFtPSF0pQzQoW0NIM10pW0NIM10=

>  <s_epik_cmdline>  (214) 
J2VwaWtfcHl0aG9uJywgJy1waHQnLCAnMi4wJywgJy1waCcsICc3LjAnLCAnLXRuJywgJzgnLCAnLW1hJywgJzIwMCcsICctaW1hZScsICc8aW5maWxlLm1hZT4nLCAnLW9tYWUnLCAnPG91dGZpbGUubWFlPic=

>  <r_lp_tautomer_probability>  (214) 
1

>  <r_epik_Ionization_Penalty>  (214) 
6.41871e-06

>  <r_epik_Ionization_Penalty_Charging>  (214) 
0

>  <r_epik_Ionization_Penalty_Neutral>  (214) 
6.41871e-06

>  <r_epik_State_Penalty>  (214) 
-0

>  <r_epik_Charging_Adjusted_Penalty>  (214) 
0

>  <i_epik_Tot_Q>  (214) 
0

>  <i_epik_Tot_abs_Q>  (214) 
0

>  <s_epik_Chemistry_Notes>  (214) 
This compound has an ester and may undergo hydrolysis at high or low pH. This compound contains an acetal/aminal-like group ( X-CH(R)-Y where X, Y are N, S, or O) that may be acid/base labile, releasing an aldehyde.

>  <s_lp_Force_Field>  (214) 
OPLS3e

>  <r_lp_Energy>  (214) 
245.449

>  <b_lp_Chiralities_Consistent>  (214) 
1

>  <s_lp_Variant>  (214) 
64:0-1

>  <s_i_glide_gridfile>  (214) 
pfpi4k_grid

>  <i_i_glide_lignum>  (214) 
16

>  <i_i_glide_rotatable_bonds>  (214) 
6

>  <r_i_docking_score>  (214) 
-3.09139

>  <r_i_glide_ligand_efficiency>  (214) 
-0.0718927

>  <r_i_glide_ligand_efficiency_sa>  (214) 
-0.251869

>  <r_i_glide_ligand_efficiency_ln>  (214) 
-0.649287

>  <r_i_glide_gscore>  (214) 
-3.09139

>  <r_i_glide_lipo>  (214) 
-0.0263889

>  <r_i_glide_hbond>  (214) 
-0.199349

>  <r_i_glide_metal>  (214) 
-0

>  <r_i_glide_rewards>  (214) 
-1

>  <r_i_glide_evdw>  (214) 
-16.0577

>  <r_i_glide_ecoul>  (214) 
-6.85403

>  <r_i_glide_erotb>  (214) 
0

>  <r_i_glide_esite>  (214) 
-0.0346597

>  <r_i_glide_emodel>  (214) 
-37.5022

>  <r_i_glide_energy>  (214) 
-22.9117

>  <r_i_glide_einternal>  (214) 
2.15348

>  <r_i_glide_intrahb_reward>  (214) 
-1

>  <i_i_glide_confnum>  (214) 
1

>  <i_i_glide_posenum>  (214) 
13

>  <r_i_glide_eff_state_penalty>  (214) 
0

>  <ligand_id>  (214) 
64

>  <original_smiles>  (214) 
CC1C(O)C23C(=O)OC4CC(O)C4(C)C2CCC1C1(C)C2(O)CC(C)C1(C)C1C(O)OC4OC1(O2)C(O)C4C(O)C3(C)C

>  <smiles>  (214) 
[H]OC1([H])OC2([H])OC34OC5(O[H])C([H])([H])C([H])(C([H])([H])[H])C(C([H])([H])[H])(C13[H])C5(C([H])([H])[H])C1([H])C([H])([H])C([H])([H])C3([H])C(C(=O)OC5([H])C([H])([H])C([H])(O[H])C53C([H])([H])[H])(C([H])(O[H])C1([H])C([H])([H])[H])C(C([H])([H])[H])(C([H])([H])[H])C([H])(O[H])C2([H])C4([H])O[H]

$$$$
64:0:2
     RDKit          3D

 91 98  0  0  1  0  0  0  0  0999 V2000
    3.2416   -9.2156    1.3046 C   0  0  0  0  0  0  0  0  0  0  0  0
    3.6800   -7.8122    1.7342 C   0  0  2  0  0  0  0  0  0  0  0  0
    5.1396   -7.7922    2.3614 C   0  0  1  0  0  0  0  0  0  0  0  0
    5.8785   -8.1717    1.2129 O   0  0  0  0  0  0  0  0  0  0  0  0
    5.8072   -6.5375    3.1346 C   0  0  1  0  0  0  0  0  0  0  0  0
    7.3584   -6.7229    2.8696 C   0  0  0  0  0  0  0  0  0  0  0  0
    7.9552   -7.7488    3.1883 O   0  0  0  0  0  0  0  0  0  0  0  0
    8.0007   -5.6812    2.3243 O   0  0  0  0  0  0  0  0  0  0  0  0
    7.5676   -5.2702    1.0461 C   0  0  2  0  0  0  0  0  0  0  0  0
    8.0674   -3.8906    0.6197 C   0  0  0  0  0  0  0  0  0  0  0  0
    6.7252   -3.3322    1.0844 C   0  0  1  0  0  0  0  0  0  0  0  0
    6.1132   -2.3670    0.2548 O   0  0  0  0  0  0  0  0  0  0  0  0
    6.1204   -4.7649    1.0955 C   0  0  1  0  0  0  0  0  0  0  0  0
    5.3327   -5.1000   -0.1835 C   0  0  0  0  0  0  0  0  0  0  0  0
    5.3571   -5.1691    2.4063 C   0  0  1  0  0  0  0  0  0  0  0  0
    3.8684   -4.6798    2.3938 C   0  0  0  0  0  0  0  0  0  0  0  0
    2.7064   -5.5561    1.8624 C   0  0  0  0  0  0  0  0  0  0  0  0
    2.6054   -6.9807    2.4938 C   0  0  1  0  0  0  0  0  0  0  0  0
    1.1044   -7.5169    2.9280 C   0  0  2  0  0  0  0  0  0  0  0  0
    0.1219   -7.0787    1.7901 C   0  0  0  0  0  0  0  0  0  0  0  0
    0.7882   -6.7551    4.2553 C   0  0  1  0  0  0  0  0  0  0  0  0
    0.6906   -5.3577    4.1035 O   0  0  0  0  0  0  0  0  0  0  0  0
   -0.5766   -7.2314    4.7906 C   0  0  0  0  0  0  0  0  0  0  0  0
   -0.7703   -8.6183    4.1998 C   0  0  1  0  0  0  0  0  0  0  0  0
   -2.0977   -8.7794    3.4080 C   0  0  0  0  0  0  0  0  0  0  0  0
    0.6272   -8.9692    3.5710 C   0  0  1  0  0  0  0  0  0  0  0  0
    0.2632  -10.0906    2.5547 C   0  0  0  0  0  0  0  0  0  0  0  0
    1.4192   -9.4571    4.9097 C   0  0  1  0  0  0  0  0  0  0  0  0
    2.1819  -10.8640    4.9253 C   0  0  1  0  0  0  0  0  0  0  0  0
    2.3268  -11.5414    3.7084 O   0  0  0  0  0  0  0  0  0  0  0  0
    3.4257  -10.7100    5.5249 O   0  0  0  0  0  0  0  0  0  0  0  0
    4.1678   -9.6331    5.0169 C   0  0  1  0  0  0  0  0  0  0  0  0
    3.3968   -8.6702    4.3939 O   0  0  0  0  0  0  0  0  0  0  0  0
    2.3952   -8.3381    5.2782 C   0  0  1  0  0  0  0  0  0  0  0  0
    1.7816   -7.0509    5.2139 O   0  0  0  0  0  0  0  0  0  0  0  0
    3.1971   -8.2771    6.6144 C   0  0  1  0  0  0  0  0  0  0  0  0
    2.6329   -9.0694    7.6470 O   0  0  0  0  0  0  0  0  0  0  0  0
    4.5862   -8.7865    6.1692 C   0  0  2  0  0  0  0  0  0  0  0  0
    5.7593   -7.7992    5.7561 C   0  0  1  0  0  0  0  0  0  0  0  0
    6.8939   -8.6104    5.5253 O   0  0  0  0  0  0  0  0  0  0  0  0
    5.7067   -6.4681    4.8189 C   0  0  0  0  0  0  0  0  0  0  0  0
    6.9158   -5.6321    5.3905 C   0  0  0  0  0  0  0  0  0  0  0  0
    4.5957   -5.5415    5.3747 C   0  0  0  0  0  0  0  0  0  0  0  0
    3.1893   -9.8781    2.1593 H   0  0  0  0  0  0  0  0  0  0  0  0
    3.9316   -9.6758    0.5978 H   0  0  0  0  0  0  0  0  0  0  0  0
    2.2769   -9.1772    0.8013 H   0  0  0  0  0  0  0  0  0  0  0  0
    3.7673   -7.3490    0.7541 H   0  0  0  0  0  0  0  0  0  0  0  0
    5.2915   -8.6620    2.9701 H   0  0  0  0  0  0  0  0  0  0  0  0
    5.5653   -9.0161    0.9319 H   0  0  0  0  0  0  0  0  0  0  0  0
    7.7513   -6.0236    0.2852 H   0  0  0  0  0  0  0  0  0  0  0  0
    8.9281   -3.5118    1.1696 H   0  0  0  0  0  0  0  0  0  0  0  0
    8.2170   -3.8026   -0.4627 H   0  0  0  0  0  0  0  0  0  0  0  0
    6.8285   -2.9131    2.0755 H   0  0  0  0  0  0  0  0  0  0  0  0
    5.3548   -2.0541    0.7263 H   0  0  0  0  0  0  0  0  0  0  0  0
    4.3742   -4.5901   -0.2289 H   0  0  0  0  0  0  0  0  0  0  0  0
    5.1863   -6.1669   -0.3090 H   0  0  0  0  0  0  0  0  0  0  0  0
    5.8583   -4.7463   -1.0683 H   0  0  0  0  0  0  0  0  0  0  0  0
    5.7493   -4.4508    3.1205 H   0  0  0  0  0  0  0  0  0  0  0  0
    3.5712   -4.3421    3.3835 H   0  0  0  0  0  0  0  0  0  0  0  0
    3.8414   -3.7463    1.8259 H   0  0  0  0  0  0  0  0  0  0  0  0
    1.8302   -4.9545    2.0746 H   0  0  0  0  0  0  0  0  0  0  0  0
    2.7012   -5.5887    0.7730 H   0  0  0  0  0  0  0  0  0  0  0  0
    3.1167   -6.7447    3.3944 H   0  0  0  0  0  0  0  0  0  0  0  0
   -0.8397   -6.7536    2.1656 H   0  0  0  0  0  0  0  0  0  0  0  0
   -0.0370   -7.8605    1.0561 H   0  0  0  0  0  0  0  0  0  0  0  0
    0.4564   -6.2499    1.1878 H   0  0  0  0  0  0  0  0  0  0  0  0
    0.5866   -4.9867    4.9718 H   0  0  0  0  0  0  0  0  0  0  0  0
   -0.5567   -7.2338    5.8821 H   0  0  0  0  0  0  0  0  0  0  0  0
   -1.3738   -6.5622    4.4556 H   0  0  0  0  0  0  0  0  0  0  0  0
   -0.9837   -9.2726    5.0383 H   0  0  0  0  0  0  0  0  0  0  0  0
   -2.1462   -8.3145    2.4302 H   0  0  0  0  0  0  0  0  0  0  0  0
   -2.9133   -8.3732    3.9820 H   0  0  0  0  0  0  0  0  0  0  0  0
   -2.3308   -9.8323    3.2593 H   0  0  0  0  0  0  0  0  0  0  0  0
   -0.1687  -10.9504    3.0696 H   0  0  0  0  0  0  0  0  0  0  0  0
    1.0879  -10.4568    1.9709 H   0  0  0  0  0  0  0  0  0  0  0  0
   -0.4795   -9.7936    1.8219 H   0  0  0  0  0  0  0  0  0  0  0  0
    0.8089   -9.5170    5.8085 H   0  0  0  0  0  0  0  0  0  0  0  0
    1.6257  -11.5451    5.5700 H   0  0  0  0  0  0  0  0  0  0  0  0
    2.4455  -12.4656    3.9050 H   0  0  0  0  0  0  0  0  0  0  0  0
    4.9884  -10.0339    4.4280 H   0  0  0  0  0  0  0  0  0  0  0  0
    3.2533   -7.2605    6.9900 H   0  0  0  0  0  0  0  0  0  0  0  0
    2.5139   -9.9547    7.3235 H   0  0  0  0  0  0  0  0  0  0  0  0
    4.9912   -9.4387    6.9380 H   0  0  0  0  0  0  0  0  0  0  0  0
    6.0030   -7.3969    6.7415 H   0  0  0  0  0  0  0  0  0  0  0  0
    6.8720   -8.9323    4.6362 H   0  0  0  0  0  0  0  0  0  0  0  0
    6.7898   -5.3724    6.4424 H   0  0  0  0  0  0  0  0  0  0  0  0
    7.0297   -4.6777    4.8817 H   0  0  0  0  0  0  0  0  0  0  0  0
    7.8750   -6.1487    5.3581 H   0  0  0  0  0  0  0  0  0  0  0  0
    4.5626   -5.5787    6.4643 H   0  0  0  0  0  0  0  0  0  0  0  0
    3.6015   -5.7624    5.0499 H   0  0  0  0  0  0  0  0  0  0  0  0
    4.7706   -4.4889    5.1396 H   0  0  0  0  0  0  0  0  0  0  0  0
  1  2  1  0
  1 44  1  0
  1 45  1  0
  1 46  1  0
  2 18  1  0
  2  3  1  0
  2 47  1  6
  3  4  1  0
  3  5  1  0
  3 48  1  1
  4 49  1  0
  5 15  1  0
  5 41  1  1
  5  6  1  0
  6  7  2  0
  6  8  1  0
  8  9  1  0
  9 13  1  0
  9 10  1  0
  9 50  1  6
 10 11  1  0
 10 51  1  0
 10 52  1  0
 11 12  1  0
 11 13  1  0
 11 53  1  1
 12 54  1  0
 13 14  1  6
 13 15  1  0
 14 55  1  0
 14 56  1  0
 14 57  1  0
 15 16  1  0
 15 58  1  1
 16 17  1  0
 16 59  1  0
 16 60  1  0
 17 18  1  0
 17 61  1  0
 17 62  1  0
 18 19  1  0
 18 63  1  1
 19 26  1  0
 19 20  1  6
 19 21  1  0
 20 64  1  0
 20 65  1  0
 20 66  1  0
 21 35  1  0
 21 22  1  6
 21 23  1  0
 22 67  1  0
 23 24  1  0
 23 68  1  0
 23 69  1  0
 24 25  1  0
 24 26  1  0
 24 70  1  1
 25 71  1  0
 25 72  1  0
 25 73  1  0
 26 27  1  6
 26 28  1  0
 27 74  1  0
 27 75  1  0
 27 76  1  0
 28 34  1  0
 28 29  1  0
 28 77  1  1
 29 30  1  0
 29 31  1  0
 29 78  1  1
 30 79  1  0
 31 32  1  0
 32 38  1  0
 32 33  1  0
 32 80  1  6
 33 34  1  0
 34 35  1  6
 34 36  1  0
 36 37  1  0
 36 38  1  0
 36 81  1  1
 37 82  1  0
 38 39  1  0
 38 83  1  1
 39 40  1  0
 39 41  1  0
 39 84  1  1
 40 85  1  0
 41 42  1  0
 41 43  1  0
 42 86  1  0
 42 87  1  0
 42 88  1  0
 43 89  1  0
 43 90  1  0
 43 91  1  0
M  END
>  <i_m_ct_stereo_status>  (215) 
1

>  <s_m_source_file>  (215) 
/var/tmp/pbs.5076255.sched01/tmpbaygurib/766rrai79r.sdf

>  <i_m_source_file_index>  (215) 
16

>  <i_lp_mmshare_version>  (215) 
48012

>  <i_f3d_flags>  (215) 
0

>  <s_epik_input>  (215) 
Tz1DMU9bQ0BIXShbQ0gyXVtDQEhdMltPSF0pW0NAQF0yKFtDSDNdKVtDQEhdKFtDQF0xMzQpW0NIMl1bQ0gyXVtDQEhdKFtDQEhdKFtDSDNdKVtDQEhdM1tPSF0pW0NAXTUoW0NIM10pW0NAQF02KFtPSF0pW0NIMl1bQ0BASF0oW0NIM10pW0NAXTUoW0NIM10pW0NAQEhdN1tDQF04KE82KU9bQ0BIXShPW0NAQEhdN1tPSF0pW0NASF0oW0NAQEhdOFtPSF0pW0NAQEhdKFtPSF0pQzQoW0NIM10pW0NIM10=

>  <s_epik_cmdline>  (215) 
J2VwaWtfcHl0aG9uJywgJy1waHQnLCAnMi4wJywgJy1waCcsICc3LjAnLCAnLXRuJywgJzgnLCAnLW1hJywgJzIwMCcsICctaW1hZScsICc8aW5maWxlLm1hZT4nLCAnLW9tYWUnLCAnPG91dGZpbGUubWFlPic=

>  <r_lp_tautomer_probability>  (215) 
1

>  <r_epik_Ionization_Penalty>  (215) 
6.41871e-06

>  <r_epik_Ionization_Penalty_Charging>  (215) 
0

>  <r_epik_Ionization_Penalty_Neutral>  (215) 
6.41871e-06

>  <r_epik_State_Penalty>  (215) 
-0

>  <r_epik_Charging_Adjusted_Penalty>  (215) 
0

>  <i_epik_Tot_Q>  (215) 
0

>  <i_epik_Tot_abs_Q>  (215) 
0

>  <s_epik_Chemistry_Notes>  (215) 
This compound has an ester and may undergo hydrolysis at high or low pH. This compound contains an acetal/aminal-like group ( X-CH(R)-Y where X, Y are N, S, or O) that may be acid/base labile, releasing an aldehyde.

>  <s_lp_Force_Field>  (215) 
OPLS3e

>  <r_lp_Energy>  (215) 
245.449

>  <b_lp_Chiralities_Consistent>  (215) 
1

>  <s_lp_Variant>  (215) 
64:0-1

>  <s_i_glide_gridfile>  (215) 
pfpi4k_grid

>  <i_i_glide_lignum>  (215) 
16

>  <i_i_glide_rotatable_bonds>  (215) 
6

>  <r_i_docking_score>  (215) 
-2.95483

>  <r_i_glide_ligand_efficiency>  (215) 
-0.0687171

>  <r_i_glide_ligand_efficiency_sa>  (215) 
-0.240743

>  <r_i_glide_ligand_efficiency_ln>  (215) 
-0.620607

>  <r_i_glide_gscore>  (215) 
-2.95483

>  <r_i_glide_lipo>  (215) 
-0.633105

>  <r_i_glide_hbond>  (215) 
0

>  <r_i_glide_metal>  (215) 
-0

>  <r_i_glide_rewards>  (215) 
-0.5

>  <r_i_glide_evdw>  (215) 
-27.0218

>  <r_i_glide_ecoul>  (215) 
-2.56209

>  <r_i_glide_erotb>  (215) 
0

>  <r_i_glide_esite>  (215) 
-0.0863247

>  <r_i_glide_emodel>  (215) 
-39.1124

>  <r_i_glide_energy>  (215) 
-29.5839

>  <r_i_glide_einternal>  (215) 
2.32968

>  <r_i_glide_intrahb_reward>  (215) 
-0.5

>  <i_i_glide_confnum>  (215) 
1

>  <i_i_glide_posenum>  (215) 
22

>  <r_i_glide_eff_state_penalty>  (215) 
0

>  <ligand_id>  (215) 
64

>  <original_smiles>  (215) 
CC1C(O)C23C(=O)OC4CC(O)C4(C)C2CCC1C1(C)C2(O)CC(C)C1(C)C1C(O)OC4OC1(O2)C(O)C4C(O)C3(C)C

>  <smiles>  (215) 
[H]OC1([H])OC2([H])OC34OC5(O[H])C([H])([H])C([H])(C([H])([H])[H])C(C([H])([H])[H])(C13[H])C5(C([H])([H])[H])C1([H])C([H])([H])C([H])([H])C3([H])C(C(=O)OC5([H])C([H])([H])C([H])(O[H])C53C([H])([H])[H])(C([H])(O[H])C1([H])C([H])([H])[H])C(C([H])([H])[H])(C([H])([H])[H])C([H])(O[H])C2([H])C4([H])O[H]

$$$$
65:0:0
     RDKit          3D

 29 31  0  0  1  0  0  0  0  0999 V2000
    2.1980   -3.0129   -2.4157 N   0  0  0  0  0  0  0  0  0  0  0  0
    3.5881   -3.3775   -2.0695 C   0  0  2  0  0  0  0  0  0  0  0  0
    3.7016   -3.8492   -0.5946 C   0  0  1  0  0  0  0  0  0  0  0  0
    5.1467   -4.3316   -0.3266 C   0  0  0  0  0  0  0  0  0  0  0  0
    6.1296   -3.1657   -0.5745 C   0  0  2  0  0  0  0  0  0  0  0  0
    5.7951   -1.9961    0.3727 C   0  0  0  0  0  0  0  0  0  0  0  0
    4.3548   -1.5172    0.1021 C   0  0  2  0  0  0  0  0  0  0  0  0
    3.3781   -2.6809    0.3691 C   0  0  0  0  0  0  0  0  0  0  0  0
    4.2395   -1.0551   -1.3652 C   0  0  0  0  0  0  0  0  0  0  0  0
    4.5719   -2.2167   -2.3153 C   0  0  1  0  0  0  0  0  0  0  0  0
    6.0136   -2.6987   -2.0400 C   0  0  0  0  0  0  0  0  0  0  0  0
    1.8768   -2.2458   -1.8232 H   0  0  0  0  0  0  0  0  0  0  0  0
    1.5848   -3.8059   -2.2818 H   0  0  0  0  0  0  0  0  0  0  0  0
    3.8777   -4.1924   -2.7398 H   0  0  0  0  0  0  0  0  0  0  0  0
    3.0146   -4.6775   -0.4144 H   0  0  0  0  0  0  0  0  0  0  0  0
    5.2401   -4.6975    0.6954 H   0  0  0  0  0  0  0  0  0  0  0  0
    5.3845   -5.1771   -0.9796 H   0  0  0  0  0  0  0  0  0  0  0  0
    7.1521   -3.4974   -0.3876 H   0  0  0  0  0  0  0  0  0  0  0  0
    5.8943   -2.3129    1.4117 H   0  0  0  0  0  0  0  0  0  0  0  0
    6.5002   -1.1768    0.2285 H   0  0  0  0  0  0  0  0  0  0  0  0
    4.1157   -0.6841    0.7641 H   0  0  0  0  0  0  0  0  0  0  0  0
    2.3475   -2.3433    0.2509 H   0  0  0  0  0  0  0  0  0  0  0  0
    3.4633   -3.0144    1.4043 H   0  0  0  0  0  0  0  0  0  0  0  0
    3.2440   -0.6558   -1.5599 H   0  0  0  0  0  0  0  0  0  0  0  0
    4.9373   -0.2458   -1.5513 H   0  0  0  0  0  0  0  0  0  0  0  0
    4.4998   -1.8817   -3.3504 H   0  0  0  0  0  0  0  0  0  0  0  0
    6.7202   -1.8945   -2.2233 H   0  0  0  0  0  0  0  0  0  0  0  0
    6.2834   -3.5105   -2.7211 H   0  0  0  0  0  0  0  0  0  0  0  0
    2.1285   -2.7222   -3.3788 H   0  0  0  0  0  0  0  0  0  0  0  0
  1  2  1  0
  1 12  1  0
  1 13  1  0
  1 29  1  0
  2 10  1  0
  2  3  1  0
  2 14  1  6
  3  8  1  0
  3  4  1  0
  3 15  1  6
  4  5  1  0
  4 16  1  0
  4 17  1  0
  5 11  1  0
  5  6  1  0
  5 18  1  1
  6  7  1  0
  6 19  1  0
  6 20  1  0
  7  8  1  0
  7  9  1  0
  7 21  1  1
  8 22  1  0
  8 23  1  0
  9 10  1  0
  9 24  1  0
  9 25  1  0
 10 11  1  0
 10 26  1  6
 11 27  1  0
 11 28  1  0
M  CHG  1   1   1
M  END
>  <i_m_ct_stereo_status>  (216) 
1

>  <s_m_source_file>  (216) 
/var/tmp/pbs.5076255.sched01/tmpbaygurib/766rrai79r.sdf

>  <i_m_source_file_index>  (216) 
17

>  <i_lp_mmshare_version>  (216) 
48012

>  <i_f3d_flags>  (216) 
0

>  <s_epik_input>  (216) 
W05IMl1bQ0BIXShbQ0BASF0xMilbQ0BIXTNbQ0gyXVtDQEBIXShbQ0gyXTIpW0NIMl1bQ0BASF0oW0NIMl0xKVtDSDJdMw==

>  <s_epik_cmdline>  (216) 
J2VwaWtfcHl0aG9uJywgJy1waHQnLCAnMi4wJywgJy1waCcsICc3LjAnLCAnLXRuJywgJzgnLCAnLW1hJywgJzIwMCcsICctaW1hZScsICc8aW5maWxlLm1hZT4nLCAnLW9tYWUnLCAnPG91dGZpbGUubWFlPic=

>  <r_lp_tautomer_probability>  (216) 
1

>  <r_epik_Ionization_Penalty>  (216) 
0.000164672

>  <r_epik_Ionization_Penalty_Charging>  (216) 
0.000164672

>  <r_epik_Ionization_Penalty_Neutral>  (216) 
0

>  <r_epik_State_Penalty>  (216) 
-0

>  <r_epik_Charging_Adjusted_Penalty>  (216) 
0.000164672

>  <i_epik_Tot_Q>  (216) 
1

>  <i_epik_Tot_abs_Q>  (216) 
1

>  <s_lp_Force_Field>  (216) 
OPLS3e

>  <r_lp_Energy>  (216) 
6.10956

>  <b_lp_Chiralities_Consistent>  (216) 
1

>  <s_lp_Variant>  (216) 
65:0-1

>  <s_i_glide_gridfile>  (216) 
pfpi4k_grid

>  <i_i_glide_lignum>  (216) 
17

>  <i_i_glide_rotatable_bonds>  (216) 
0

>  <r_i_docking_score>  (216) 
-4.34857

>  <r_i_glide_ligand_efficiency>  (216) 
-0.395325

>  <r_i_glide_ligand_efficiency_sa>  (216) 
-0.879194

>  <r_i_glide_ligand_efficiency_ln>  (216) 
-1.27978

>  <r_i_glide_gscore>  (216) 
-4.34857

>  <r_i_glide_lipo>  (216) 
-0.248137

>  <r_i_glide_hbond>  (216) 
-0.2

>  <r_i_glide_metal>  (216) 
-0

>  <r_i_glide_rewards>  (216) 
-2.25

>  <r_i_glide_evdw>  (216) 
-14.1397

>  <r_i_glide_ecoul>  (216) 
-6.28968

>  <r_i_glide_erotb>  (216) 
0

>  <r_i_glide_esite>  (216) 
0

>  <r_i_glide_emodel>  (216) 
-27.6883

>  <r_i_glide_energy>  (216) 
-20.4293

>  <r_i_glide_einternal>  (216) 
0

>  <r_i_glide_intrahb_reward>  (216) 
-0

>  <i_i_glide_confnum>  (216) 
2

>  <i_i_glide_posenum>  (216) 
28

>  <r_i_glide_eff_state_penalty>  (216) 
0

>  <ligand_id>  (216) 
65

>  <original_smiles>  (216) 
NC1C2CC3CC(C2)CC1C3

>  <smiles>  (216) 
[H]C1([H])C2([H])C([H])([H])C3([H])C([H])([H])C1([H])C([H])([H])C([H])(C2([H])[H])C3([H])[N+]([H])([H])[H]

$$$$
65:0:1
     RDKit          3D

 29 31  0  0  1  0  0  0  0  0999 V2000
    4.2170   -5.4198   -0.1986 N   0  0  0  0  0  0  0  0  0  0  0  0
    4.5815   -4.0408    0.1846 C   0  0  2  0  0  0  0  0  0  0  0  0
    3.4018   -3.0580   -0.0224 C   0  0  1  0  0  0  0  0  0  0  0  0
    3.8055   -1.6579    0.4976 C   0  0  0  0  0  0  0  0  0  0  0  0
    5.0322   -1.1537   -0.2890 C   0  0  2  0  0  0  0  0  0  0  0  0
    4.6777   -1.0645   -1.7881 C   0  0  0  0  0  0  0  0  0  0  0  0
    4.2894   -2.4623   -2.3110 C   0  0  2  0  0  0  0  0  0  0  0  0
    3.0534   -2.9522   -1.5291 C   0  0  0  0  0  0  0  0  0  0  0  0
    5.4696   -3.4361   -2.1113 C   0  0  0  0  0  0  0  0  0  0  0  0
    5.8124   -3.5316   -0.6048 C   0  0  1  0  0  0  0  0  0  0  0  0
    6.2133   -2.1313   -0.0856 C   0  0  0  0  0  0  0  0  0  0  0  0
    3.9609   -5.4512   -1.1842 H   0  0  0  0  0  0  0  0  0  0  0  0
    3.4313   -5.7369    0.3536 H   0  0  0  0  0  0  0  0  0  0  0  0
    4.8334   -4.0664    1.2493 H   0  0  0  0  0  0  0  0  0  0  0  0
    2.5287   -3.3960    0.5337 H   0  0  0  0  0  0  0  0  0  0  0  0
    2.9755   -0.9581    0.3856 H   0  0  0  0  0  0  0  0  0  0  0  0
    4.0294   -1.6916    1.5669 H   0  0  0  0  0  0  0  0  0  0  0  0
    5.3159   -0.1647    0.0778 H   0  0  0  0  0  0  0  0  0  0  0  0
    3.8517   -0.3735   -1.9455 H   0  0  0  0  0  0  0  0  0  0  0  0
    5.5287   -0.6674   -2.3378 H   0  0  0  0  0  0  0  0  0  0  0  0
    4.0463   -2.4006   -3.3722 H   0  0  0  0  0  0  0  0  0  0  0  0
    2.7045   -3.9038   -1.9270 H   0  0  0  0  0  0  0  0  0  0  0  0
    2.2276   -2.2585   -1.6854 H   0  0  0  0  0  0  0  0  0  0  0  0
    5.2253   -4.4137   -2.5279 H   0  0  0  0  0  0  0  0  0  0  0  0
    6.3382   -3.0842   -2.6691 H   0  0  0  0  0  0  0  0  0  0  0  0
    6.6550   -4.2091   -0.4547 H   0  0  0  0  0  0  0  0  0  0  0  0
    7.0963   -1.7803   -0.6200 H   0  0  0  0  0  0  0  0  0  0  0  0
    6.4874   -2.1734    0.9716 H   0  0  0  0  0  0  0  0  0  0  0  0
    4.9970   -6.0414   -0.0424 H   0  0  0  0  0  0  0  0  0  0  0  0
  1  2  1  0
  1 12  1  0
  1 13  1  0
  1 29  1  0
  2 10  1  0
  2  3  1  0
  2 14  1  1
  3  8  1  0
  3  4  1  0
  3 15  1  1
  4  5  1  0
  4 16  1  0
  4 17  1  0
  5 11  1  0
  5  6  1  0
  5 18  1  1
  6  7  1  0
  6 19  1  0
  6 20  1  0
  7  8  1  0
  7  9  1  0
  7 21  1  6
  8 22  1  0
  8 23  1  0
  9 10  1  0
  9 24  1  0
  9 25  1  0
 10 11  1  0
 10 26  1  6
 11 27  1  0
 11 28  1  0
M  CHG  1   1   1
M  END
>  <i_m_ct_stereo_status>  (217) 
1

>  <s_m_source_file>  (217) 
/var/tmp/pbs.5076255.sched01/tmpbaygurib/766rrai79r.sdf

>  <i_m_source_file_index>  (217) 
17

>  <i_lp_mmshare_version>  (217) 
48012

>  <i_f3d_flags>  (217) 
0

>  <s_epik_input>  (217) 
W05IMl1bQ0BIXShbQ0BASF0xMilbQ0BIXTNbQ0gyXVtDQEBIXShbQ0gyXTIpW0NIMl1bQ0BASF0oW0NIMl0xKVtDSDJdMw==

>  <s_epik_cmdline>  (217) 
J2VwaWtfcHl0aG9uJywgJy1waHQnLCAnMi4wJywgJy1waCcsICc3LjAnLCAnLXRuJywgJzgnLCAnLW1hJywgJzIwMCcsICctaW1hZScsICc8aW5maWxlLm1hZT4nLCAnLW9tYWUnLCAnPG91dGZpbGUubWFlPic=

>  <r_lp_tautomer_probability>  (217) 
1

>  <r_epik_Ionization_Penalty>  (217) 
0.000164672

>  <r_epik_Ionization_Penalty_Charging>  (217) 
0.000164672

>  <r_epik_Ionization_Penalty_Neutral>  (217) 
0

>  <r_epik_State_Penalty>  (217) 
-0

>  <r_epik_Charging_Adjusted_Penalty>  (217) 
0.000164672

>  <i_epik_Tot_Q>  (217) 
1

>  <i_epik_Tot_abs_Q>  (217) 
1

>  <s_lp_Force_Field>  (217) 
OPLS3e

>  <r_lp_Energy>  (217) 
6.10956

>  <b_lp_Chiralities_Consistent>  (217) 
1

>  <s_lp_Variant>  (217) 
65:0-1

>  <s_i_glide_gridfile>  (217) 
pfpi4k_grid

>  <i_i_glide_lignum>  (217) 
17

>  <i_i_glide_rotatable_bonds>  (217) 
0

>  <r_i_docking_score>  (217) 
-4.05147

>  <r_i_glide_ligand_efficiency>  (217) 
-0.368315

>  <r_i_glide_ligand_efficiency_sa>  (217) 
-0.819126

>  <r_i_glide_ligand_efficiency_ln>  (217) 
-1.19235

>  <r_i_glide_gscore>  (217) 
-4.05147

>  <r_i_glide_lipo>  (217) 
-0.316209

>  <r_i_glide_hbond>  (217) 
0

>  <r_i_glide_metal>  (217) 
-0

>  <r_i_glide_rewards>  (217) 
-2.25

>  <r_i_glide_evdw>  (217) 
-15.3827

>  <r_i_glide_ecoul>  (217) 
-4.58863

>  <r_i_glide_erotb>  (217) 
0

>  <r_i_glide_esite>  (217) 
-0.0278317

>  <r_i_glide_emodel>  (217) 
-26.7354

>  <r_i_glide_energy>  (217) 
-19.9713

>  <r_i_glide_einternal>  (217) 
0

>  <r_i_glide_intrahb_reward>  (217) 
-0

>  <i_i_glide_confnum>  (217) 
1

>  <i_i_glide_posenum>  (217) 
9

>  <r_i_glide_eff_state_penalty>  (217) 
0

>  <ligand_id>  (217) 
65

>  <original_smiles>  (217) 
NC1C2CC3CC(C2)CC1C3

>  <smiles>  (217) 
[H]C1([H])C2([H])C([H])([H])C3([H])C([H])([H])C1([H])C([H])([H])C([H])(C2([H])[H])C3([H])[N+]([H])([H])[H]

$$$$
65:0:2
     RDKit          3D

 29 31  0  0  1  0  0  0  0  0999 V2000
    3.0405   -0.3066   -3.3329 N   0  0  0  0  0  0  0  0  0  0  0  0
    4.1458   -1.2721   -3.1276 C   0  0  2  0  0  0  0  0  0  0  0  0
    3.6610   -2.7274   -3.3052 C   0  0  1  0  0  0  0  0  0  0  0  0
    4.8830   -3.6702   -3.1627 C   0  0  0  0  0  0  0  0  0  0  0  0
    5.4777   -3.5305   -1.7444 C   0  0  2  0  0  0  0  0  0  0  0  0
    4.4265   -3.8656   -0.6745 C   0  0  0  0  0  0  0  0  0  0  0  0
    3.2445   -2.8977   -0.8099 C   0  0  2  0  0  0  0  0  0  0  0  0
    2.6139   -3.0541   -2.2144 C   0  0  0  0  0  0  0  0  0  0  0  0
    3.7730   -1.4551   -0.6133 C   0  0  0  0  0  0  0  0  0  0  0  0
    4.7924   -1.1266   -1.7201 C   0  0  1  0  0  0  0  0  0  0  0  0
    5.9809   -2.0943   -1.5602 C   0  0  0  0  0  0  0  0  0  0  0  0
    2.3370   -0.4961   -2.6269 H   0  0  0  0  0  0  0  0  0  0  0  0
    2.6215   -0.4260   -4.2454 H   0  0  0  0  0  0  0  0  0  0  0  0
    4.8982   -1.0654   -3.8880 H   0  0  0  0  0  0  0  0  0  0  0  0
    3.2150   -2.8655   -4.2901 H   0  0  0  0  0  0  0  0  0  0  0  0
    4.6200   -4.7136   -3.3427 H   0  0  0  0  0  0  0  0  0  0  0  0
    5.6404   -3.4353   -3.9134 H   0  0  0  0  0  0  0  0  0  0  0  0
    6.3036   -4.2195   -1.6100 H   0  0  0  0  0  0  0  0  0  0  0  0
    4.0951   -4.8988   -0.7782 H   0  0  0  0  0  0  0  0  0  0  0  0
    4.8718   -3.7846    0.3172 H   0  0  0  0  0  0  0  0  0  0  0  0
    2.4988   -3.1186   -0.0432 H   0  0  0  0  0  0  0  0  0  0  0  0
    1.7462   -2.4083   -2.3187 H   0  0  0  0  0  0  0  0  0  0  0  0
    2.2145   -4.0594   -2.3429 H   0  0  0  0  0  0  0  0  0  0  0  0
    2.9632   -0.7326   -0.6354 H   0  0  0  0  0  0  0  0  0  0  0  0
    4.2240   -1.3519    0.3759 H   0  0  0  0  0  0  0  0  0  0  0  0
    5.1514   -0.1098   -1.5922 H   0  0  0  0  0  0  0  0  0  0  0  0
    6.4392   -1.9759   -0.5775 H   0  0  0  0  0  0  0  0  0  0  0  0
    6.7535   -1.8874   -2.2988 H   0  0  0  0  0  0  0  0  0  0  0  0
    3.3322    0.6558   -3.2256 H   0  0  0  0  0  0  0  0  0  0  0  0
  1  2  1  0
  1 12  1  0
  1 13  1  0
  1 29  1  0
  2 10  1  0
  2  3  1  0
  2 14  1  6
  3  8  1  0
  3  4  1  0
  3 15  1  6
  4  5  1  0
  4 16  1  0
  4 17  1  0
  5 11  1  0
  5  6  1  0
  5 18  1  6
  6  7  1  0
  6 19  1  0
  6 20  1  0
  7  8  1  0
  7  9  1  0
  7 21  1  1
  8 22  1  0
  8 23  1  0
  9 10  1  0
  9 24  1  0
  9 25  1  0
 10 11  1  0
 10 26  1  1
 11 27  1  0
 11 28  1  0
M  CHG  1   1   1
M  END
>  <i_m_ct_stereo_status>  (218) 
1

>  <s_m_source_file>  (218) 
/var/tmp/pbs.5076255.sched01/tmpbaygurib/766rrai79r.sdf

>  <i_m_source_file_index>  (218) 
17

>  <i_lp_mmshare_version>  (218) 
48012

>  <i_f3d_flags>  (218) 
0

>  <s_epik_input>  (218) 
W05IMl1bQ0BIXShbQ0BASF0xMilbQ0BIXTNbQ0gyXVtDQEBIXShbQ0gyXTIpW0NIMl1bQ0BASF0oW0NIMl0xKVtDSDJdMw==

>  <s_epik_cmdline>  (218) 
J2VwaWtfcHl0aG9uJywgJy1waHQnLCAnMi4wJywgJy1waCcsICc3LjAnLCAnLXRuJywgJzgnLCAnLW1hJywgJzIwMCcsICctaW1hZScsICc8aW5maWxlLm1hZT4nLCAnLW9tYWUnLCAnPG91dGZpbGUubWFlPic=

>  <r_lp_tautomer_probability>  (218) 
1

>  <r_epik_Ionization_Penalty>  (218) 
0.000164672

>  <r_epik_Ionization_Penalty_Charging>  (218) 
0.000164672

>  <r_epik_Ionization_Penalty_Neutral>  (218) 
0

>  <r_epik_State_Penalty>  (218) 
-0

>  <r_epik_Charging_Adjusted_Penalty>  (218) 
0.000164672

>  <i_epik_Tot_Q>  (218) 
1

>  <i_epik_Tot_abs_Q>  (218) 
1

>  <s_lp_Force_Field>  (218) 
OPLS3e

>  <r_lp_Energy>  (218) 
6.10956

>  <b_lp_Chiralities_Consistent>  (218) 
1

>  <s_lp_Variant>  (218) 
65:0-1

>  <s_i_glide_gridfile>  (218) 
pfpi4k_grid

>  <i_i_glide_lignum>  (218) 
17

>  <i_i_glide_rotatable_bonds>  (218) 
0

>  <r_i_docking_score>  (218) 
-3.92319

>  <r_i_glide_ligand_efficiency>  (218) 
-0.356654

>  <r_i_glide_ligand_efficiency_sa>  (218) 
-0.79319

>  <r_i_glide_ligand_efficiency_ln>  (218) 
-1.15459

>  <r_i_glide_gscore>  (218) 
-3.92319

>  <r_i_glide_lipo>  (218) 
-0.407022

>  <r_i_glide_hbond>  (218) 
0

>  <r_i_glide_metal>  (218) 
-0

>  <r_i_glide_rewards>  (218) 
-2.25

>  <r_i_glide_evdw>  (218) 
-14.8574

>  <r_i_glide_ecoul>  (218) 
-3.48864

>  <r_i_glide_erotb>  (218) 
0

>  <r_i_glide_esite>  (218) 
0

>  <r_i_glide_emodel>  (218) 
-24.7727

>  <r_i_glide_energy>  (218) 
-18.3461

>  <r_i_glide_einternal>  (218) 
0

>  <r_i_glide_intrahb_reward>  (218) 
-0

>  <i_i_glide_confnum>  (218) 
1

>  <i_i_glide_posenum>  (218) 
7

>  <r_i_glide_eff_state_penalty>  (218) 
0

>  <ligand_id>  (218) 
65

>  <original_smiles>  (218) 
NC1C2CC3CC(C2)CC1C3

>  <smiles>  (218) 
[H]C1([H])C2([H])C([H])([H])C3([H])C([H])([H])C1([H])C([H])([H])C([H])(C2([H])[H])C3([H])[N+]([H])([H])[H]

$$$$
66:0:0
     RDKit          3D

 62 70  0  0  1  0  0  0  0  0999 V2000
    4.4001   -7.7464    1.1601 C   0  0  0  0  0  0  0  0  0  0  0  0
    4.7096   -8.3146    2.5672 C   0  0  1  0  0  0  0  0  0  0  0  0
    6.1116   -8.0376    3.1349 C   0  0  1  0  0  0  0  0  0  0  0  0
    6.5894   -6.6993    3.3590 O   0  0  0  0  0  0  0  0  0  0  0  0
    6.0118   -5.5884    2.6903 C   0  0  0  0  0  0  0  0  0  0  0  0
    4.6310   -5.2089    3.2544 C   0  0  0  0  0  0  0  0  0  0  0  0
    4.0480   -6.2285    4.2469 C   0  0  0  0  0  0  0  0  0  0  0  0
    3.8823   -7.7033    3.7563 C   0  0  2  0  0  0  0  0  0  0  0  0
    3.9567   -8.8684    4.8345 C   0  0  1  0  0  0  0  0  0  0  0  0
    5.2483   -8.8561    6.1412 C   0  0  1  0  0  0  0  0  0  0  0  0
    6.5641  -10.1044    6.4973 C   0  0  0  0  0  0  0  0  0  0  0  0
    6.7663  -11.0783    5.1569 C   0  0  0  0  0  0  0  0  0  0  0  0
    7.8027  -11.7939    4.5193 C   0  0  0  0  0  0  0  0  0  0  0  0
    7.6890  -12.0911    3.1064 C   0  0  0  0  0  0  0  0  0  0  0  0
    6.6214  -11.6048    2.2766 C   0  0  0  0  0  0  0  0  0  0  0  0
    6.6189  -11.8263    0.9220 O   0  0  0  0  0  0  0  0  0  0  0  0
    5.5749  -10.8672    2.8670 C   0  0  0  0  0  0  0  0  0  0  0  0
    5.7711  -10.7230    4.2152 C   0  0  0  0  0  0  0  0  0  0  0  0
    4.9000   -9.8815    4.9077 C   0  0  2  0  0  0  0  0  0  0  0  0
    4.1489  -11.0254    5.9084 C   0  0  0  0  0  0  0  0  0  0  0  0
    3.3021  -11.9271    5.0461 C   0  0  0  0  0  0  0  0  0  0  0  0
    2.5222  -11.0703    4.1401 N   0  0  1  0  0  0  0  0  0  0  0  0
    1.1477  -10.7764    4.6905 C   0  0  0  0  0  0  0  0  0  0  0  0
    1.0749   -9.5603    5.6299 C   0  0  0  0  0  0  0  0  0  0  0  0
    0.0525   -9.4515    6.7222 C   0  0  0  0  0  0  0  0  0  0  0  0
   -0.0403   -8.5503    5.5182 C   0  0  0  0  0  0  0  0  0  0  0  0
    3.3005   -9.8484    3.6901 C   0  0  2  0  0  0  0  0  0  0  0  0
    4.3720   -9.9017    2.4926 C   0  0  1  0  0  0  0  0  0  0  0  0
    6.1263   -8.6790    4.5592 C   0  0  2  0  0  0  0  0  0  0  0  0
    6.0161   -7.8477    5.6293 O   0  0  0  0  0  0  0  0  0  0  0  0
    5.2316   -7.9283    0.4823 H   0  0  0  0  0  0  0  0  0  0  0  0
    4.1739   -6.6877    1.1322 H   0  0  0  0  0  0  0  0  0  0  0  0
    3.5173   -8.2166    0.7316 H   0  0  0  0  0  0  0  0  0  0  0  0
    6.8356   -8.5358    2.4910 H   0  0  0  0  0  0  0  0  0  0  0  0
    6.6695   -4.7405    2.8670 H   0  0  0  0  0  0  0  0  0  0  0  0
    6.0219   -5.7099    1.6084 H   0  0  0  0  0  0  0  0  0  0  0  0
    4.7250   -4.2586    3.7819 H   0  0  0  0  0  0  0  0  0  0  0  0
    3.9305   -4.9968    2.4479 H   0  0  0  0  0  0  0  0  0  0  0  0
    4.5966   -6.1538    5.1793 H   0  0  0  0  0  0  0  0  0  0  0  0
    3.0583   -5.8648    4.5209 H   0  0  0  0  0  0  0  0  0  0  0  0
    2.8767   -7.5634    3.3702 H   0  0  0  0  0  0  0  0  0  0  0  0
    4.8251   -8.4739    7.0776 H   0  0  0  0  0  0  0  0  0  0  0  0
    7.5029   -9.6102    6.7362 H   0  0  0  0  0  0  0  0  0  0  0  0
    6.3174  -10.6999    7.3772 H   0  0  0  0  0  0  0  0  0  0  0  0
    8.6923  -12.0687    5.0752 H   0  0  0  0  0  0  0  0  0  0  0  0
    8.4892  -12.6547    2.6517 H   0  0  0  0  0  0  0  0  0  0  0  0
    5.6999  -11.8576    0.6215 H   0  0  0  0  0  0  0  0  0  0  0  0
    4.7460  -11.7055    6.5018 H   0  0  0  0  0  0  0  0  0  0  0  0
    3.5077  -10.5535    6.6523 H   0  0  0  0  0  0  0  0  0  0  0  0
    3.9292  -12.6039    4.4621 H   0  0  0  0  0  0  0  0  0  0  0  0
    2.6635  -12.5638    5.6530 H   0  0  0  0  0  0  0  0  0  0  0  0
    0.4621  -10.6424    3.8476 H   0  0  0  0  0  0  0  0  0  0  0  0
    0.7563  -11.6566    5.2079 H   0  0  0  0  0  0  0  0  0  0  0  0
    1.9980   -9.1864    6.0383 H   0  0  0  0  0  0  0  0  0  0  0  0
   -0.6272  -10.2937    6.8465 H   0  0  0  0  0  0  0  0  0  0  0  0
    0.4721   -9.0370    7.6373 H   0  0  0  0  0  0  0  0  0  0  0  0
    0.2891   -7.5190    5.6219 H   0  0  0  0  0  0  0  0  0  0  0  0
   -0.8288   -8.7362    4.7818 H   0  0  0  0  0  0  0  0  0  0  0  0
    2.4387   -9.4250    3.1824 H   0  0  0  0  0  0  0  0  0  0  0  0
    3.9091  -10.2319    1.5644 H   0  0  0  0  0  0  0  0  0  0  0  0
    7.2092   -8.8727    4.5880 H   0  0  0  0  0  0  0  0  0  0  0  0
    2.3673  -11.6502    3.3281 H   0  0  0  0  0  0  0  0  0  0  0  0
  2  1  1  6
  1 31  1  0
  1 32  1  0
  1 33  1  0
  2  8  1  0
  2 28  1  0
  2  3  1  0
  3 29  1  0
  3  4  1  0
  3 34  1  6
  4  5  1  0
  5  6  1  0
  5 35  1  0
  5 36  1  0
  6  7  1  0
  6 37  1  0
  6 38  1  0
  7  8  1  0
  7 39  1  0
  7 40  1  0
  8  9  1  0
  8 41  1  6
  9 19  1  6
  9 27  1  0
  9 10  1  0
 10 30  1  0
 10 11  1  0
 10 42  1  1
 11 12  1  0
 11 43  1  0
 11 44  1  0
 12 18  2  0
 12 13  1  0
 13 14  2  0
 13 45  1  0
 14 15  1  0
 14 46  1  0
 15 16  1  0
 15 17  2  0
 16 47  1  0
 17 28  1  0
 17 18  1  0
 18 19  1  0
 19 20  1  1
 19 29  1  0
 20 21  1  0
 20 48  1  0
 20 49  1  0
 21 22  1  0
 21 50  1  0
 21 51  1  0
 22 23  1  0
 22 27  1  0
 22 62  1  6
 23 24  1  0
 23 52  1  0
 23 53  1  0
 24 26  1  0
 24 25  1  0
 24 54  1  0
 25 26  1  0
 25 55  1  0
 25 56  1  0
 26 57  1  0
 26 58  1  0
 27 28  1  0
 27 59  1  6
 28 60  1  6
 29 30  1  0
 29 61  1  1
M  CHG  1  22   1
M  END
>  <i_m_ct_stereo_status>  (219) 
1

>  <s_m_source_file>  (219) 
/var/tmp/pbs.5076255.sched01/tmpbaygurib/766rrai79r.sdf

>  <i_m_source_file_index>  (219) 
18

>  <i_lp_mmshare_version>  (219) 
48012

>  <i_f3d_flags>  (219) 
2

>  <s_epik_input>  (219) 
W0NASF0xMltDSDJdW0NIMl1bQ0gyXU9bQ0BASF0oW0NASF0zT1tDQEBIXTRbQ0gyXTUpW0NAQF0xKFtDSDNdKVtDQEBIXShbQ0BASF02TihbQ0gyXVtDSDJdNylbQ0gyXVtDSF04W0NIMl1bQ0gyXTgpYzljKFtPSF0pW2NIXVtjSF1jNWM5W0NAQF0zN0MyNDY=

>  <s_epik_cmdline>  (219) 
J2VwaWtfcHl0aG9uJywgJy1waHQnLCAnMi4wJywgJy1waCcsICc3LjAnLCAnLXRuJywgJzgnLCAnLW1hJywgJzIwMCcsICctaW1hZScsICc8aW5maWxlLm1hZT4nLCAnLW9tYWUnLCAnPG91dGZpbGUubWFlPic=

>  <r_lp_tautomer_probability>  (219) 
1

>  <r_epik_Ionization_Penalty>  (219) 
0.0101717

>  <r_epik_Ionization_Penalty_Charging>  (219) 
0.00971372

>  <r_epik_Ionization_Penalty_Neutral>  (219) 
0.00045801

>  <r_epik_State_Penalty>  (219) 
0.00739128

>  <r_epik_Charging_Adjusted_Penalty>  (219) 
0.017105

>  <i_epik_Tot_Q>  (219) 
1

>  <i_epik_Tot_abs_Q>  (219) 
1

>  <s_lp_Force_Field>  (219) 
OPLS3e

>  <r_lp_Energy>  (219) 
592.751

>  <b_lp_Chiralities_Consistent>  (219) 
0

>  <s_lp_Variant>  (219) 
66:0-1

>  <s_i_glide_gridfile>  (219) 
pfpi4k_grid

>  <i_i_glide_lignum>  (219) 
18

>  <i_i_glide_rotatable_bonds>  (219) 
3

>  <r_i_docking_score>  (219) 
-3.72072

>  <r_i_glide_ligand_efficiency>  (219) 
-0.124024

>  <r_i_glide_ligand_efficiency_sa>  (219) 
-0.385372

>  <r_i_glide_ligand_efficiency_ln>  (219) 
-0.845389

>  <r_i_glide_gscore>  (219) 
-3.72072

>  <r_i_glide_lipo>  (219) 
-0.0782276

>  <r_i_glide_hbond>  (219) 
-0.456

>  <r_i_glide_metal>  (219) 
-0

>  <r_i_glide_rewards>  (219) 
-0.637246

>  <r_i_glide_evdw>  (219) 
-19.8819

>  <r_i_glide_ecoul>  (219) 
-11.8446

>  <r_i_glide_erotb>  (219) 
0.237949

>  <r_i_glide_esite>  (219) 
-0.0164178

>  <r_i_glide_emodel>  (219) 
-37.5374

>  <r_i_glide_energy>  (219) 
-31.7265

>  <r_i_glide_einternal>  (219) 
6.82265

>  <r_i_glide_intrahb_reward>  (219) 
-0

>  <i_i_glide_confnum>  (219) 
4

>  <i_i_glide_posenum>  (219) 
34

>  <r_i_glide_eff_state_penalty>  (219) 
0

>  <ligand_id>  (219) 
66

>  <original_smiles>  (219) 
CC12C3OCCCC1C14C5Cc6ccc(O)c7c6C1(CCN(CC1CC1)C4C72)C3O5

>  <smiles>  (219) 
[H]Oc1c([H])c([H])c2c3c1C1([H])C4(C([H])([H])[H])C5([H])OC([H])([H])C([H])([H])C([H])([H])C4([H])C46C([H])(OC5([H])C34C([H])([H])C([H])([H])[N+]([H])(C([H])([H])C3([H])C([H])([H])C3([H])[H])C16[H])C2([H])[H]

$$$$
66:0:1
     RDKit          3D

 62 70  0  0  1  0  0  0  0  0999 V2000
    4.5672   -7.7232    0.9542 C   0  0  0  0  0  0  0  0  0  0  0  0
    4.8166   -8.2226    2.3965 C   0  0  1  0  0  0  0  0  0  0  0  0
    6.2097   -7.9746    2.9850 C   0  0  1  0  0  0  0  0  0  0  0  0
    6.7474   -6.6496    3.1383 O   0  0  0  0  0  0  0  0  0  0  0  0
    6.2473   -5.5548    2.3855 C   0  0  0  0  0  0  0  0  0  0  0  0
    4.8682   -5.0882    2.8900 C   0  0  0  0  0  0  0  0  0  0  0  0
    4.2063   -6.0182    3.9259 C   0  0  0  0  0  0  0  0  0  0  0  0
    3.9802   -7.5111    3.5165 C   0  0  2  0  0  0  0  0  0  0  0  0
    3.9448   -8.6263    4.6683 C   0  0  1  0  0  0  0  0  0  0  0  0
    5.2108   -8.5811    5.9971 C   0  0  1  0  0  0  0  0  0  0  0  0
    6.4692   -9.8620    6.4615 C   0  0  0  0  0  0  0  0  0  0  0  0
    6.6580  -10.9293    5.1833 C   0  0  0  0  0  0  0  0  0  0  0  0
    7.6968  -11.7121    4.6139 C   0  0  0  0  0  0  0  0  0  0  0  0
    7.6146  -12.0757    3.2101 C   0  0  0  0  0  0  0  0  0  0  0  0
    6.5966  -11.5832    2.3187 C   0  0  0  0  0  0  0  0  0  0  0  0
    6.6296  -11.8408    0.9833 O   0  0  0  0  0  0  0  0  0  0  0  0
    5.5532  -10.7890    2.8572 C   0  0  0  0  0  0  0  0  0  0  0  0
    5.7314  -10.5804    4.1929 C   0  0  0  0  0  0  0  0  0  0  0  0
    4.8604   -9.6652    4.8062 C   0  0  2  0  0  0  0  0  0  0  0  0
    4.0193  -10.7098    5.8427 C   0  0  0  0  0  0  0  0  0  0  0  0
    3.1660  -11.6338    4.9972 C   0  0  0  0  0  0  0  0  0  0  0  0
    2.4798  -10.8134    3.9958 N   0  0  1  0  0  0  0  0  0  0  0  0
    1.1317  -10.3838    4.4855 C   0  0  0  0  0  0  0  0  0  0  0  0
    0.1617  -10.0272    3.3692 C   0  0  0  0  0  0  0  0  0  0  0  0
    0.1444   -8.6544    2.7406 C   0  0  0  0  0  0  0  0  0  0  0  0
   -0.9847   -9.0481    3.6206 C   0  0  0  0  0  0  0  0  0  0  0  0
    3.3334   -9.6521    3.5443 C   0  0  2  0  0  0  0  0  0  0  0  0
    4.4217   -9.7996    2.3967 C   0  0  1  0  0  0  0  0  0  0  0  0
    6.1491   -8.5395    4.4373 C   0  0  2  0  0  0  0  0  0  0  0  0
    6.0439   -7.6477    5.4561 O   0  0  0  0  0  0  0  0  0  0  0  0
    5.4042   -7.9963    0.3200 H   0  0  0  0  0  0  0  0  0  0  0  0
    4.4022   -6.6593    0.8450 H   0  0  0  0  0  0  0  0  0  0  0  0
    3.6794   -8.1760    0.5148 H   0  0  0  0  0  0  0  0  0  0  0  0
    6.9208   -8.5381    2.3837 H   0  0  0  0  0  0  0  0  0  0  0  0
    6.9480   -4.7316    2.5173 H   0  0  0  0  0  0  0  0  0  0  0  0
    6.2774   -5.7397    1.3137 H   0  0  0  0  0  0  0  0  0  0  0  0
    4.9913   -4.1149    3.3641 H   0  0  0  0  0  0  0  0  0  0  0  0
    4.2014   -4.8872    2.0524 H   0  0  0  0  0  0  0  0  0  0  0  0
    4.7347   -5.9101    4.8679 H   0  0  0  0  0  0  0  0  0  0  0  0
    3.2269   -5.5901    4.1477 H   0  0  0  0  0  0  0  0  0  0  0  0
    3.0009   -7.3525    3.0806 H   0  0  0  0  0  0  0  0  0  0  0  0
    4.8037   -8.1253    6.9061 H   0  0  0  0  0  0  0  0  0  0  0  0
    7.4216   -9.4012    6.6824 H   0  0  0  0  0  0  0  0  0  0  0  0
    6.1834  -10.4027    7.3524 H   0  0  0  0  0  0  0  0  0  0  0  0
    8.5539  -11.9945    5.2002 H   0  0  0  0  0  0  0  0  0  0  0  0
    8.4050  -12.6835    2.8039 H   0  0  0  0  0  0  0  0  0  0  0  0
    5.7021  -11.8658    0.6497 H   0  0  0  0  0  0  0  0  0  0  0  0
    4.5725  -11.3689    6.5070 H   0  0  0  0  0  0  0  0  0  0  0  0
    3.3609  -10.1566    6.5164 H   0  0  0  0  0  0  0  0  0  0  0  0
    3.7912  -12.3616    4.4892 H   0  0  0  0  0  0  0  0  0  0  0  0
    2.4920  -12.2116    5.6227 H   0  0  0  0  0  0  0  0  0  0  0  0
    0.6338  -11.1693    5.0524 H   0  0  0  0  0  0  0  0  0  0  0  0
    1.2298   -9.5462    5.1713 H   0  0  0  0  0  0  0  0  0  0  0  0
   -0.1069  -10.8763    2.7349 H   0  0  0  0  0  0  0  0  0  0  0  0
    0.8037   -7.8990    3.1460 H   0  0  0  0  0  0  0  0  0  0  0  0
   -0.0152   -8.6369    1.6688 H   0  0  0  0  0  0  0  0  0  0  0  0
   -1.9439   -9.2287    3.1391 H   0  0  0  0  0  0  0  0  0  0  0  0
   -1.0397   -8.5917    4.6087 H   0  0  0  0  0  0  0  0  0  0  0  0
    2.5735   -9.2244    2.9208 H   0  0  0  0  0  0  0  0  0  0  0  0
    3.9728  -10.1484    1.4740 H   0  0  0  0  0  0  0  0  0  0  0  0
    7.2187   -8.7745    4.5047 H   0  0  0  0  0  0  0  0  0  0  0  0
    2.3066  -11.4272    3.2150 H   0  0  0  0  0  0  0  0  0  0  0  0
  2  1  1  6
  1 31  1  0
  1 32  1  0
  1 33  1  0
  2  8  1  0
  2 28  1  0
  2  3  1  0
  3 29  1  0
  3  4  1  0
  3 34  1  6
  4  5  1  0
  5  6  1  0
  5 35  1  0
  5 36  1  0
  6  7  1  0
  6 37  1  0
  6 38  1  0
  7  8  1  0
  7 39  1  0
  7 40  1  0
  8  9  1  0
  8 41  1  6
  9 19  1  6
  9 27  1  0
  9 10  1  0
 10 30  1  0
 10 11  1  0
 10 42  1  1
 11 12  1  0
 11 43  1  0
 11 44  1  0
 12 18  2  0
 12 13  1  0
 13 14  2  0
 13 45  1  0
 14 15  1  0
 14 46  1  0
 15 16  1  0
 15 17  2  0
 16 47  1  0
 17 28  1  0
 17 18  1  0
 18 19  1  0
 19 20  1  1
 19 29  1  0
 20 21  1  0
 20 48  1  0
 20 49  1  0
 21 22  1  0
 21 50  1  0
 21 51  1  0
 22 23  1  0
 22 27  1  0
 22 62  1  6
 23 24  1  0
 23 52  1  0
 23 53  1  0
 24 26  1  0
 24 25  1  0
 24 54  1  0
 25 26  1  0
 25 55  1  0
 25 56  1  0
 26 57  1  0
 26 58  1  0
 27 28  1  0
 27 59  1  6
 28 60  1  6
 29 30  1  0
 29 61  1  1
M  CHG  1  22   1
M  END
>  <i_m_ct_stereo_status>  (220) 
1

>  <s_m_source_file>  (220) 
/var/tmp/pbs.5076255.sched01/tmpbaygurib/766rrai79r.sdf

>  <i_m_source_file_index>  (220) 
18

>  <i_lp_mmshare_version>  (220) 
48012

>  <i_f3d_flags>  (220) 
2

>  <s_epik_input>  (220) 
W0NASF0xMltDSDJdW0NIMl1bQ0gyXU9bQ0BASF0oW0NASF0zT1tDQEBIXTRbQ0gyXTUpW0NAQF0xKFtDSDNdKVtDQEBIXShbQ0BASF02TihbQ0gyXVtDSDJdNylbQ0gyXVtDSF04W0NIMl1bQ0gyXTgpYzljKFtPSF0pW2NIXVtjSF1jNWM5W0NAQF0zN0MyNDY=

>  <s_epik_cmdline>  (220) 
J2VwaWtfcHl0aG9uJywgJy1waHQnLCAnMi4wJywgJy1waCcsICc3LjAnLCAnLXRuJywgJzgnLCAnLW1hJywgJzIwMCcsICctaW1hZScsICc8aW5maWxlLm1hZT4nLCAnLW9tYWUnLCAnPG91dGZpbGUubWFlPic=

>  <r_lp_tautomer_probability>  (220) 
1

>  <r_epik_Ionization_Penalty>  (220) 
0.0101717

>  <r_epik_Ionization_Penalty_Charging>  (220) 
0.00971372

>  <r_epik_Ionization_Penalty_Neutral>  (220) 
0.00045801

>  <r_epik_State_Penalty>  (220) 
0.00739128

>  <r_epik_Charging_Adjusted_Penalty>  (220) 
0.017105

>  <i_epik_Tot_Q>  (220) 
1

>  <i_epik_Tot_abs_Q>  (220) 
1

>  <s_lp_Force_Field>  (220) 
OPLS3e

>  <r_lp_Energy>  (220) 
592.751

>  <b_lp_Chiralities_Consistent>  (220) 
0

>  <s_lp_Variant>  (220) 
66:0-1

>  <s_i_glide_gridfile>  (220) 
pfpi4k_grid

>  <i_i_glide_lignum>  (220) 
18

>  <i_i_glide_rotatable_bonds>  (220) 
3

>  <r_i_docking_score>  (220) 
-3.71967

>  <r_i_glide_ligand_efficiency>  (220) 
-0.123989

>  <r_i_glide_ligand_efficiency_sa>  (220) 
-0.385263

>  <r_i_glide_ligand_efficiency_ln>  (220) 
-0.84515

>  <r_i_glide_gscore>  (220) 
-3.71967

>  <r_i_glide_lipo>  (220) 
-0.102343

>  <r_i_glide_hbond>  (220) 
-0.456

>  <r_i_glide_metal>  (220) 
-0

>  <r_i_glide_rewards>  (220) 
-0.637246

>  <r_i_glide_evdw>  (220) 
-20.6585

>  <r_i_glide_ecoul>  (220) 
-11.4552

>  <r_i_glide_erotb>  (220) 
0.237949

>  <r_i_glide_esite>  (220) 
-0.0108238

>  <r_i_glide_emodel>  (220) 
-39.7937

>  <r_i_glide_energy>  (220) 
-32.1138

>  <r_i_glide_einternal>  (220) 
4.66997

>  <r_i_glide_intrahb_reward>  (220) 
-0

>  <i_i_glide_confnum>  (220) 
4

>  <i_i_glide_posenum>  (220) 
11

>  <r_i_glide_eff_state_penalty>  (220) 
0

>  <ligand_id>  (220) 
66

>  <original_smiles>  (220) 
CC12C3OCCCC1C14C5Cc6ccc(O)c7c6C1(CCN(CC1CC1)C4C72)C3O5

>  <smiles>  (220) 
[H]Oc1c([H])c([H])c2c3c1C1([H])C4(C([H])([H])[H])C5([H])OC([H])([H])C([H])([H])C([H])([H])C4([H])C46C([H])(OC5([H])C34C([H])([H])C([H])([H])[N+]([H])(C([H])([H])C3([H])C([H])([H])C3([H])[H])C16[H])C2([H])[H]

$$$$
66:0:2
     RDKit          3D

 62 70  0  0  1  0  0  0  0  0999 V2000
    5.3094   -7.7581    1.5051 C   0  0  0  0  0  0  0  0  0  0  0  0
    5.2182   -8.4590    2.8857 C   0  0  1  0  0  0  0  0  0  0  0  0
    6.5171   -8.5476    3.7038 C   0  0  1  0  0  0  0  0  0  0  0  0
    7.2338   -7.3773    4.1280 O   0  0  0  0  0  0  0  0  0  0  0  0
    7.0500   -6.1234    3.4922 C   0  0  0  0  0  0  0  0  0  0  0  0
    5.6979   -5.4763    3.8514 C   0  0  0  0  0  0  0  0  0  0  0  0
    4.7282   -6.3840    4.6303 C   0  0  0  0  0  0  0  0  0  0  0  0
    4.3291   -7.7463    3.9717 C   0  0  2  0  0  0  0  0  0  0  0  0
    3.9294   -8.9663    4.9352 C   0  0  1  0  0  0  0  0  0  0  0  0
    4.9606   -9.3217    6.4292 C   0  0  1  0  0  0  0  0  0  0  0  0
    5.8935  -10.8594    6.8690 C   0  0  0  0  0  0  0  0  0  0  0  0
    6.1172  -11.7737    5.4912 C   0  0  0  0  0  0  0  0  0  0  0  0
    7.0918  -12.6608    4.9605 C   0  0  0  0  0  0  0  0  0  0  0  0
    7.1902  -12.8256    3.5313 C   0  0  0  0  0  0  0  0  0  0  0  0
    6.4152  -12.0504    2.5964 C   0  0  0  0  0  0  0  0  0  0  0  0
    6.6135  -12.1423    1.2547 O   0  0  0  0  0  0  0  0  0  0  0  0
    5.4370  -11.1560    3.0796 C   0  0  0  0  0  0  0  0  0  0  0  0
    5.4145  -11.1460    4.4432 C   0  0  0  0  0  0  0  0  0  0  0  0
    4.6336  -10.1638    5.0590 C   0  0  2  0  0  0  0  0  0  0  0  0
    3.4738  -11.1515    5.7951 C   0  0  0  0  0  0  0  0  0  0  0  0
    2.6364  -11.8045    4.7111 C   0  0  0  0  0  0  0  0  0  0  0  0
    2.2521  -10.7578    3.7536 N   0  0  1  0  0  0  0  0  0  0  0  0
    0.9197  -10.1677    4.1086 C   0  0  0  0  0  0  0  0  0  0  0  0
    0.1009   -9.7731    2.8904 C   0  0  0  0  0  0  0  0  0  0  0  0
    0.0132   -8.3222    2.4765 C   0  0  0  0  0  0  0  0  0  0  0  0
   -1.1902   -8.9936    3.0756 C   0  0  0  0  0  0  0  0  0  0  0  0
    3.3276   -9.7065    3.5914 C   0  0  2  0  0  0  0  0  0  0  0  0
    4.5679   -9.9218    2.6034 C   0  0  1  0  0  0  0  0  0  0  0  0
    6.1287   -9.2571    5.0407 C   0  0  2  0  0  0  0  0  0  0  0  0
    6.0012   -8.4844    6.1518 O   0  0  0  0  0  0  0  0  0  0  0  0
    6.1928   -8.0810    0.9583 H   0  0  0  0  0  0  0  0  0  0  0  0
    5.3306   -6.6785    1.5465 H   0  0  0  0  0  0  0  0  0  0  0  0
    4.4473   -7.9815    0.8778 H   0  0  0  0  0  0  0  0  0  0  0  0
    7.2236   -9.1556    3.1404 H   0  0  0  0  0  0  0  0  0  0  0  0
    7.8409   -5.4705    3.8629 H   0  0  0  0  0  0  0  0  0  0  0  0
    7.2316   -6.1752    2.4203 H   0  0  0  0  0  0  0  0  0  0  0  0
    5.8934   -4.6052    4.4761 H   0  0  0  0  0  0  0  0  0  0  0  0
    5.2219   -5.0591    2.9649 H   0  0  0  0  0  0  0  0  0  0  0  0
    5.1020   -6.4913    5.6430 H   0  0  0  0  0  0  0  0  0  0  0  0
    3.8106   -5.8116    4.7749 H   0  0  0  0  0  0  0  0  0  0  0  0
    3.4638   -7.3552    3.4384 H   0  0  0  0  0  0  0  0  0  0  0  0
    4.4840   -8.9139    7.3276 H   0  0  0  0  0  0  0  0  0  0  0  0
    6.8620  -10.6162    7.3023 H   0  0  0  0  0  0  0  0  0  0  0  0
    5.3796  -11.4458    7.6305 H   0  0  0  0  0  0  0  0  0  0  0  0
    7.7833  -13.1651    5.6210 H   0  0  0  0  0  0  0  0  0  0  0  0
    7.9283  -13.5112    3.1482 H   0  0  0  0  0  0  0  0  0  0  0  0
    5.7500  -12.0680    0.8305 H   0  0  0  0  0  0  0  0  0  0  0  0
    3.7951  -11.9834    6.4210 H   0  0  0  0  0  0  0  0  0  0  0  0
    2.8049  -10.5804    6.4441 H   0  0  0  0  0  0  0  0  0  0  0  0
    3.2146  -12.5704    4.1946 H   0  0  0  0  0  0  0  0  0  0  0  0
    1.7828  -12.3236    5.1457 H   0  0  0  0  0  0  0  0  0  0  0  0
    0.2953  -10.8586    4.6748 H   0  0  0  0  0  0  0  0  0  0  0  0
    1.0585   -9.3030    4.7608 H   0  0  0  0  0  0  0  0  0  0  0  0
    0.0499  -10.5325    2.1080 H   0  0  0  0  0  0  0  0  0  0  0  0
    0.5575   -7.6050    3.0884 H   0  0  0  0  0  0  0  0  0  0  0  0
   -0.0038   -8.1174    1.4077 H   0  0  0  0  0  0  0  0  0  0  0  0
   -2.0223   -9.2032    2.4051 H   0  0  0  0  0  0  0  0  0  0  0  0
   -1.4779   -8.7129    4.0874 H   0  0  0  0  0  0  0  0  0  0  0  0
    2.6964   -9.0613    2.9866 H   0  0  0  0  0  0  0  0  0  0  0  0
    4.2452  -10.0833    1.5773 H   0  0  0  0  0  0  0  0  0  0  0  0
    7.1214   -9.6909    5.2279 H   0  0  0  0  0  0  0  0  0  0  0  0
    2.1249  -11.2334    2.8728 H   0  0  0  0  0  0  0  0  0  0  0  0
  2  1  1  6
  1 31  1  0
  1 32  1  0
  1 33  1  0
  2  8  1  0
  2 28  1  0
  2  3  1  0
  3 29  1  0
  3  4  1  0
  3 34  1  6
  4  5  1  0
  5  6  1  0
  5 35  1  0
  5 36  1  0
  6  7  1  0
  6 37  1  0
  6 38  1  0
  7  8  1  0
  7 39  1  0
  7 40  1  0
  8  9  1  0
  8 41  1  6
  9 19  1  6
  9 27  1  0
  9 10  1  0
 10 30  1  0
 10 11  1  0
 10 42  1  1
 11 12  1  0
 11 43  1  0
 11 44  1  0
 12 18  2  0
 12 13  1  0
 13 14  2  0
 13 45  1  0
 14 15  1  0
 14 46  1  0
 15 16  1  0
 15 17  2  0
 16 47  1  0
 17 28  1  0
 17 18  1  0
 18 19  1  0
 19 20  1  1
 19 29  1  0
 20 21  1  0
 20 48  1  0
 20 49  1  0
 21 22  1  0
 21 50  1  0
 21 51  1  0
 22 23  1  0
 22 27  1  0
 22 62  1  6
 23 24  1  0
 23 52  1  0
 23 53  1  0
 24 26  1  0
 24 25  1  0
 24 54  1  0
 25 26  1  0
 25 55  1  0
 25 56  1  0
 26 57  1  0
 26 58  1  0
 27 28  1  0
 27 59  1  6
 28 60  1  6
 29 30  1  0
 29 61  1  1
M  CHG  1  22   1
M  END
>  <i_m_ct_stereo_status>  (221) 
1

>  <s_m_source_file>  (221) 
/var/tmp/pbs.5076255.sched01/tmpbaygurib/766rrai79r.sdf

>  <i_m_source_file_index>  (221) 
18

>  <i_lp_mmshare_version>  (221) 
48012

>  <i_f3d_flags>  (221) 
2

>  <s_epik_input>  (221) 
W0NASF0xMltDSDJdW0NIMl1bQ0gyXU9bQ0BASF0oW0NASF0zT1tDQEBIXTRbQ0gyXTUpW0NAQF0xKFtDSDNdKVtDQEBIXShbQ0BASF02TihbQ0gyXVtDSDJdNylbQ0gyXVtDSF04W0NIMl1bQ0gyXTgpYzljKFtPSF0pW2NIXVtjSF1jNWM5W0NAQF0zN0MyNDY=

>  <s_epik_cmdline>  (221) 
J2VwaWtfcHl0aG9uJywgJy1waHQnLCAnMi4wJywgJy1waCcsICc3LjAnLCAnLXRuJywgJzgnLCAnLW1hJywgJzIwMCcsICctaW1hZScsICc8aW5maWxlLm1hZT4nLCAnLW9tYWUnLCAnPG91dGZpbGUubWFlPic=

>  <r_lp_tautomer_probability>  (221) 
1

>  <r_epik_Ionization_Penalty>  (221) 
0.0101717

>  <r_epik_Ionization_Penalty_Charging>  (221) 
0.00971372

>  <r_epik_Ionization_Penalty_Neutral>  (221) 
0.00045801

>  <r_epik_State_Penalty>  (221) 
0.00739128

>  <r_epik_Charging_Adjusted_Penalty>  (221) 
0.017105

>  <i_epik_Tot_Q>  (221) 
1

>  <i_epik_Tot_abs_Q>  (221) 
1

>  <s_lp_Force_Field>  (221) 
OPLS3e

>  <r_lp_Energy>  (221) 
592.751

>  <b_lp_Chiralities_Consistent>  (221) 
0

>  <s_lp_Variant>  (221) 
66:0-1

>  <s_i_glide_gridfile>  (221) 
pfpi4k_grid

>  <i_i_glide_lignum>  (221) 
18

>  <i_i_glide_rotatable_bonds>  (221) 
3

>  <r_i_docking_score>  (221) 
-3.44144

>  <r_i_glide_ligand_efficiency>  (221) 
-0.114715

>  <r_i_glide_ligand_efficiency_sa>  (221) 
-0.356445

>  <r_i_glide_ligand_efficiency_ln>  (221) 
-0.781932

>  <r_i_glide_gscore>  (221) 
-3.44144

>  <r_i_glide_lipo>  (221) 
-0.0939965

>  <r_i_glide_hbond>  (221) 
-0.316182

>  <r_i_glide_metal>  (221) 
-0

>  <r_i_glide_rewards>  (221) 
-0.637246

>  <r_i_glide_evdw>  (221) 
-22.7755

>  <r_i_glide_ecoul>  (221) 
-9.95457

>  <r_i_glide_erotb>  (221) 
0.237949

>  <r_i_glide_esite>  (221) 
0

>  <r_i_glide_emodel>  (221) 
-40.5902

>  <r_i_glide_energy>  (221) 
-32.7301

>  <r_i_glide_einternal>  (221) 
3.15671

>  <r_i_glide_intrahb_reward>  (221) 
-0

>  <i_i_glide_confnum>  (221) 
2

>  <i_i_glide_posenum>  (221) 
33

>  <r_i_glide_eff_state_penalty>  (221) 
0

>  <ligand_id>  (221) 
66

>  <original_smiles>  (221) 
CC12C3OCCCC1C14C5Cc6ccc(O)c7c6C1(CCN(CC1CC1)C4C72)C3O5

>  <smiles>  (221) 
[H]Oc1c([H])c([H])c2c3c1C1([H])C4(C([H])([H])[H])C5([H])OC([H])([H])C([H])([H])C([H])([H])C4([H])C46C([H])(OC5([H])C34C([H])([H])C([H])([H])[N+]([H])(C([H])([H])C3([H])C([H])([H])C3([H])[H])C16[H])C2([H])[H]

$$$$
66:1:0
     RDKit          3D

 61 69  0  0  1  0  0  0  0  0999 V2000
    2.1044   -3.2075    5.5801 C   0  0  0  0  0  0  0  0  0  0  0  0
    2.7446   -4.1545    4.5424 C   0  0  1  0  0  0  0  0  0  0  0  0
    4.2086   -3.8523    4.2580 C   0  0  1  0  0  0  0  0  0  0  0  0
    5.0071   -3.4384    5.3748 O   0  0  0  0  0  0  0  0  0  0  0  0
    5.5351   -4.3861    6.2905 C   0  0  0  0  0  0  0  0  0  0  0  0
    4.4720   -5.2065    7.0221 C   0  0  0  0  0  0  0  0  0  0  0  0
    3.7387   -6.2123    6.1290 C   0  0  0  0  0  0  0  0  0  0  0  0
    2.8538   -5.6713    4.9618 C   0  0  2  0  0  0  0  0  0  0  0  0
    3.0027   -6.4123    3.5545 C   0  0  1  0  0  0  0  0  0  0  0  0
    4.7070   -6.7577    2.9235 C   0  0  1  0  0  0  0  0  0  0  0  0
    5.4993   -6.1925    1.3402 C   0  0  0  0  0  0  0  0  0  0  0  0
    4.6522   -4.8695    0.7608 C   0  0  0  0  0  0  0  0  0  0  0  0
    4.9057   -3.6931    0.0133 C   0  0  0  0  0  0  0  0  0  0  0  0
    4.0166   -2.5644    0.1494 C   0  0  0  0  0  0  0  0  0  0  0  0
    2.9311   -2.5111    1.1023 C   0  0  0  0  0  0  0  0  0  0  0  0
    2.2102   -1.3709    1.2825 O   0  0  0  0  0  0  0  0  0  0  0  0
    2.6457   -3.6703    1.8759 C   0  0  0  0  0  0  0  0  0  0  0  0
    3.5257   -4.6735    1.5920 C   0  0  0  0  0  0  0  0  0  0  0  0
    3.4927   -5.8054    2.4031 C   0  0  2  0  0  0  0  0  0  0  0  0
    2.9521   -6.9286    1.2515 C   0  0  0  0  0  0  0  0  0  0  0  0
    1.5094   -6.5879    0.8420 C   0  0  0  0  0  0  0  0  0  0  0  0
    0.7483   -6.2337    2.0290 N   0  0  0  0  0  0  0  0  0  0  0  0
   -0.2235   -7.2703    2.4104 C   0  0  0  0  0  0  0  0  0  0  0  0
    0.3654   -8.6619    2.6312 C   0  0  0  0  0  0  0  0  0  0  0  0
   -0.5333   -9.8716    2.5836 C   0  0  0  0  0  0  0  0  0  0  0  0
    0.0760   -9.4322    3.8940 C   0  0  0  0  0  0  0  0  0  0  0  0
    1.5901   -5.6824    3.1215 C   0  0  2  0  0  0  0  0  0  0  0  0
    1.8626   -4.1077    3.1843 C   0  0  1  0  0  0  0  0  0  0  0  0
    4.7353   -4.9926    3.3266 C   0  0  2  0  0  0  0  0  0  0  0  0
    5.4172   -6.0441    3.8522 O   0  0  0  0  0  0  0  0  0  0  0  0
    2.0011   -2.2029    5.1732 H   0  0  0  0  0  0  0  0  0  0  0  0
    2.6920   -3.1072    6.4855 H   0  0  0  0  0  0  0  0  0  0  0  0
    1.1107   -3.5458    5.8694 H   0  0  0  0  0  0  0  0  0  0  0  0
    4.2141   -2.9269    3.6833 H   0  0  0  0  0  0  0  0  0  0  0  0
    6.2893   -5.0191    5.8268 H   0  0  0  0  0  0  0  0  0  0  0  0
    6.0738   -3.8047    7.0386 H   0  0  0  0  0  0  0  0  0  0  0  0
    4.9825   -5.7798    7.7959 H   0  0  0  0  0  0  0  0  0  0  0  0
    3.7803   -4.5707    7.5694 H   0  0  0  0  0  0  0  0  0  0  0  0
    4.4423   -6.9645    5.7735 H   0  0  0  0  0  0  0  0  0  0  0  0
    3.0903   -6.7856    6.7951 H   0  0  0  0  0  0  0  0  0  0  0  0
    1.8986   -5.9051    5.4349 H   0  0  0  0  0  0  0  0  0  0  0  0
    4.9675   -7.8066    3.1033 H   0  0  0  0  0  0  0  0  0  0  0  0
    6.5457   -5.9214    1.4953 H   0  0  0  0  0  0  0  0  0  0  0  0
    5.5101   -6.9861    0.5863 H   0  0  0  0  0  0  0  0  0  0  0  0
    5.7798   -3.6287   -0.6120 H   0  0  0  0  0  0  0  0  0  0  0  0
    4.2316   -1.6739   -0.4223 H   0  0  0  0  0  0  0  0  0  0  0  0
    1.7758   -1.0791    0.4632 H   0  0  0  0  0  0  0  0  0  0  0  0
    3.4761   -6.9820    0.2972 H   0  0  0  0  0  0  0  0  0  0  0  0
    3.0383   -7.9541    1.6141 H   0  0  0  0  0  0  0  0  0  0  0  0
    1.5310   -5.7321    0.1660 H   0  0  0  0  0  0  0  0  0  0  0  0
    1.0150   -7.4002    0.3045 H   0  0  0  0  0  0  0  0  0  0  0  0
   -0.7829   -6.9591    3.2958 H   0  0  0  0  0  0  0  0  0  0  0  0
   -0.9578   -7.3389    1.6069 H   0  0  0  0  0  0  0  0  0  0  0  0
    1.3139   -8.8619    2.1444 H   0  0  0  0  0  0  0  0  0  0  0  0
   -1.5985   -9.7157    2.4055 H   0  0  0  0  0  0  0  0  0  0  0  0
   -0.1017  -10.7370    2.0848 H   0  0  0  0  0  0  0  0  0  0  0  0
    0.9211   -9.9925    4.2865 H   0  0  0  0  0  0  0  0  0  0  0  0
   -0.5661   -8.9603    4.6402 H   0  0  0  0  0  0  0  0  0  0  0  0
    0.8267   -5.8005    3.8892 H   0  0  0  0  0  0  0  0  0  0  0  0
    0.9359   -3.5417    3.2778 H   0  0  0  0  0  0  0  0  0  0  0  0
    5.5516   -4.4107    2.8770 H   0  0  0  0  0  0  0  0  0  0  0  0
  2  1  1  1
  1 31  1  0
  1 32  1  0
  1 33  1  0
  2  8  1  0
  2 28  1  0
  2  3  1  0
  3 29  1  0
  3  4  1  0
  3 34  1  6
  4  5  1  0
  5  6  1  0
  5 35  1  0
  5 36  1  0
  6  7  1  0
  6 37  1  0
  6 38  1  0
  7  8  1  0
  7 39  1  0
  7 40  1  0
  8  9  1  0
  8 41  1  1
  9 19  1  6
  9 27  1  0
  9 10  1  0
 10 30  1  0
 10 11  1  0
 10 42  1  1
 11 12  1  0
 11 43  1  0
 11 44  1  0
 12 18  2  0
 12 13  1  0
 13 14  2  0
 13 45  1  0
 14 15  1  0
 14 46  1  0
 15 16  1  0
 15 17  2  0
 16 47  1  0
 17 28  1  0
 17 18  1  0
 18 19  1  0
 19 20  1  6
 19 29  1  0
 20 21  1  0
 20 48  1  0
 20 49  1  0
 21 22  1  0
 21 50  1  0
 21 51  1  0
 22 23  1  0
 22 27  1  0
 23 24  1  0
 23 52  1  0
 23 53  1  0
 24 26  1  0
 24 25  1  0
 24 54  1  0
 25 26  1  0
 25 55  1  0
 25 56  1  0
 26 57  1  0
 26 58  1  0
 27 28  1  0
 27 59  1  1
 28 60  1  1
 29 30  1  0
 29 61  1  6
M  END
>  <i_m_ct_stereo_status>  (222) 
1

>  <s_m_source_file>  (222) 
/var/tmp/pbs.5076255.sched01/tmpbaygurib/766rrai79r.sdf

>  <i_m_source_file_index>  (222) 
19

>  <i_lp_mmshare_version>  (222) 
48012

>  <i_f3d_flags>  (222) 
2

>  <s_epik_input>  (222) 
W0NASF0xMltDSDJdW0NIMl1bQ0gyXU9bQ0BASF0oW0NASF0zT1tDQEBIXTRbQ0gyXTUpW0NAQF0xKFtDSDNdKVtDQEBIXShbQ0BASF02TihbQ0gyXVtDSDJdNylbQ0gyXVtDSF04W0NIMl1bQ0gyXTgpYzljKFtPSF0pW2NIXVtjSF1jNWM5W0NAQF0zN0MyNDY=

>  <s_epik_cmdline>  (222) 
J2VwaWtfcHl0aG9uJywgJy1waHQnLCAnMi4wJywgJy1waCcsICc3LjAnLCAnLXRuJywgJzgnLCAnLW1hJywgJzIwMCcsICctaW1hZScsICc8aW5maWxlLm1hZT4nLCAnLW9tYWUnLCAnPG91dGZpbGUubWFlPic=

>  <r_lp_tautomer_probability>  (222) 
1

>  <r_epik_Ionization_Penalty>  (222) 
2.44045

>  <r_epik_Ionization_Penalty_Charging>  (222) 
0

>  <r_epik_Ionization_Penalty_Neutral>  (222) 
2.44045

>  <r_epik_State_Penalty>  (222) 
2.60116

>  <r_epik_Charging_Adjusted_Penalty>  (222) 
2.60116

>  <i_epik_Tot_Q>  (222) 
0

>  <i_epik_Tot_abs_Q>  (222) 
0

>  <s_lp_Force_Field>  (222) 
OPLS3e

>  <r_lp_Energy>  (222) 
586.62

>  <b_lp_Chiralities_Consistent>  (222) 
0

>  <s_lp_Variant>  (222) 
66:0-2

>  <s_i_glide_gridfile>  (222) 
pfpi4k_grid

>  <i_i_glide_lignum>  (222) 
19

>  <i_i_glide_rotatable_bonds>  (222) 
3

>  <r_i_docking_score>  (222) 
-2.67567

>  <r_i_glide_ligand_efficiency>  (222) 
-0.0891891

>  <r_i_glide_ligand_efficiency_sa>  (222) 
-0.277131

>  <r_i_glide_ligand_efficiency_ln>  (222) 
-0.607942

>  <r_i_glide_gscore>  (222) 
-2.67567

>  <r_i_glide_lipo>  (222) 
-0.258125

>  <r_i_glide_hbond>  (222) 
-0.236677

>  <r_i_glide_metal>  (222) 
-0

>  <r_i_glide_rewards>  (222) 
-0.644119

>  <r_i_glide_evdw>  (222) 
-18.4931

>  <r_i_glide_ecoul>  (222) 
-5.6741

>  <r_i_glide_erotb>  (222) 
0.239016

>  <r_i_glide_esite>  (222) 
0

>  <r_i_glide_emodel>  (222) 
-24.9942

>  <r_i_glide_energy>  (222) 
-24.1672

>  <r_i_glide_einternal>  (222) 
5.35076

>  <r_i_glide_intrahb_reward>  (222) 
-0

>  <i_i_glide_confnum>  (222) 
3

>  <i_i_glide_posenum>  (222) 
13

>  <r_i_glide_eff_state_penalty>  (222) 
0

>  <ligand_id>  (222) 
66

>  <original_smiles>  (222) 
CC12C3OCCCC1C14C5Cc6ccc(O)c7c6C1(CCN(CC1CC1)C4C72)C3O5

>  <smiles>  (222) 
[H]Oc1c([H])c([H])c2c3c1C1([H])C4([H])N(C([H])([H])C5([H])C([H])([H])C5([H])[H])C([H])([H])C([H])([H])C35C3([H])OC([H])(C2([H])[H])C45C2([H])C([H])([H])C([H])([H])C([H])([H])OC3([H])C12C([H])([H])[H]

$$$$
66:1:1
     RDKit          3D

 61 69  0  0  1  0  0  0  0  0999 V2000
    1.9795   -4.8885    6.1329 C   0  0  0  0  0  0  0  0  0  0  0  0
    2.7262   -5.0532    4.7901 C   0  0  1  0  0  0  0  0  0  0  0  0
    4.0474   -4.3034    4.7253 C   0  0  1  0  0  0  0  0  0  0  0  0
    4.8239   -4.2705    5.9293 O   0  0  0  0  0  0  0  0  0  0  0  0
    5.6403   -5.3680    6.3106 C   0  0  0  0  0  0  0  0  0  0  0  0
    4.8708   -6.6701    6.5356 C   0  0  0  0  0  0  0  0  0  0  0  0
    4.3141   -7.2928    5.2518 C   0  0  0  0  0  0  0  0  0  0  0  0
    3.2249   -6.5117    4.4514 C   0  0  2  0  0  0  0  0  0  0  0  0
    3.4103   -6.4509    2.8658 C   0  0  1  0  0  0  0  0  0  0  0  0
    5.0840   -6.0319    2.1931 C   0  0  1  0  0  0  0  0  0  0  0  0
    5.5701   -4.6218    1.0844 C   0  0  0  0  0  0  0  0  0  0  0  0
    4.3890   -3.4420    1.1682 C   0  0  0  0  0  0  0  0  0  0  0  0
    4.2969   -2.0257    1.0876 C   0  0  0  0  0  0  0  0  0  0  0  0
    3.1872   -1.3497    1.7145 C   0  0  0  0  0  0  0  0  0  0  0  0
    2.2100   -2.0270    2.5316 C   0  0  0  0  0  0  0  0  0  0  0  0
    1.2593   -1.3284    3.2086 O   0  0  0  0  0  0  0  0  0  0  0  0
    2.2739   -3.4335    2.6572 C   0  0  0  0  0  0  0  0  0  0  0  0
    3.3299   -3.9392    1.9584 C   0  0  0  0  0  0  0  0  0  0  0  0
    3.6356   -5.2906    2.1424 C   0  0  2  0  0  0  0  0  0  0  0  0
    3.2668   -5.8889    0.5961 C   0  0  0  0  0  0  0  0  0  0  0  0
    1.7715   -5.7334    0.3442 C   0  0  0  0  0  0  0  0  0  0  0  0
    1.0312   -6.1241    1.5391 N   0  0  0  0  0  0  0  0  0  0  0  0
    0.3948   -7.4376    1.3706 C   0  0  0  0  0  0  0  0  0  0  0  0
   -0.7261   -7.6384    2.3796 C   0  0  0  0  0  0  0  0  0  0  0  0
   -0.5415   -8.6163    3.5147 C   0  0  0  0  0  0  0  0  0  0  0  0
   -1.5198   -8.9253    2.4107 C   0  0  0  0  0  0  0  0  0  0  0  0
    1.8341   -5.9711    2.7838 C   0  0  2  0  0  0  0  0  0  0  0  0
    1.7394   -4.6005    3.5875 C   0  0  1  0  0  0  0  0  0  0  0  0
    4.7347   -4.7176    3.3805 C   0  0  2  0  0  0  0  0  0  0  0  0
    5.6914   -5.6804    3.3672 O   0  0  0  0  0  0  0  0  0  0  0  0
    1.6064   -3.8720    6.2491 H   0  0  0  0  0  0  0  0  0  0  0  0
    2.6065   -5.0790    6.9973 H   0  0  0  0  0  0  0  0  0  0  0  0
    1.1233   -5.5592    6.1988 H   0  0  0  0  0  0  0  0  0  0  0  0
    3.7867   -3.2481    4.6562 H   0  0  0  0  0  0  0  0  0  0  0  0
    6.4767   -5.5035    5.6275 H   0  0  0  0  0  0  0  0  0  0  0  0
    6.0935   -5.0866    7.2616 H   0  0  0  0  0  0  0  0  0  0  0  0
    5.5692   -7.3900    6.9626 H   0  0  0  0  0  0  0  0  0  0  0  0
    4.1015   -6.5565    7.2960 H   0  0  0  0  0  0  0  0  0  0  0  0
    5.1370   -7.5931    4.6050 H   0  0  0  0  0  0  0  0  0  0  0  0
    3.8818   -8.2509    5.5489 H   0  0  0  0  0  0  0  0  0  0  0  0
    2.4022   -7.1692    4.7331 H   0  0  0  0  0  0  0  0  0  0  0  0
    5.6009   -6.9391    1.8636 H   0  0  0  0  0  0  0  0  0  0  0  0
    6.5298   -4.1986    1.3840 H   0  0  0  0  0  0  0  0  0  0  0  0
    5.7019   -4.9392    0.0475 H   0  0  0  0  0  0  0  0  0  0  0  0
    5.0737   -1.4585    0.5993 H   0  0  0  0  0  0  0  0  0  0  0  0
    3.1339   -0.2741    1.6355 H   0  0  0  0  0  0  0  0  0  0  0  0
    0.6805   -1.8917    3.6936 H   0  0  0  0  0  0  0  0  0  0  0  0
    3.7199   -5.4094   -0.2704 H   0  0  0  0  0  0  0  0  0  0  0  0
    3.5293   -6.9456    0.4852 H   0  0  0  0  0  0  0  0  0  0  0  0
    1.5762   -4.6782    0.1487 H   0  0  0  0  0  0  0  0  0  0  0  0
    1.4512   -6.2578   -0.5555 H   0  0  0  0  0  0  0  0  0  0  0  0
   -0.0763   -7.4810    0.3886 H   0  0  0  0  0  0  0  0  0  0  0  0
    1.1184   -8.2547    1.4314 H   0  0  0  0  0  0  0  0  0  0  0  0
   -1.3014   -6.7409    2.5943 H   0  0  0  0  0  0  0  0  0  0  0  0
    0.4000   -9.1627    3.5356 H   0  0  0  0  0  0  0  0  0  0  0  0
   -0.9430   -8.3365    4.4868 H   0  0  0  0  0  0  0  0  0  0  0  0
   -2.5775   -8.8689    2.6612 H   0  0  0  0  0  0  0  0  0  0  0  0
   -1.2518   -9.6963    1.6910 H   0  0  0  0  0  0  0  0  0  0  0  0
    1.2086   -6.6102    3.3953 H   0  0  0  0  0  0  0  0  0  0  0  0
    0.7185   -4.3982    3.9043 H   0  0  0  0  0  0  0  0  0  0  0  0
    5.3476   -3.8128    3.2825 H   0  0  0  0  0  0  0  0  0  0  0  0
  2  1  1  1
  1 31  1  0
  1 32  1  0
  1 33  1  0
  2  8  1  0
  2 28  1  0
  2  3  1  0
  3 29  1  0
  3  4  1  0
  3 34  1  6
  4  5  1  0
  5  6  1  0
  5 35  1  0
  5 36  1  0
  6  7  1  0
  6 37  1  0
  6 38  1  0
  7  8  1  0
  7 39  1  0
  7 40  1  0
  8  9  1  0
  8 41  1  6
  9 19  1  1
  9 27  1  0
  9 10  1  0
 10 30  1  0
 10 11  1  0
 10 42  1  6
 11 12  1  0
 11 43  1  0
 11 44  1  0
 12 18  2  0
 12 13  1  0
 13 14  2  0
 13 45  1  0
 14 15  1  0
 14 46  1  0
 15 16  1  0
 15 17  2  0
 16 47  1  0
 17 28  1  0
 17 18  1  0
 18 19  1  0
 19 20  1  6
 19 29  1  0
 20 21  1  0
 20 48  1  0
 20 49  1  0
 21 22  1  0
 21 50  1  0
 21 51  1  0
 22 23  1  0
 22 27  1  0
 23 24  1  0
 23 52  1  0
 23 53  1  0
 24 26  1  0
 24 25  1  0
 24 54  1  0
 25 26  1  0
 25 55  1  0
 25 56  1  0
 26 57  1  0
 26 58  1  0
 27 28  1  0
 27 59  1  1
 28 60  1  1
 29 30  1  0
 29 61  1  6
M  END
>  <i_m_ct_stereo_status>  (223) 
1

>  <s_m_source_file>  (223) 
/var/tmp/pbs.5076255.sched01/tmpbaygurib/766rrai79r.sdf

>  <i_m_source_file_index>  (223) 
19

>  <i_lp_mmshare_version>  (223) 
48012

>  <i_f3d_flags>  (223) 
2

>  <s_epik_input>  (223) 
W0NASF0xMltDSDJdW0NIMl1bQ0gyXU9bQ0BASF0oW0NASF0zT1tDQEBIXTRbQ0gyXTUpW0NAQF0xKFtDSDNdKVtDQEBIXShbQ0BASF02TihbQ0gyXVtDSDJdNylbQ0gyXVtDSF04W0NIMl1bQ0gyXTgpYzljKFtPSF0pW2NIXVtjSF1jNWM5W0NAQF0zN0MyNDY=

>  <s_epik_cmdline>  (223) 
J2VwaWtfcHl0aG9uJywgJy1waHQnLCAnMi4wJywgJy1waCcsICc3LjAnLCAnLXRuJywgJzgnLCAnLW1hJywgJzIwMCcsICctaW1hZScsICc8aW5maWxlLm1hZT4nLCAnLW9tYWUnLCAnPG91dGZpbGUubWFlPic=

>  <r_lp_tautomer_probability>  (223) 
1

>  <r_epik_Ionization_Penalty>  (223) 
2.44045

>  <r_epik_Ionization_Penalty_Charging>  (223) 
0

>  <r_epik_Ionization_Penalty_Neutral>  (223) 
2.44045

>  <r_epik_State_Penalty>  (223) 
2.60116

>  <r_epik_Charging_Adjusted_Penalty>  (223) 
2.60116

>  <i_epik_Tot_Q>  (223) 
0

>  <i_epik_Tot_abs_Q>  (223) 
0

>  <s_lp_Force_Field>  (223) 
OPLS3e

>  <r_lp_Energy>  (223) 
586.62

>  <b_lp_Chiralities_Consistent>  (223) 
0

>  <s_lp_Variant>  (223) 
66:0-2

>  <s_i_glide_gridfile>  (223) 
pfpi4k_grid

>  <i_i_glide_lignum>  (223) 
19

>  <i_i_glide_rotatable_bonds>  (223) 
3

>  <r_i_docking_score>  (223) 
-2.21025

>  <r_i_glide_ligand_efficiency>  (223) 
-0.0736749

>  <r_i_glide_ligand_efficiency_sa>  (223) 
-0.228925

>  <r_i_glide_ligand_efficiency_ln>  (223) 
-0.502192

>  <r_i_glide_gscore>  (223) 
-2.21025

>  <r_i_glide_lipo>  (223) 
-0.314

>  <r_i_glide_hbond>  (223) 
-0.158741

>  <r_i_glide_metal>  (223) 
-0

>  <r_i_glide_rewards>  (223) 
-0.644119

>  <r_i_glide_evdw>  (223) 
-19.8132

>  <r_i_glide_ecoul>  (223) 
-2.27829

>  <r_i_glide_erotb>  (223) 
0.239016

>  <r_i_glide_esite>  (223) 
0

>  <r_i_glide_emodel>  (223) 
-25.8363

>  <r_i_glide_energy>  (223) 
-22.0915

>  <r_i_glide_einternal>  (223) 
0.185298

>  <r_i_glide_intrahb_reward>  (223) 
-0

>  <i_i_glide_confnum>  (223) 
3

>  <i_i_glide_posenum>  (223) 
37

>  <r_i_glide_eff_state_penalty>  (223) 
0

>  <ligand_id>  (223) 
66

>  <original_smiles>  (223) 
CC12C3OCCCC1C14C5Cc6ccc(O)c7c6C1(CCN(CC1CC1)C4C72)C3O5

>  <smiles>  (223) 
[H]Oc1c([H])c([H])c2c3c1C1([H])C4([H])N(C([H])([H])C5([H])C([H])([H])C5([H])[H])C([H])([H])C([H])([H])C35C3([H])OC([H])(C2([H])[H])C45C2([H])C([H])([H])C([H])([H])C([H])([H])OC3([H])C12C([H])([H])[H]

$$$$
66:1:2
     RDKit          3D

 61 69  0  0  1  0  0  0  0  0999 V2000
    2.4928   -4.1039    5.7665 C   0  0  0  0  0  0  0  0  0  0  0  0
    3.1891   -4.4020    4.4192 C   0  0  1  0  0  0  0  0  0  0  0  0
    4.4841   -3.6336    4.2102 C   0  0  1  0  0  0  0  0  0  0  0  0
    5.3105   -3.4457    5.3664 O   0  0  0  0  0  0  0  0  0  0  0  0
    6.1692   -4.4746    5.8361 C   0  0  0  0  0  0  0  0  0  0  0  0
    5.4474   -5.7604    6.2380 C   0  0  0  0  0  0  0  0  0  0  0  0
    4.8574   -6.5370    5.0574 C   0  0  0  0  0  0  0  0  0  0  0  0
    3.7157   -5.8766    4.2237 C   0  0  2  0  0  0  0  0  0  0  0  0
    3.8342   -5.9923    2.6332 C   0  0  1  0  0  0  0  0  0  0  0  0
    5.4625   -5.6125    1.8420 C   0  0  1  0  0  0  0  0  0  0  0  0
    5.8619   -4.3244    0.5627 C   0  0  0  0  0  0  0  0  0  0  0  0
    4.6538   -3.1706    0.5670 C   0  0  0  0  0  0  0  0  0  0  0  0
    4.5176   -1.7765    0.3328 C   0  0  0  0  0  0  0  0  0  0  0  0
    3.4164   -1.0619    0.9300 C   0  0  0  0  0  0  0  0  0  0  0  0
    2.4926   -1.6650    1.8591 C   0  0  0  0  0  0  0  0  0  0  0  0
    1.5385   -0.9172    2.4795 O   0  0  0  0  0  0  0  0  0  0  0  0
    2.6079   -3.0449    2.1431 C   0  0  0  0  0  0  0  0  0  0  0  0
    3.6458   -3.6014    1.4564 C   0  0  0  0  0  0  0  0  0  0  0  0
    3.9920   -4.9169    1.7735 C   0  0  2  0  0  0  0  0  0  0  0  0
    3.5743   -5.6905    0.3216 C   0  0  0  0  0  0  0  0  0  0  0  0
    2.0632   -5.6000    0.1244 C   0  0  0  0  0  0  0  0  0  0  0  0
    1.3940   -5.8721    1.3890 N   0  0  0  0  0  0  0  0  0  0  0  0
    0.7835   -7.2110    1.3982 C   0  0  0  0  0  0  0  0  0  0  0  0
   -0.2903   -7.3281    2.4753 C   0  0  0  0  0  0  0  0  0  0  0  0
   -0.4401   -8.6246    3.2365 C   0  0  0  0  0  0  0  0  0  0  0  0
   -1.5101   -8.1991    2.2686 C   0  0  0  0  0  0  0  0  0  0  0  0
    2.2451   -5.5624    2.5690 C   0  0  2  0  0  0  0  0  0  0  0  0
    2.1422   -4.1126    3.2181 C   0  0  1  0  0  0  0  0  0  0  0  0
    5.1251   -4.1818    2.8900 C   0  0  2  0  0  0  0  0  0  0  0  0
    6.1067   -5.1176    2.9421 O   0  0  0  0  0  0  0  0  0  0  0  0
    2.0950   -3.0901    5.7824 H   0  0  0  0  0  0  0  0  0  0  0  0
    3.1601   -4.1797    6.6181 H   0  0  0  0  0  0  0  0  0  0  0  0
    1.6593   -4.7826    5.9442 H   0  0  0  0  0  0  0  0  0  0  0  0
    4.1903   -2.5987    4.0364 H   0  0  0  0  0  0  0  0  0  0  0  0
    6.9812   -4.6734    5.1414 H   0  0  0  0  0  0  0  0  0  0  0  0
    6.6531   -4.0750    6.7275 H   0  0  0  0  0  0  0  0  0  0  0  0
    6.1842   -6.4104    6.7103 H   0  0  0  0  0  0  0  0  0  0  0  0
    4.7068   -5.5798    7.0136 H   0  0  0  0  0  0  0  0  0  0  0  0
    5.6600   -6.8895    4.4114 H   0  0  0  0  0  0  0  0  0  0  0  0
    4.4655   -7.4660    5.4782 H   0  0  0  0  0  0  0  0  0  0  0  0
    2.9258   -6.5182    4.6163 H   0  0  0  0  0  0  0  0  0  0  0  0
    5.9912   -6.5380    1.5930 H   0  0  0  0  0  0  0  0  0  0  0  0
    6.8220   -3.8482    0.7671 H   0  0  0  0  0  0  0  0  0  0  0  0
    5.9564   -4.7524   -0.4372 H   0  0  0  0  0  0  0  0  0  0  0  0
    5.2539   -1.2498   -0.2518 H   0  0  0  0  0  0  0  0  0  0  0  0
    3.3327   -0.0040    0.7280 H   0  0  0  0  0  0  0  0  0  0  0  0
    1.4603   -0.0506    2.1110 H   0  0  0  0  0  0  0  0  0  0  0  0
    3.9788   -5.2995   -0.6109 H   0  0  0  0  0  0  0  0  0  0  0  0
    3.8594   -6.7484    0.3087 H   0  0  0  0  0  0  0  0  0  0  0  0
    1.8114   -4.5821   -0.1797 H   0  0  0  0  0  0  0  0  0  0  0  0
    1.7241   -6.2534   -0.6811 H   0  0  0  0  0  0  0  0  0  0  0  0
    0.2819   -7.3937    0.4470 H   0  0  0  0  0  0  0  0  0  0  0  0
    1.5341   -7.9960    1.5188 H   0  0  0  0  0  0  0  0  0  0  0  0
   -0.4731   -6.4198    3.0462 H   0  0  0  0  0  0  0  0  0  0  0  0
    0.2056   -9.4512    2.9453 H   0  0  0  0  0  0  0  0  0  0  0  0
   -0.6641   -8.5562    4.2994 H   0  0  0  0  0  0  0  0  0  0  0  0
   -2.4517   -7.8498    2.6891 H   0  0  0  0  0  0  0  0  0  0  0  0
   -1.5891   -8.7376    1.3263 H   0  0  0  0  0  0  0  0  0  0  0  0
    1.6695   -6.1509    3.2732 H   0  0  0  0  0  0  0  0  0  0  0  0
    1.1293   -3.8927    3.5507 H   0  0  0  0  0  0  0  0  0  0  0  0
    5.7086   -3.2799    2.6645 H   0  0  0  0  0  0  0  0  0  0  0  0
  2  1  1  1
  1 31  1  0
  1 32  1  0
  1 33  1  0
  2  8  1  0
  2 28  1  0
  2  3  1  0
  3 29  1  0
  3  4  1  0
  3 34  1  6
  4  5  1  0
  5  6  1  0
  5 35  1  0
  5 36  1  0
  6  7  1  0
  6 37  1  0
  6 38  1  0
  7  8  1  0
  7 39  1  0
  7 40  1  0
  8  9  1  0
  8 41  1  1
  9 19  1  6
  9 27  1  0
  9 10  1  0
 10 30  1  0
 10 11  1  0
 10 42  1  6
 11 12  1  0
 11 43  1  0
 11 44  1  0
 12 18  2  0
 12 13  1  0
 13 14  2  0
 13 45  1  0
 14 15  1  0
 14 46  1  0
 15 16  1  0
 15 17  2  0
 16 47  1  0
 17 28  1  0
 17 18  1  0
 18 19  1  0
 19 20  1  6
 19 29  1  0
 20 21  1  0
 20 48  1  0
 20 49  1  0
 21 22  1  0
 21 50  1  0
 21 51  1  0
 22 23  1  0
 22 27  1  0
 23 24  1  0
 23 52  1  0
 23 53  1  0
 24 26  1  0
 24 25  1  0
 24 54  1  0
 25 26  1  0
 25 55  1  0
 25 56  1  0
 26 57  1  0
 26 58  1  0
 27 28  1  0
 27 59  1  1
 28 60  1  1
 29 30  1  0
 29 61  1  6
M  END
>  <i_m_ct_stereo_status>  (224) 
1

>  <s_m_source_file>  (224) 
/var/tmp/pbs.5076255.sched01/tmpbaygurib/766rrai79r.sdf

>  <i_m_source_file_index>  (224) 
19

>  <i_lp_mmshare_version>  (224) 
48012

>  <i_f3d_flags>  (224) 
2

>  <s_epik_input>  (224) 
W0NASF0xMltDSDJdW0NIMl1bQ0gyXU9bQ0BASF0oW0NASF0zT1tDQEBIXTRbQ0gyXTUpW0NAQF0xKFtDSDNdKVtDQEBIXShbQ0BASF02TihbQ0gyXVtDSDJdNylbQ0gyXVtDSF04W0NIMl1bQ0gyXTgpYzljKFtPSF0pW2NIXVtjSF1jNWM5W0NAQF0zN0MyNDY=

>  <s_epik_cmdline>  (224) 
J2VwaWtfcHl0aG9uJywgJy1waHQnLCAnMi4wJywgJy1waCcsICc3LjAnLCAnLXRuJywgJzgnLCAnLW1hJywgJzIwMCcsICctaW1hZScsICc8aW5maWxlLm1hZT4nLCAnLW9tYWUnLCAnPG91dGZpbGUubWFlPic=

>  <r_lp_tautomer_probability>  (224) 
1

>  <r_epik_Ionization_Penalty>  (224) 
2.44045

>  <r_epik_Ionization_Penalty_Charging>  (224) 
0

>  <r_epik_Ionization_Penalty_Neutral>  (224) 
2.44045

>  <r_epik_State_Penalty>  (224) 
2.60116

>  <r_epik_Charging_Adjusted_Penalty>  (224) 
2.60116

>  <i_epik_Tot_Q>  (224) 
0

>  <i_epik_Tot_abs_Q>  (224) 
0

>  <s_lp_Force_Field>  (224) 
OPLS3e

>  <r_lp_Energy>  (224) 
586.62

>  <b_lp_Chiralities_Consistent>  (224) 
0

>  <s_lp_Variant>  (224) 
66:0-2

>  <s_i_glide_gridfile>  (224) 
pfpi4k_grid

>  <i_i_glide_lignum>  (224) 
19

>  <i_i_glide_rotatable_bonds>  (224) 
3

>  <r_i_docking_score>  (224) 
-2.0747

>  <r_i_glide_ligand_efficiency>  (224) 
-0.0691567

>  <r_i_glide_ligand_efficiency_sa>  (224) 
-0.214886

>  <r_i_glide_ligand_efficiency_ln>  (224) 
-0.471394

>  <r_i_glide_gscore>  (224) 
-2.0747

>  <r_i_glide_lipo>  (224) 
-0.211535

>  <r_i_glide_hbond>  (224) 
-0.139848

>  <r_i_glide_metal>  (224) 
-0

>  <r_i_glide_rewards>  (224) 
-0.644119

>  <r_i_glide_evdw>  (224) 
-20.8496

>  <r_i_glide_ecoul>  (224) 
-1.83822

>  <r_i_glide_erotb>  (224) 
0.239016

>  <r_i_glide_esite>  (224) 
0

>  <r_i_glide_emodel>  (224) 
-25.8027

>  <r_i_glide_energy>  (224) 
-22.6878

>  <r_i_glide_einternal>  (224) 
0.932871

>  <r_i_glide_intrahb_reward>  (224) 
-0

>  <i_i_glide_confnum>  (224) 
3

>  <i_i_glide_posenum>  (224) 
12

>  <r_i_glide_eff_state_penalty>  (224) 
0

>  <ligand_id>  (224) 
66

>  <original_smiles>  (224) 
CC12C3OCCCC1C14C5Cc6ccc(O)c7c6C1(CCN(CC1CC1)C4C72)C3O5

>  <smiles>  (224) 
[H]Oc1c([H])c([H])c2c3c1C1([H])C4([H])N(C([H])([H])C5([H])C([H])([H])C5([H])[H])C([H])([H])C([H])([H])C35C3([H])OC([H])(C2([H])[H])C45C2([H])C([H])([H])C([H])([H])C([H])([H])OC3([H])C12C([H])([H])[H]

$$$$
67:0:0
     RDKit          3D

 51 56  0  0  1  0  0  0  0  0999 V2000
    8.9106   -3.6158    0.4820 C   0  0  0  0  0  0  0  0  0  0  0  0
    7.7781   -3.7667   -0.3384 O   0  0  0  0  0  0  0  0  0  0  0  0
    6.5744   -3.6566    0.3434 C   0  0  2  0  0  0  0  0  0  0  0  0
    6.1510   -4.8648    0.9140 O   0  0  0  0  0  0  0  0  0  0  0  0
    4.7236   -4.8432    1.0574 C   0  0  2  0  0  0  0  0  0  0  0  0
    3.9556   -5.9233    0.2881 C   0  0  0  0  0  0  0  0  0  0  0  0
    2.6226   -5.2225   -0.0331 C   0  0  1  0  0  0  0  0  0  0  0  0
    1.7959   -5.4181    1.0750 O   0  0  0  0  0  0  0  0  0  0  0  0
    2.9453   -3.7380   -0.3304 C   0  0  2  0  0  0  0  0  0  0  0  0
    3.2118   -3.4056   -1.8153 C   0  0  1  0  0  0  0  0  0  0  0  0
    2.3422   -2.4988   -2.6373 C   0  0  0  0  0  0  0  0  0  0  0  0
    3.3296   -1.6816   -3.4123 C   0  0  2  0  0  0  0  0  0  0  0  0
    2.6854   -0.5948   -4.3025 C   0  0  0  0  0  0  0  0  0  0  0  0
    3.9706   -2.8867   -4.3365 C   0  0  0  0  0  0  0  0  0  0  0  0
    4.8705   -4.1620   -3.6856 C   0  0  0  0  0  0  0  0  0  0  0  0
    5.6252   -4.0173   -2.1463 C   0  0  1  0  0  0  0  0  0  0  0  0
    4.7816   -2.9669   -1.9976 C   0  0  2  0  0  0  0  0  0  0  0  0
    5.2800   -1.8607   -1.2765 C   0  0  1  0  0  0  0  0  0  0  0  0
    4.1361   -0.9939   -2.1132 C   0  0  1  0  0  0  0  0  0  0  0  0
    4.7767    0.0935   -2.7012 O   0  0  0  0  0  0  0  0  0  0  0  0
    5.4400   -3.2901   -0.6203 C   0  0  2  0  0  0  0  0  0  0  0  0
    4.2813   -3.5458    0.4104 C   0  0  2  0  0  0  0  0  0  0  0  0
    4.0686   -2.4063    1.4430 C   0  0  0  0  0  0  0  0  0  0  0  0
    9.7938   -3.7590   -0.1515 H   0  0  0  0  0  0  0  0  0  0  0  0
    8.9486   -4.3284    1.3067 H   0  0  0  0  0  0  0  0  0  0  0  0
    8.9780   -2.6008    0.8717 H   0  0  0  0  0  0  0  0  0  0  0  0
    6.6819   -2.9061    1.1198 H   0  0  0  0  0  0  0  0  0  0  0  0
    4.4229   -4.8425    2.1030 H   0  0  0  0  0  0  0  0  0  0  0  0
    4.4903   -6.2138   -0.6197 H   0  0  0  0  0  0  0  0  0  0  0  0
    3.8012   -6.8225    0.8855 H   0  0  0  0  0  0  0  0  0  0  0  0
    1.9256   -5.6546   -0.7393 H   0  0  0  0  0  0  0  0  0  0  0  0
    2.1296   -4.8880    1.7762 H   0  0  0  0  0  0  0  0  0  0  0  0
    2.1502   -3.0723    0.0172 H   0  0  0  0  0  0  0  0  0  0  0  0
    2.9176   -4.2490   -2.3470 H   0  0  0  0  0  0  0  0  0  0  0  0
    1.5643   -2.9888   -3.2494 H   0  0  0  0  0  0  0  0  0  0  0  0
    1.8825   -1.8961   -1.8889 H   0  0  0  0  0  0  0  0  0  0  0  0
    3.3861   -0.0980   -4.9911 H   0  0  0  0  0  0  0  0  0  0  0  0
    2.2948    0.1854   -3.6543 H   0  0  0  0  0  0  0  0  0  0  0  0
    1.8484   -1.0049   -4.8660 H   0  0  0  0  0  0  0  0  0  0  0  0
    3.1728   -3.3279   -4.9215 H   0  0  0  0  0  0  0  0  0  0  0  0
    4.5927   -2.3010   -5.0009 H   0  0  0  0  0  0  0  0  0  0  0  0
    4.2410   -5.0409   -3.7730 H   0  0  0  0  0  0  0  0  0  0  0  0
    5.5963   -4.3496   -4.4852 H   0  0  0  0  0  0  0  0  0  0  0  0
    6.6579   -3.7502   -2.3610 H   0  0  0  0  0  0  0  0  0  0  0  0
    5.3954   -2.4438   -2.7709 H   0  0  0  0  0  0  0  0  0  0  0  0
    6.3111   -1.5397   -1.4878 H   0  0  0  0  0  0  0  0  0  0  0  0
    3.4637   -0.5537   -1.4077 H   0  0  0  0  0  0  0  0  0  0  0  0
    4.9906    0.7090   -2.0076 H   0  0  0  0  0  0  0  0  0  0  0  0
    3.8446   -1.4468    0.9685 H   0  0  0  0  0  0  0  0  0  0  0  0
    4.9147   -2.2761    2.1082 H   0  0  0  0  0  0  0  0  0  0  0  0
    3.2204   -2.6597    2.0723 H   0  0  0  0  0  0  0  0  0  0  0  0
  1  2  1  0
  1 24  1  0
  1 25  1  0
  1 26  1  0
  2  3  1  0
  3 21  1  0
  3  4  1  0
  3 27  1  1
  4  5  1  0
  5 22  1  0
  5  6  1  0
  5 28  1  1
  6  7  1  0
  6 29  1  0
  6 30  1  0
  7  8  1  0
  7  9  1  0
  7 31  1  6
  8 32  1  0
  9 22  1  0
  9 10  1  0
  9 33  1  1
 10 17  1  0
 10 11  1  0
 10 34  1  6
 11 12  1  0
 11 35  1  0
 11 36  1  0
 12 19  1  0
 12 13  1  6
 12 14  1  0
 13 37  1  0
 13 38  1  0
 13 39  1  0
 14 15  1  0
 14 40  1  0
 14 41  1  0
 15 16  1  0
 15 42  1  0
 15 43  1  0
 16 21  1  0
 16 17  1  0
 16 44  1  6
 17 18  1  0
 17 45  1  6
 18 19  1  0
 18 21  1  0
 18 46  1  6
 19 20  1  0
 19 47  1  1
 20 48  1  0
 21 22  1  1
 22 23  1  1
 23 49  1  0
 23 50  1  0
 23 51  1  0
M  END
>  <i_m_ct_stereo_status>  (225) 
1

>  <s_m_source_file>  (225) 
/var/tmp/pbs.5076255.sched01/tmpbaygurib/766rrai79r.sdf

>  <i_m_source_file_index>  (225) 
20

>  <i_lp_mmshare_version>  (225) 
48012

>  <i_f3d_flags>  (225) 
0

>  <s_epik_input>  (225) 
W0NIM11PW0NAQEhdMU9bQ0BIXShbQ0gyXVtDQEhdMltPSF0pW0NAXTMoW0NIM10pW0NASF0yW0NASF0oW0NIXTRbQ0BASF01W0NAXTEzNilbQ0gyXVtDQF0oW0NIM10pKFtDSDJdW0NIMl01KVtDQEBIXShbQ0hdNDYpW09IXQ==

>  <s_epik_cmdline>  (225) 
J2VwaWtfcHl0aG9uJywgJy1waHQnLCAnMi4wJywgJy1waCcsICc3LjAnLCAnLXRuJywgJzgnLCAnLW1hJywgJzIwMCcsICctaW1hZScsICc8aW5maWxlLm1hZT4nLCAnLW9tYWUnLCAnPG91dGZpbGUubWFlPic=

>  <r_lp_tautomer_probability>  (225) 
1

>  <r_epik_Ionization_Penalty>  (225) 
2.50202e-06

>  <r_epik_Ionization_Penalty_Charging>  (225) 
0

>  <r_epik_Ionization_Penalty_Neutral>  (225) 
2.50202e-06

>  <r_epik_State_Penalty>  (225) 
-0

>  <r_epik_Charging_Adjusted_Penalty>  (225) 
0

>  <i_epik_Tot_Q>  (225) 
0

>  <i_epik_Tot_abs_Q>  (225) 
0

>  <s_epik_Chemistry_Notes>  (225) 
This compound contains an acetal/aminal-like group ( X-CH(R)-Y where X, Y are N, S, or O) that may be acid/base labile, releasing an aldehyde.

>  <s_lp_Force_Field>  (225) 
OPLS3e

>  <r_lp_Energy>  (225) 
370.365

>  <b_lp_Chiralities_Consistent>  (225) 
1

>  <s_lp_Variant>  (225) 
67:0-1

>  <s_i_glide_gridfile>  (225) 
pfpi4k_grid

>  <i_i_glide_lignum>  (225) 
20

>  <i_i_glide_rotatable_bonds>  (225) 
3

>  <r_i_docking_score>  (225) 
-3.34659

>  <r_i_glide_ligand_efficiency>  (225) 
-0.145504

>  <r_i_glide_ligand_efficiency_sa>  (225) 
-0.413794

>  <r_i_glide_ligand_efficiency_ln>  (225) 
-0.809237

>  <r_i_glide_gscore>  (225) 
-3.34659

>  <r_i_glide_lipo>  (225) 
-0.697341

>  <r_i_glide_hbond>  (225) 
-0.418191

>  <r_i_glide_metal>  (225) 
-0

>  <r_i_glide_rewards>  (225) 
-1.36974

>  <r_i_glide_evdw>  (225) 
5.4649

>  <r_i_glide_ecoul>  (225) 
-7.56376

>  <r_i_glide_erotb>  (225) 
0

>  <r_i_glide_esite>  (225) 
0

>  <r_i_glide_emodel>  (225) 
-5.96476

>  <r_i_glide_energy>  (225) 
-2.09886

>  <r_i_glide_einternal>  (225) 
1.55549

>  <r_i_glide_intrahb_reward>  (225) 
-0

>  <i_i_glide_confnum>  (225) 
1

>  <i_i_glide_posenum>  (225) 
18

>  <r_i_glide_eff_state_penalty>  (225) 
0

>  <ligand_id>  (225) 
67

>  <original_smiles>  (225) 
COC1OC2CC(O)C3C4CC5(C)CCC6C4C(C5O)C16C23C

>  <smiles>  (225) 
[H]OC1([H])C([H])([H])C2([H])OC([H])(OC([H])([H])[H])C34C5([H])C([H])([H])C([H])([H])C6(C([H])([H])[H])C([H])([H])C([H])(C5([H])C3([H])C6([H])O[H])C1([H])C24C([H])([H])[H]

$$$$
68:0:0
     RDKit          3D

 52 56  0  0  1  0  0  0  0  0999 V2000
    5.3102   -5.6083    5.1369 C   0  0  0  0  0  0  0  0  0  0  0  0
    4.4661   -6.0639    3.9214 C   0  0  2  0  0  0  0  0  0  0  0  0
    5.2142   -7.0599    3.0761 C   0  0  0  0  0  0  0  0  0  0  0  0
    5.8894   -7.9597    3.5625 O   0  0  0  0  0  0  0  0  0  0  0  0
    5.0418   -6.8395    1.6062 C   0  0  0  0  0  0  0  0  0  0  0  0
    4.9654   -7.7977    0.8443 O   0  0  0  0  0  0  0  0  0  0  0  0
    4.8669   -5.3431    1.1029 C   0  0  2  0  0  0  0  0  0  0  0  0
    6.1878   -5.3160    0.3011 C   0  0  0  0  0  0  0  0  0  0  0  0
    7.0851   -4.5428    1.2349 C   0  0  0  0  0  0  0  0  0  0  0  0
    6.1358   -3.4385    1.6612 C   0  0  1  0  0  0  0  0  0  0  0  0
    5.8323   -2.4775    0.3713 C   0  0  0  0  0  0  0  0  0  0  0  0
    6.2311   -1.0360    0.8067 C   0  0  0  0  0  0  0  0  0  0  0  0
    6.7125   -2.5787   -0.9251 C   0  0  0  0  0  0  0  0  0  0  0  0
    4.3017   -2.5813   -0.1016 C   0  0  2  0  0  0  0  0  0  0  0  0
    3.4811   -1.9498    0.9628 C   0  0  0  0  0  0  0  0  0  0  0  0
    3.8813   -2.6386    2.2424 C   0  0  1  0  0  0  0  0  0  0  0  0
    2.7487   -2.3006    3.2742 C   0  0  0  0  0  0  0  0  0  0  0  0
    4.7485   -4.0541    2.1165 C   0  0  1  0  0  0  0  0  0  0  0  0
    3.8916   -4.8685    3.1145 C   0  0  1  0  0  0  0  0  0  0  0  0
    2.8259   -5.1659    1.9505 C   0  0  0  0  0  0  0  0  0  0  0  0
    1.6561   -5.4207    2.1412 O   0  0  0  0  0  0  0  0  0  0  0  0
    3.5204   -5.1965    0.5163 C   0  0  1  0  0  0  0  0  0  0  0  0
    3.5868   -3.9658   -0.4901 C   0  0  1  0  0  0  0  0  0  0  0  0
    2.1938   -3.7405   -1.0995 C   0  0  0  0  0  0  0  0  0  0  0  0
    5.5368   -6.4594    5.7851 H   0  0  0  0  0  0  0  0  0  0  0  0
    4.7739   -4.8755    5.7479 H   0  0  0  0  0  0  0  0  0  0  0  0
    6.2577   -5.1676    4.8233 H   0  0  0  0  0  0  0  0  0  0  0  0
    3.6124   -6.6022    4.3284 H   0  0  0  0  0  0  0  0  0  0  0  0
    6.7056   -6.2560    0.0799 H   0  0  0  0  0  0  0  0  0  0  0  0
    6.0391   -4.9343   -0.6861 H   0  0  0  0  0  0  0  0  0  0  0  0
    7.3725   -5.1561    2.0903 H   0  0  0  0  0  0  0  0  0  0  0  0
    8.0080   -4.2097    0.7696 H   0  0  0  0  0  0  0  0  0  0  0  0
    6.5492   -2.8595    2.4807 H   0  0  0  0  0  0  0  0  0  0  0  0
    5.8773   -0.2853    0.0996 H   0  0  0  0  0  0  0  0  0  0  0  0
    7.3161   -0.9348    0.8746 H   0  0  0  0  0  0  0  0  0  0  0  0
    5.8668   -0.7131    1.7814 H   0  0  0  0  0  0  0  0  0  0  0  0
    6.6745   -1.6389   -1.4697 H   0  0  0  0  0  0  0  0  0  0  0  0
    6.3439   -3.2605   -1.6873 H   0  0  0  0  0  0  0  0  0  0  0  0
    7.7725   -2.7778   -0.7521 H   0  0  0  0  0  0  0  0  0  0  0  0
    4.2133   -1.9344   -0.9756 H   0  0  0  0  0  0  0  0  0  0  0  0
    3.6749   -0.8813    1.0358 H   0  0  0  0  0  0  0  0  0  0  0  0
    2.4120   -2.0060    0.7856 H   0  0  0  0  0  0  0  0  0  0  0  0
    4.5996   -1.9905    2.7282 H   0  0  0  0  0  0  0  0  0  0  0  0
    1.8296   -2.8716    3.1163 H   0  0  0  0  0  0  0  0  0  0  0  0
    2.4708   -1.2499    3.1767 H   0  0  0  0  0  0  0  0  0  0  0  0
    3.0695   -2.4061    4.3146 H   0  0  0  0  0  0  0  0  0  0  0  0
    3.4163   -4.3199    3.9066 H   0  0  0  0  0  0  0  0  0  0  0  0
    3.2040   -6.0973   -0.0117 H   0  0  0  0  0  0  0  0  0  0  0  0
    4.1547   -4.3149   -1.3550 H   0  0  0  0  0  0  0  0  0  0  0  0
    1.4415   -3.5154   -0.3425 H   0  0  0  0  0  0  0  0  0  0  0  0
    1.8133   -4.6401   -1.5942 H   0  0  0  0  0  0  0  0  0  0  0  0
    2.1853   -2.9240   -1.8202 H   0  0  0  0  0  0  0  0  0  0  0  0
  1  2  1  0
  1 25  1  0
  1 26  1  0
  1 27  1  0
  2 19  1  0
  2  3  1  0
  2 28  1  1
  3  4  2  0
  3  5  1  0
  5  6  2  0
  5  7  1  0
 18  7  1  6
  7 22  1  0
  7  8  1  6
  8  9  1  0
  8 29  1  0
  8 30  1  0
  9 10  1  0
  9 31  1  0
  9 32  1  0
 10 18  1  0
 10 11  1  0
 10 33  1  1
 11 12  1  0
 11 13  1  0
 11 14  1  0
 12 34  1  0
 12 35  1  0
 12 36  1  0
 13 37  1  0
 13 38  1  0
 13 39  1  0
 14 23  1  0
 14 15  1  0
 14 40  1  6
 15 16  1  0
 15 41  1  0
 15 42  1  0
 16 17  1  0
 16 18  1  0
 16 43  1  1
 17 44  1  0
 17 45  1  0
 17 46  1  0
 18 19  1  0
 19 20  1  0
 19 47  1  1
 20 21  2  0
 20 22  1  0
 22 23  1  0
 22 48  1  6
 23 24  1  0
 23 49  1  6
 24 50  1  0
 24 51  1  0
 24 52  1  0
M  END
>  <i_m_ct_stereo_status>  (226) 
1

>  <s_m_source_file>  (226) 
/var/tmp/pbs.5076255.sched01/tmpbaygurib/766rrai79r.sdf

>  <i_m_source_file_index>  (226) 
21

>  <i_lp_mmshare_version>  (226) 
48012

>  <i_f3d_flags>  (226) 
2

>  <s_epik_input>  (226) 
Tz1DMUMoPU8pW0NAQEhdKFtDSDNdKVtDQEBIXTJDKD1PKVtDQEhdM1tDQEBIXShbQ0gzXSlbQ0BASF0oW0NIMl1bQ0BIXTRbQ0gzXSlDKFtDSDNdKShbQ0gzXSlbQ0BASF0oQzI0W0NAQF0xMzUpW0NIMl1bQ0gyXTU=

>  <s_epik_cmdline>  (226) 
J2VwaWtfcHl0aG9uJywgJy1waHQnLCAnMi4wJywgJy1waCcsICc3LjAnLCAnLXRuJywgJzgnLCAnLW1hJywgJzIwMCcsICctaW1hZScsICc8aW5maWxlLm1hZT4nLCAnLW9tYWUnLCAnPG91dGZpbGUubWFlPic=

>  <r_lp_tautomer_probability>  (226) 
1

>  <r_epik_Ionization_Penalty>  (226) 
5.52479e-12

>  <r_epik_Ionization_Penalty_Charging>  (226) 
0

>  <r_epik_Ionization_Penalty_Neutral>  (226) 
5.52479e-12

>  <r_epik_State_Penalty>  (226) 
-0

>  <r_epik_Charging_Adjusted_Penalty>  (226) 
0

>  <i_epik_Tot_Q>  (226) 
0

>  <i_epik_Tot_abs_Q>  (226) 
0

>  <s_lp_Force_Field>  (226) 
OPLS3e

>  <r_lp_Energy>  (226) 
218.571

>  <b_lp_Chiralities_Consistent>  (226) 
0

>  <s_lp_Variant>  (226) 
68:0-1

>  <s_i_glide_gridfile>  (226) 
pfpi4k_grid

>  <i_i_glide_lignum>  (226) 
21

>  <i_i_glide_rotatable_bonds>  (226) 
0

>  <r_i_docking_score>  (226) 
-2.95433

>  <r_i_glide_ligand_efficiency>  (226) 
-0.123097

>  <r_i_glide_ligand_efficiency_sa>  (226) 
-0.355073

>  <r_i_glide_ligand_efficiency_ln>  (226) 
-0.707106

>  <r_i_glide_gscore>  (226) 
-2.95433

>  <r_i_glide_lipo>  (226) 
-0.533538

>  <r_i_glide_hbond>  (226) 
-0.015001

>  <r_i_glide_metal>  (226) 
-0

>  <r_i_glide_rewards>  (226) 
-1.2626

>  <r_i_glide_evdw>  (226) 
-19.2367

>  <r_i_glide_ecoul>  (226) 
-1.16041

>  <r_i_glide_erotb>  (226) 
0

>  <r_i_glide_esite>  (226) 
-0.00728957

>  <r_i_glide_emodel>  (226) 
-23.5233

>  <r_i_glide_energy>  (226) 
-20.3971

>  <r_i_glide_einternal>  (226) 
0

>  <r_i_glide_intrahb_reward>  (226) 
-0

>  <i_i_glide_confnum>  (226) 
2

>  <i_i_glide_posenum>  (226) 
25

>  <r_i_glide_eff_state_penalty>  (226) 
0

>  <ligand_id>  (226) 
68

>  <original_smiles>  (226) 
CC1C(=O)C(=O)C23CCC4C(C)(C)C5CC(C)C42C1C(=O)C3C5C

>  <smiles>  (226) 
[H]C([H])([H])C1([H])C(=O)C(=O)C23C([H])([H])C([H])([H])C4([H])C(C([H])([H])[H])(C([H])([H])[H])C5([H])C([H])([H])C([H])(C([H])([H])[H])C42C1([H])C(=O)C3([H])C5([H])C([H])([H])[H]

$$$$
68:0:1
     RDKit          3D

 52 56  0  0  1  0  0  0  0  0999 V2000
    6.1901   -6.3256    2.5448 C   0  0  0  0  0  0  0  0  0  0  0  0
    6.4323   -5.5183    1.2455 C   0  0  2  0  0  0  0  0  0  0  0  0
    7.6180   -4.6082    1.3653 C   0  0  0  0  0  0  0  0  0  0  0  0
    8.6802   -4.9921    1.8304 O   0  0  0  0  0  0  0  0  0  0  0  0
    7.3829   -3.1918    0.8593 C   0  0  0  0  0  0  0  0  0  0  0  0
    8.2916   -2.5564    0.3326 O   0  0  0  0  0  0  0  0  0  0  0  0
    5.8921   -2.6301    0.8768 C   0  0  2  0  0  0  0  0  0  0  0  0
    6.1399   -1.4223    1.7964 C   0  0  0  0  0  0  0  0  0  0  0  0
    5.5698   -1.9597    3.1089 C   0  0  0  0  0  0  0  0  0  0  0  0
    4.2947   -2.6030    2.6589 C   0  0  1  0  0  0  0  0  0  0  0  0
    3.3272   -1.3819    2.1510 C   0  0  0  0  0  0  0  0  0  0  0  0
    1.9862   -1.5383    2.9543 C   0  0  0  0  0  0  0  0  0  0  0  0
    3.6135    0.1198    2.4959 C   0  0  0  0  0  0  0  0  0  0  0  0
    3.1586   -1.4349    0.5594 C   0  0  2  0  0  0  0  0  0  0  0  0
    2.3856   -2.6725    0.3063 C   0  0  0  0  0  0  0  0  0  0  0  0
    3.0542   -3.8176    0.9662 C   0  0  1  0  0  0  0  0  0  0  0  0
    2.4412   -5.1090    0.3171 C   0  0  0  0  0  0  0  0  0  0  0  0
    4.6149   -3.5235    1.4015 C   0  0  1  0  0  0  0  0  0  0  0  0
    5.1634   -4.8104    0.7399 C   0  0  1  0  0  0  0  0  0  0  0  0
    5.2012   -4.0646   -0.6941 C   0  0  0  0  0  0  0  0  0  0  0  0
    4.9996   -4.5815   -1.7499 O   0  0  0  0  0  0  0  0  0  0  0  0
    5.4589   -2.5022   -0.5251 C   0  0  1  0  0  0  0  0  0  0  0  0
    4.3172   -1.4072   -0.5552 C   0  0  1  0  0  0  0  0  0  0  0  0
    3.7607   -1.3125   -2.0033 C   0  0  0  0  0  0  0  0  0  0  0  0
    7.0647   -6.9364    2.7927 H   0  0  0  0  0  0  0  0  0  0  0  0
    5.3467   -7.0093    2.4349 H   0  0  0  0  0  0  0  0  0  0  0  0
    5.9907   -5.6766    3.4018 H   0  0  0  0  0  0  0  0  0  0  0  0
    6.7242   -6.2412    0.4836 H   0  0  0  0  0  0  0  0  0  0  0  0
    7.1601   -1.0937    1.9603 H   0  0  0  0  0  0  0  0  0  0  0  0
    5.7523   -0.5030    1.3906 H   0  0  0  0  0  0  0  0  0  0  0  0
    6.1426   -2.7506    3.5137 H   0  0  0  0  0  0  0  0  0  0  0  0
    5.4386   -1.1895    3.8752 H   0  0  0  0  0  0  0  0  0  0  0  0
    3.8369   -3.1573    3.4770 H   0  0  0  0  0  0  0  0  0  0  0  0
    1.1856   -0.9174    2.5494 H   0  0  0  0  0  0  0  0  0  0  0  0
    2.1277   -1.2437    3.9969 H   0  0  0  0  0  0  0  0  0  0  0  0
    1.5790   -2.5461    3.0128 H   0  0  0  0  0  0  0  0  0  0  0  0
    2.6919    0.7085    2.5074 H   0  0  0  0  0  0  0  0  0  0  0  0
    4.1831    0.6423    1.7322 H   0  0  0  0  0  0  0  0  0  0  0  0
    4.0663    0.2910    3.4703 H   0  0  0  0  0  0  0  0  0  0  0  0
    2.5462   -0.5673    0.3375 H   0  0  0  0  0  0  0  0  0  0  0  0
    1.4373   -2.5289    0.7927 H   0  0  0  0  0  0  0  0  0  0  0  0
    2.1749   -2.8661   -0.7502 H   0  0  0  0  0  0  0  0  0  0  0  0
    2.5528   -3.9707    1.9123 H   0  0  0  0  0  0  0  0  0  0  0  0
    2.7734   -5.2808   -0.7013 H   0  0  0  0  0  0  0  0  0  0  0  0
    1.3729   -4.9863    0.2222 H   0  0  0  0  0  0  0  0  0  0  0  0
    2.5850   -6.0192    0.9067 H   0  0  0  0  0  0  0  0  0  0  0  0
    4.5232   -5.6694    0.6864 H   0  0  0  0  0  0  0  0  0  0  0  0
    6.2560   -2.2051   -1.2059 H   0  0  0  0  0  0  0  0  0  0  0  0
    4.7802   -0.4241   -0.4236 H   0  0  0  0  0  0  0  0  0  0  0  0
    3.3993   -2.2642   -2.3976 H   0  0  0  0  0  0  0  0  0  0  0  0
    4.5367   -0.9599   -2.6809 H   0  0  0  0  0  0  0  0  0  0  0  0
    2.9161   -0.6294   -2.0765 H   0  0  0  0  0  0  0  0  0  0  0  0
  1  2  1  0
  1 25  1  0
  1 26  1  0
  1 27  1  0
  2 19  1  0
  2  3  1  0
  2 28  1  6
  3  4  2  0
  3  5  1  0
  5  6  2  0
  5  7  1  0
 18  7  1  6
  7 22  1  0
  7  8  1  1
  8  9  1  0
  8 29  1  0
  8 30  1  0
  9 10  1  0
  9 31  1  0
  9 32  1  0
 10 18  1  0
 10 11  1  0
 10 33  1  1
 11 12  1  0
 11 13  1  0
 11 14  1  0
 12 34  1  0
 12 35  1  0
 12 36  1  0
 13 37  1  0
 13 38  1  0
 13 39  1  0
 14 23  1  0
 14 15  1  0
 14 40  1  6
 15 16  1  0
 15 41  1  0
 15 42  1  0
 16 17  1  0
 16 18  1  0
 16 43  1  1
 17 44  1  0
 17 45  1  0
 17 46  1  0
 18 19  1  0
 19 20  1  0
 19 47  1  6
 20 21  2  0
 20 22  1  0
 22 23  1  0
 22 48  1  6
 23 24  1  0
 23 49  1  1
 24 50  1  0
 24 51  1  0
 24 52  1  0
M  END
>  <i_m_ct_stereo_status>  (227) 
1

>  <s_m_source_file>  (227) 
/var/tmp/pbs.5076255.sched01/tmpbaygurib/766rrai79r.sdf

>  <i_m_source_file_index>  (227) 
21

>  <i_lp_mmshare_version>  (227) 
48012

>  <i_f3d_flags>  (227) 
2

>  <s_epik_input>  (227) 
Tz1DMUMoPU8pW0NAQEhdKFtDSDNdKVtDQEBIXTJDKD1PKVtDQEhdM1tDQEBIXShbQ0gzXSlbQ0BASF0oW0NIMl1bQ0BIXTRbQ0gzXSlDKFtDSDNdKShbQ0gzXSlbQ0BASF0oQzI0W0NAQF0xMzUpW0NIMl1bQ0gyXTU=

>  <s_epik_cmdline>  (227) 
J2VwaWtfcHl0aG9uJywgJy1waHQnLCAnMi4wJywgJy1waCcsICc3LjAnLCAnLXRuJywgJzgnLCAnLW1hJywgJzIwMCcsICctaW1hZScsICc8aW5maWxlLm1hZT4nLCAnLW9tYWUnLCAnPG91dGZpbGUubWFlPic=

>  <r_lp_tautomer_probability>  (227) 
1

>  <r_epik_Ionization_Penalty>  (227) 
5.52479e-12

>  <r_epik_Ionization_Penalty_Charging>  (227) 
0

>  <r_epik_Ionization_Penalty_Neutral>  (227) 
5.52479e-12

>  <r_epik_State_Penalty>  (227) 
-0

>  <r_epik_Charging_Adjusted_Penalty>  (227) 
0

>  <i_epik_Tot_Q>  (227) 
0

>  <i_epik_Tot_abs_Q>  (227) 
0

>  <s_lp_Force_Field>  (227) 
OPLS3e

>  <r_lp_Energy>  (227) 
218.571

>  <b_lp_Chiralities_Consistent>  (227) 
0

>  <s_lp_Variant>  (227) 
68:0-1

>  <s_i_glide_gridfile>  (227) 
pfpi4k_grid

>  <i_i_glide_lignum>  (227) 
21

>  <i_i_glide_rotatable_bonds>  (227) 
0

>  <r_i_docking_score>  (227) 
-2.35243

>  <r_i_glide_ligand_efficiency>  (227) 
-0.0980179

>  <r_i_glide_ligand_efficiency_sa>  (227) 
-0.282732

>  <r_i_glide_ligand_efficiency_ln>  (227) 
-0.563044

>  <r_i_glide_gscore>  (227) 
-2.35243

>  <r_i_glide_lipo>  (227) 
-0.5267

>  <r_i_glide_hbond>  (227) 
0

>  <r_i_glide_metal>  (227) 
-0

>  <r_i_glide_rewards>  (227) 
-1.53928

>  <r_i_glide_evdw>  (227) 
-10.7171

>  <r_i_glide_ecoul>  (227) 
1.66275

>  <r_i_glide_erotb>  (227) 
0

>  <r_i_glide_esite>  (227) 
0

>  <r_i_glide_emodel>  (227) 
-10.5014

>  <r_i_glide_energy>  (227) 
-9.05439

>  <r_i_glide_einternal>  (227) 
0

>  <r_i_glide_intrahb_reward>  (227) 
-0

>  <i_i_glide_confnum>  (227) 
1

>  <i_i_glide_posenum>  (227) 
20

>  <r_i_glide_eff_state_penalty>  (227) 
0

>  <ligand_id>  (227) 
68

>  <original_smiles>  (227) 
CC1C(=O)C(=O)C23CCC4C(C)(C)C5CC(C)C42C1C(=O)C3C5C

>  <smiles>  (227) 
[H]C([H])([H])C1([H])C(=O)C(=O)C23C([H])([H])C([H])([H])C4([H])C(C([H])([H])[H])(C([H])([H])[H])C5([H])C([H])([H])C([H])(C([H])([H])[H])C42C1([H])C(=O)C3([H])C5([H])C([H])([H])[H]

$$$$
69:0:0
     RDKit          3D

 55 60  0  0  1  0  0  0  0  0999 V2000
    3.0828   -1.2932   -2.3609 C   0  0  0  0  0  0  0  0  0  0  0  0
    4.3018   -1.6347   -1.4736 C   0  0  2  0  0  0  0  0  0  0  0  0
    4.9696   -2.8365   -2.1803 C   0  0  0  0  0  0  0  0  0  0  0  0
    6.4632   -3.1426   -1.9626 C   0  0  0  0  0  0  0  0  0  0  0  0
    7.1456   -2.9598   -0.5867 C   0  0  2  0  0  0  0  0  0  0  0  0
    7.5363   -4.1584    0.2891 C   0  0  0  0  0  0  0  0  0  0  0  0
    6.3138   -4.9554    0.7796 C   0  0  1  0  0  0  0  0  0  0  0  0
    6.6756   -6.0658    1.7820 C   0  0  0  0  0  0  0  0  0  0  0  0
    5.6338   -7.1786    1.7344 C   0  0  0  0  0  0  0  0  0  0  0  0
    4.2056   -6.6304    1.6763 C   0  0  2  0  0  0  0  0  0  0  0  0
    3.2008   -7.7664    1.9462 C   0  0  0  0  0  0  0  0  0  0  0  0
    3.8917   -6.1875    0.3540 O   0  0  0  0  0  0  0  0  0  0  0  0
    4.0824   -4.6439    0.1640 O   0  0  0  0  0  0  0  0  0  0  0  0
    5.0075   -4.1181    1.1008 C   0  0  1  0  0  0  0  0  0  0  0  0
    4.3137   -4.3699    2.4752 C   0  0  1  0  0  0  0  0  0  0  0  0
    3.0926   -3.7078    2.3682 O   0  0  0  0  0  0  0  0  0  0  0  0
    3.0544   -2.3953    2.8970 C   0  0  2  0  0  0  0  0  0  0  0  0
    2.2857   -2.4923    4.2300 C   0  0  0  0  0  0  0  0  0  0  0  0
    2.3519   -1.4049    1.9509 C   0  0  0  0  0  0  0  0  0  0  0  0
    3.2340   -0.8298    0.8299 C   0  0  0  0  0  0  0  0  0  0  0  0
    3.9231   -1.9544    0.0407 C   0  0  2  0  0  0  0  0  0  0  0  0
    5.0800   -2.5055    0.9613 C   0  0  1  0  0  0  0  0  0  0  0  0
    5.3273   -1.7470    2.1823 O   0  0  0  0  0  0  0  0  0  0  0  0
    4.2936   -1.9080    3.3270 O   0  0  0  0  0  0  0  0  0  0  0  0
    6.3685   -2.0461    0.2755 C   0  0  0  0  0  0  0  0  0  0  0  0
    6.7938   -0.9021    0.4352 O   0  0  0  0  0  0  0  0  0  0  0  0
    4.0602   -5.7097    2.7158 O   0  0  0  0  0  0  0  0  0  0  0  0
    2.2978   -2.0488   -2.2793 H   0  0  0  0  0  0  0  0  0  0  0  0
    3.3368   -1.1981   -3.4136 H   0  0  0  0  0  0  0  0  0  0  0  0
    2.6250   -0.3428   -2.1223 H   0  0  0  0  0  0  0  0  0  0  0  0
    4.9547   -0.7618   -1.5238 H   0  0  0  0  0  0  0  0  0  0  0  0
    4.3710   -3.7307   -2.0105 H   0  0  0  0  0  0  0  0  0  0  0  0
    4.8927   -2.6786   -3.2600 H   0  0  0  0  0  0  0  0  0  0  0  0
    6.5121   -4.1604   -2.2921 H   0  0  0  0  0  0  0  0  0  0  0  0
    7.0421   -2.6082   -2.7006 H   0  0  0  0  0  0  0  0  0  0  0  0
    8.0970   -2.4735   -0.8110 H   0  0  0  0  0  0  0  0  0  0  0  0
    8.2223   -4.8113   -0.2674 H   0  0  0  0  0  0  0  0  0  0  0  0
    8.1160   -3.7988    1.1448 H   0  0  0  0  0  0  0  0  0  0  0  0
    6.0886   -5.4931   -0.1351 H   0  0  0  0  0  0  0  0  0  0  0  0
    7.6448   -6.4931    1.5222 H   0  0  0  0  0  0  0  0  0  0  0  0
    6.7772   -5.6428    2.7805 H   0  0  0  0  0  0  0  0  0  0  0  0
    5.8006   -7.8295    0.8777 H   0  0  0  0  0  0  0  0  0  0  0  0
    5.7547   -7.7982    2.6221 H   0  0  0  0  0  0  0  0  0  0  0  0
    2.1764   -7.3898    1.9314 H   0  0  0  0  0  0  0  0  0  0  0  0
    3.3688   -8.2203    2.9276 H   0  0  0  0  0  0  0  0  0  0  0  0
    3.2741   -8.5597    1.1978 H   0  0  0  0  0  0  0  0  0  0  0  0
    4.9469   -4.0338    3.2998 H   0  0  0  0  0  0  0  0  0  0  0  0
    2.8130   -3.1366    4.9411 H   0  0  0  0  0  0  0  0  0  0  0  0
    1.2780   -2.8900    4.0744 H   0  0  0  0  0  0  0  0  0  0  0  0
    2.1936   -1.4998    4.6928 H   0  0  0  0  0  0  0  0  0  0  0  0
    1.4932   -1.9334    1.5310 H   0  0  0  0  0  0  0  0  0  0  0  0
    1.9179   -0.5781    2.5207 H   0  0  0  0  0  0  0  0  0  0  0  0
    2.5997   -0.2543    0.1709 H   0  0  0  0  0  0  0  0  0  0  0  0
    3.9274   -0.0917    1.2139 H   0  0  0  0  0  0  0  0  0  0  0  0
    3.1241   -2.6808   -0.0695 H   0  0  0  0  0  0  0  0  0  0  0  0
  1  2  1  0
  1 28  1  0
  1 29  1  0
  1 30  1  0
  2 21  1  0
  2  3  1  0
  2 31  1  1
  3  4  1  0
  3 32  1  0
  3 33  1  0
  4  5  1  0
  4 34  1  0
  4 35  1  0
  5 25  1  0
  5  6  1  0
  5 36  1  6
  6  7  1  0
  6 37  1  0
  6 38  1  0
  7 14  1  0
  7  8  1  0
  7 39  1  6
  8  9  1  0
  8 40  1  0
  8 41  1  0
  9 10  1  0
  9 42  1  0
  9 43  1  0
 10 27  1  0
 10 11  1  1
 10 12  1  0
 11 44  1  0
 11 45  1  0
 11 46  1  0
 12 13  1  0
 14 13  1  6
 14 22  1  0
 14 15  1  0
 15 16  1  0
 15 27  1  0
 15 47  1  1
 16 17  1  0
 17 24  1  0
 17 18  1  1
 17 19  1  0
 18 48  1  0
 18 49  1  0
 18 50  1  0
 19 20  1  0
 19 51  1  0
 19 52  1  0
 20 21  1  0
 20 53  1  0
 20 54  1  0
 21 22  1  0
 21 55  1  6
 22 23  1  1
 22 25  1  0
 23 24  1  0
 25 26  2  0
M  END
>  <i_m_ct_stereo_status>  (228) 
1

>  <s_m_source_file>  (228) 
/var/tmp/pbs.5076255.sched01/tmpbaygurib/766rrai79r.sdf

>  <i_m_source_file_index>  (228) 
22

>  <i_lp_mmshare_version>  (228) 
48012

>  <i_f3d_flags>  (228) 
0

>  <s_epik_input>  (228) 
W0NAQF0xMjNDNDVbQ0BASF02W0NASF0oW0NIM10pW0NIMl1bQ0gyXVtDQEBIXShDNT1PKVtDSDJdW0NASF0xW0NIMl1bQ0gyXVtDQF0oW0NIM10pKE9PMilPW0NASF0zT1tDQF0oW0NIM10pKE9PNClbQ0gyXVtDSDJdNg==

>  <s_epik_cmdline>  (228) 
J2VwaWtfcHl0aG9uJywgJy1waHQnLCAnMi4wJywgJy1waCcsICc3LjAnLCAnLXRuJywgJzgnLCAnLW1hJywgJzIwMCcsICctaW1hZScsICc8aW5maWxlLm1hZT4nLCAnLW9tYWUnLCAnPG91dGZpbGUubWFlPic=

>  <r_lp_tautomer_probability>  (228) 
1

>  <r_epik_Ionization_Penalty>  (228) 
6.11559e-11

>  <r_epik_Ionization_Penalty_Charging>  (228) 
0

>  <r_epik_Ionization_Penalty_Neutral>  (228) 
6.11559e-11

>  <r_epik_State_Penalty>  (228) 
-0

>  <r_epik_Charging_Adjusted_Penalty>  (228) 
0

>  <i_epik_Tot_Q>  (228) 
0

>  <i_epik_Tot_abs_Q>  (228) 
0

>  <s_epik_Chemistry_Notes>  (228) 
This compound contains an acetal/aminal-like group ( X-CH(R)-Y where X, Y are N, S, or O) that may be acid/base labile, releasing an aldehyde.

>  <s_lp_Force_Field>  (228) 
OPLS3e

>  <r_lp_Energy>  (228) 
89.8424

>  <b_lp_Chiralities_Consistent>  (228) 
1

>  <s_lp_Variant>  (228) 
69:0-1

>  <s_i_glide_gridfile>  (228) 
pfpi4k_grid

>  <i_i_glide_lignum>  (228) 
22

>  <i_i_glide_rotatable_bonds>  (228) 
0

>  <r_i_docking_score>  (228) 
-2.7652

>  <r_i_glide_ligand_efficiency>  (228) 
-0.102415

>  <r_i_glide_ligand_efficiency_sa>  (228) 
-0.307244

>  <r_i_glide_ligand_efficiency_ln>  (228) 
-0.643692

>  <r_i_glide_gscore>  (228) 
-2.7652

>  <r_i_glide_lipo>  (228) 
-0.688636

>  <r_i_glide_hbond>  (228) 
-0.0137438

>  <r_i_glide_metal>  (228) 
-0

>  <r_i_glide_rewards>  (228) 
-0.948499

>  <r_i_glide_evdw>  (228) 
-24.1564

>  <r_i_glide_ecoul>  (228) 
0.625475

>  <r_i_glide_erotb>  (228) 
0

>  <r_i_glide_esite>  (228) 
-0.000318314

>  <r_i_glide_emodel>  (228) 
-27.7368

>  <r_i_glide_energy>  (228) 
-23.5309

>  <r_i_glide_einternal>  (228) 
0

>  <r_i_glide_intrahb_reward>  (228) 
-0

>  <i_i_glide_confnum>  (228) 
1

>  <i_i_glide_posenum>  (228) 
37

>  <r_i_glide_eff_state_penalty>  (228) 
0

>  <ligand_id>  (228) 
69

>  <original_smiles>  (228) 
CC1CCC2CC3CCC4(C)OOC35C(OC3(C)CCC1C5(OO3)C2=O)O4

>  <smiles>  (228) 
[H]C([H])([H])C12OOC34C(=O)C([H])(C([H])([H])C([H])([H])C([H])(C([H])([H])[H])C3([H])C([H])([H])C1([H])[H])C([H])([H])C1([H])C([H])([H])C([H])([H])C3(C([H])([H])[H])OOC41C([H])(O2)O3

$$$$
69:0:1
     RDKit          3D

 55 60  0  0  1  0  0  0  0  0999 V2000
   -2.5985    2.9466    3.2837 C   0  0  0  0  0  0  0  0  0  0  0  0
   -1.1419    2.4636    3.4617 C   0  0  2  0  0  0  0  0  0  0  0  0
   -0.9105    1.2394    2.5123 C   0  0  0  0  0  0  0  0  0  0  0  0
    0.5149    0.8402    2.0214 C   0  0  0  0  0  0  0  0  0  0  0  0
    1.7531    1.0248    2.9305 C   0  0  2  0  0  0  0  0  0  0  0  0
    2.4353   -0.2140    3.5312 C   0  0  0  0  0  0  0  0  0  0  0  0
    1.5236   -0.9821    4.5062 C   0  0  1  0  0  0  0  0  0  0  0  0
    2.2394   -2.1364    5.2205 C   0  0  0  0  0  0  0  0  0  0  0  0
    1.2386   -3.2162    5.6284 C   0  0  0  0  0  0  0  0  0  0  0  0
   -0.0473   -2.6384    6.2289 C   0  0  2  0  0  0  0  0  0  0  0  0
   -0.8531   -3.7593    6.9083 C   0  0  0  0  0  0  0  0  0  0  0  0
   -0.8952   -2.1169    5.1928 O   0  0  0  0  0  0  0  0  0  0  0  0
   -0.7408   -0.6046    4.9855 O   0  0  0  0  0  0  0  0  0  0  0  0
    0.5354   -0.1177    5.3975 C   0  0  1  0  0  0  0  0  0  0  0  0
    0.5203   -0.3983    6.9223 C   0  0  1  0  0  0  0  0  0  0  0  0
   -0.5946    0.3078    7.4013 O   0  0  0  0  0  0  0  0  0  0  0  0
   -0.3229    1.6043    7.9181 C   0  0  2  0  0  0  0  0  0  0  0  0
   -0.4144    1.4927    9.4442 C   0  0  0  0  0  0  0  0  0  0  0  0
   -1.3700    2.6183    7.4052 C   0  0  0  0  0  0  0  0  0  0  0  0
   -1.1306    3.1986    6.0014 C   0  0  0  0  0  0  0  0  0  0  0  0
   -0.8209    2.1019    4.9668 C   0  0  2  0  0  0  0  0  0  0  0  0
    0.6209    1.4978    5.2403 C   0  0  1  0  0  0  0  0  0  0  0  0
    1.3458    2.2516    6.2564 O   0  0  0  0  0  0  0  0  0  0  0  0
    1.0089    2.0178    7.7145 O   0  0  0  0  0  0  0  0  0  0  0  0
    1.4926    1.9487    4.0601 C   0  0  0  0  0  0  0  0  0  0  0  0
    1.9982    3.0807    4.0364 O   0  0  0  0  0  0  0  0  0  0  0  0
    0.3053   -1.7376    7.2508 O   0  0  0  0  0  0  0  0  0  0  0  0
   -3.3039    2.2244    3.6996 H   0  0  0  0  0  0  0  0  0  0  0  0
   -2.8615    3.0639    2.2338 H   0  0  0  0  0  0  0  0  0  0  0  0
   -2.7874    3.9102    3.7497 H   0  0  0  0  0  0  0  0  0  0  0  0
   -0.5330    3.3072    3.1161 H   0  0  0  0  0  0  0  0  0  0  0  0
   -1.4152    0.3714    2.9271 H   0  0  0  0  0  0  0  0  0  0  0  0
   -1.4591    1.4294    1.5950 H   0  0  0  0  0  0  0  0  0  0  0  0
    0.4797   -0.1901    1.6761 H   0  0  0  0  0  0  0  0  0  0  0  0
    0.7031    1.4000    1.1047 H   0  0  0  0  0  0  0  0  0  0  0  0
    2.5091    1.4965    2.2973 H   0  0  0  0  0  0  0  0  0  0  0  0
    2.7648   -0.8634    2.7220 H   0  0  0  0  0  0  0  0  0  0  0  0
    3.3571    0.1011    4.0411 H   0  0  0  0  0  0  0  0  0  0  0  0
    0.8888   -1.4897    3.7744 H   0  0  0  0  0  0  0  0  0  0  0  0
    2.9726   -2.5923    4.5578 H   0  0  0  0  0  0  0  0  0  0  0  0
    2.7978   -1.7613    6.0800 H   0  0  0  0  0  0  0  0  0  0  0  0
    0.9735   -3.8327    4.7696 H   0  0  0  0  0  0  0  0  0  0  0  0
    1.7184   -3.8776    6.3467 H   0  0  0  0  0  0  0  0  0  0  0  0
   -1.7725   -3.3851    7.3537 H   0  0  0  0  0  0  0  0  0  0  0  0
   -0.2859   -4.2418    7.7079 H   0  0  0  0  0  0  0  0  0  0  0  0
   -1.1433   -4.5356    6.2016 H   0  0  0  0  0  0  0  0  0  0  0  0
    1.4618   -0.1342    7.4018 H   0  0  0  0  0  0  0  0  0  0  0  0
    0.3366    0.8040    9.8394 H   0  0  0  0  0  0  0  0  0  0  0  0
   -1.3847    1.1541    9.7677 H   0  0  0  0  0  0  0  0  0  0  0  0
   -0.2408    2.4610    9.9217 H   0  0  0  0  0  0  0  0  0  0  0  0
   -2.3439    2.1256    7.4321 H   0  0  0  0  0  0  0  0  0  0  0  0
   -1.4543    3.4477    8.1086 H   0  0  0  0  0  0  0  0  0  0  0  0
   -2.0467    3.7191    5.7526 H   0  0  0  0  0  0  0  0  0  0  0  0
   -0.3498    3.9576    6.0286 H   0  0  0  0  0  0  0  0  0  0  0  0
   -1.6017    1.3844    5.2060 H   0  0  0  0  0  0  0  0  0  0  0  0
  1  2  1  0
  1 28  1  0
  1 29  1  0
  1 30  1  0
  2 21  1  0
  2  3  1  0
  2 31  1  6
  3  4  1  0
  3 32  1  0
  3 33  1  0
  4  5  1  0
  4 34  1  0
  4 35  1  0
  5 25  1  0
  5  6  1  0
  5 36  1  6
  6  7  1  0
  6 37  1  0
  6 38  1  0
  7 14  1  0
  7  8  1  0
  7 39  1  6
  8  9  1  0
  8 40  1  0
  8 41  1  0
  9 10  1  0
  9 42  1  0
  9 43  1  0
 10 27  1  0
 10 11  1  1
 10 12  1  0
 11 44  1  0
 11 45  1  0
 11 46  1  0
 12 13  1  0
 14 13  1  6
 14 22  1  0
 14 15  1  0
 15 16  1  0
 15 27  1  0
 15 47  1  1
 16 17  1  0
 17 24  1  0
 17 18  1  1
 17 19  1  0
 18 48  1  0
 18 49  1  0
 18 50  1  0
 19 20  1  0
 19 51  1  0
 19 52  1  0
 20 21  1  0
 20 53  1  0
 20 54  1  0
 21 22  1  0
 21 55  1  1
 22 23  1  1
 22 25  1  0
 23 24  1  0
 25 26  2  0
M  END
>  <i_m_ct_stereo_status>  (229) 
1

>  <s_m_source_file>  (229) 
/var/tmp/pbs.5076255.sched01/tmpbaygurib/766rrai79r.sdf

>  <i_m_source_file_index>  (229) 
22

>  <i_lp_mmshare_version>  (229) 
48012

>  <i_f3d_flags>  (229) 
0

>  <s_epik_input>  (229) 
W0NAQF0xMjNDNDVbQ0BASF02W0NASF0oW0NIM10pW0NIMl1bQ0gyXVtDQEBIXShDNT1PKVtDSDJdW0NASF0xW0NIMl1bQ0gyXVtDQF0oW0NIM10pKE9PMilPW0NASF0zT1tDQF0oW0NIM10pKE9PNClbQ0gyXVtDSDJdNg==

>  <s_epik_cmdline>  (229) 
J2VwaWtfcHl0aG9uJywgJy1waHQnLCAnMi4wJywgJy1waCcsICc3LjAnLCAnLXRuJywgJzgnLCAnLW1hJywgJzIwMCcsICctaW1hZScsICc8aW5maWxlLm1hZT4nLCAnLW9tYWUnLCAnPG91dGZpbGUubWFlPic=

>  <r_lp_tautomer_probability>  (229) 
1

>  <r_epik_Ionization_Penalty>  (229) 
6.11559e-11

>  <r_epik_Ionization_Penalty_Charging>  (229) 
0

>  <r_epik_Ionization_Penalty_Neutral>  (229) 
6.11559e-11

>  <r_epik_State_Penalty>  (229) 
-0

>  <r_epik_Charging_Adjusted_Penalty>  (229) 
0

>  <i_epik_Tot_Q>  (229) 
0

>  <i_epik_Tot_abs_Q>  (229) 
0

>  <s_epik_Chemistry_Notes>  (229) 
This compound contains an acetal/aminal-like group ( X-CH(R)-Y where X, Y are N, S, or O) that may be acid/base labile, releasing an aldehyde.

>  <s_lp_Force_Field>  (229) 
OPLS3e

>  <r_lp_Energy>  (229) 
89.8424

>  <b_lp_Chiralities_Consistent>  (229) 
1

>  <s_lp_Variant>  (229) 
69:0-1

>  <s_i_glide_gridfile>  (229) 
pfpi4k_grid

>  <i_i_glide_lignum>  (229) 
22

>  <i_i_glide_rotatable_bonds>  (229) 
0

>  <r_i_docking_score>  (229) 
-2.42781

>  <r_i_glide_ligand_efficiency>  (229) 
-0.0899189

>  <r_i_glide_ligand_efficiency_sa>  (229) 
-0.269757

>  <r_i_glide_ligand_efficiency_ln>  (229) 
-0.565154

>  <r_i_glide_gscore>  (229) 
-2.42781

>  <r_i_glide_lipo>  (229) 
-0.0126784

>  <r_i_glide_hbond>  (229) 
-0.0468326

>  <r_i_glide_metal>  (229) 
-0

>  <r_i_glide_rewards>  (229) 
-0.815236

>  <r_i_glide_evdw>  (229) 
-24.2387

>  <r_i_glide_ecoul>  (229) 
-1.81629

>  <r_i_glide_erotb>  (229) 
0

>  <r_i_glide_esite>  (229) 
-0.0686846

>  <r_i_glide_emodel>  (229) 
-29.8846

>  <r_i_glide_energy>  (229) 
-26.055

>  <r_i_glide_einternal>  (229) 
0

>  <r_i_glide_intrahb_reward>  (229) 
-0

>  <i_i_glide_confnum>  (229) 
1

>  <i_i_glide_posenum>  (229) 
1

>  <r_i_glide_eff_state_penalty>  (229) 
0

>  <ligand_id>  (229) 
69

>  <original_smiles>  (229) 
CC1CCC2CC3CCC4(C)OOC35C(OC3(C)CCC1C5(OO3)C2=O)O4

>  <smiles>  (229) 
[H]C([H])([H])C12OOC34C(=O)C([H])(C([H])([H])C([H])([H])C([H])(C([H])([H])[H])C3([H])C([H])([H])C1([H])[H])C([H])([H])C1([H])C([H])([H])C([H])([H])C3(C([H])([H])[H])OOC41C([H])(O2)O3

$$$$
69:0:2
     RDKit          3D

 55 60  0  0  1  0  0  0  0  0999 V2000
    3.4655   -1.8230   -1.5859 C   0  0  0  0  0  0  0  0  0  0  0  0
    4.1448   -2.5286   -0.3964 C   0  0  2  0  0  0  0  0  0  0  0  0
    4.4619   -3.9873   -0.8517 C   0  0  0  0  0  0  0  0  0  0  0  0
    5.5770   -4.8298   -0.1636 C   0  0  0  0  0  0  0  0  0  0  0  0
    5.8971   -4.6791    1.3391 C   0  0  2  0  0  0  0  0  0  0  0  0
    5.5295   -5.8106    2.3055 C   0  0  0  0  0  0  0  0  0  0  0  0
    4.0098   -6.0418    2.3939 C   0  0  1  0  0  0  0  0  0  0  0  0
    3.6118   -7.0653    3.4610 C   0  0  0  0  0  0  0  0  0  0  0  0
    2.2759   -7.7230    3.0983 C   0  0  0  0  0  0  0  0  0  0  0  0
    1.2366   -6.7045    2.6032 C   0  0  2  0  0  0  0  0  0  0  0  0
   -0.1589   -7.3716    2.5649 C   0  0  0  0  0  0  0  0  0  0  0  0
    1.4866   -6.3329    1.2476 O   0  0  0  0  0  0  0  0  0  0  0  0
    2.3297   -5.0263    1.1254 O   0  0  0  0  0  0  0  0  0  0  0  0
    3.0891   -4.7594    2.2934 C   0  0  1  0  0  0  0  0  0  0  0  0
    2.0053   -4.5709    3.4025 C   0  0  1  0  0  0  0  0  0  0  0  0
    1.2348   -3.5059    2.9444 O   0  0  0  0  0  0  0  0  0  0  0  0
    1.5451   -2.2181    3.4105 C   0  0  2  0  0  0  0  0  0  0  0  0
    0.4396   -1.8610    4.4335 C   0  0  0  0  0  0  0  0  0  0  0  0
    1.5356   -1.1799    2.2663 C   0  0  0  0  0  0  0  0  0  0  0  0
    2.8128   -1.1063    1.4049 C   0  0  0  0  0  0  0  0  0  0  0  0
    3.2606   -2.4983    0.9219 C   0  0  2  0  0  0  0  0  0  0  0  0
    3.8219   -3.3106    2.1622 C   0  0  1  0  0  0  0  0  0  0  0  0
    3.9820   -2.5288    3.3690 O   0  0  0  0  0  0  0  0  0  0  0  0
    2.7115   -2.1617    4.1718 O   0  0  0  0  0  0  0  0  0  0  0  0
    5.3325   -3.4246    1.8882 C   0  0  0  0  0  0  0  0  0  0  0  0
    6.0810   -2.4463    2.0512 O   0  0  0  0  0  0  0  0  0  0  0  0
    1.1565   -5.6677    3.5315 O   0  0  0  0  0  0  0  0  0  0  0  0
    2.4684   -2.2382   -1.7532 H   0  0  0  0  0  0  0  0  0  0  0  0
    4.0138   -1.9381   -2.5186 H   0  0  0  0  0  0  0  0  0  0  0  0
    3.3632   -0.7478   -1.4277 H   0  0  0  0  0  0  0  0  0  0  0  0
    5.0720   -1.9739   -0.2581 H   0  0  0  0  0  0  0  0  0  0  0  0
    3.5369   -4.5572   -0.8762 H   0  0  0  0  0  0  0  0  0  0  0  0
    4.7667   -3.9444   -1.9005 H   0  0  0  0  0  0  0  0  0  0  0  0
    5.3931   -5.8788   -0.3926 H   0  0  0  0  0  0  0  0  0  0  0  0
    6.4965   -4.5903   -0.6859 H   0  0  0  0  0  0  0  0  0  0  0  0
    6.9858   -4.5961    1.3987 H   0  0  0  0  0  0  0  0  0  0  0  0
    6.0326   -6.7315    1.9934 H   0  0  0  0  0  0  0  0  0  0  0  0
    5.9361   -5.5824    3.2942 H   0  0  0  0  0  0  0  0  0  0  0  0
    3.8646   -6.5773    1.4589 H   0  0  0  0  0  0  0  0  0  0  0  0
    4.3662   -7.8520    3.5274 H   0  0  0  0  0  0  0  0  0  0  0  0
    3.5749   -6.5965    4.4433 H   0  0  0  0  0  0  0  0  0  0  0  0
    2.4244   -8.4859    2.3353 H   0  0  0  0  0  0  0  0  0  0  0  0
    1.9005   -8.2378    3.9806 H   0  0  0  0  0  0  0  0  0  0  0  0
   -0.9214   -6.6703    2.2274 H   0  0  0  0  0  0  0  0  0  0  0  0
   -0.4606   -7.7253    3.5530 H   0  0  0  0  0  0  0  0  0  0  0  0
   -0.1856   -8.2243    1.8840 H   0  0  0  0  0  0  0  0  0  0  0  0
    2.4437   -4.4017    4.3799 H   0  0  0  0  0  0  0  0  0  0  0  0
    0.4484   -2.5587    5.2749 H   0  0  0  0  0  0  0  0  0  0  0  0
   -0.5533   -1.8899    3.9807 H   0  0  0  0  0  0  0  0  0  0  0  0
    0.5928   -0.8552    4.8353 H   0  0  0  0  0  0  0  0  0  0  0  0
    0.6804   -1.4159    1.6324 H   0  0  0  0  0  0  0  0  0  0  0  0
    1.3225   -0.1809    2.6515 H   0  0  0  0  0  0  0  0  0  0  0  0
    2.5584   -0.4781    0.5524 H   0  0  0  0  0  0  0  0  0  0  0  0
    3.5988   -0.5757    1.9276 H   0  0  0  0  0  0  0  0  0  0  0  0
    2.3177   -2.9045    0.5839 H   0  0  0  0  0  0  0  0  0  0  0  0
  1  2  1  0
  1 28  1  0
  1 29  1  0
  1 30  1  0
  2 21  1  0
  2  3  1  0
  2 31  1  1
  3  4  1  0
  3 32  1  0
  3 33  1  0
  4  5  1  0
  4 34  1  0
  4 35  1  0
  5 25  1  0
  5  6  1  0
  5 36  1  6
  6  7  1  0
  6 37  1  0
  6 38  1  0
  7 14  1  0
  7  8  1  0
  7 39  1  6
  8  9  1  0
  8 40  1  0
  8 41  1  0
  9 10  1  0
  9 42  1  0
  9 43  1  0
 10 27  1  0
 10 11  1  6
 10 12  1  0
 11 44  1  0
 11 45  1  0
 11 46  1  0
 12 13  1  0
 14 13  1  6
 14 22  1  0
 14 15  1  0
 15 16  1  0
 15 27  1  0
 15 47  1  1
 16 17  1  0
 17 24  1  0
 17 18  1  1
 17 19  1  0
 18 48  1  0
 18 49  1  0
 18 50  1  0
 19 20  1  0
 19 51  1  0
 19 52  1  0
 20 21  1  0
 20 53  1  0
 20 54  1  0
 21 22  1  0
 21 55  1  6
 22 23  1  1
 22 25  1  0
 23 24  1  0
 25 26  2  0
M  END
>  <i_m_ct_stereo_status>  (230) 
1

>  <s_m_source_file>  (230) 
/var/tmp/pbs.5076255.sched01/tmpbaygurib/766rrai79r.sdf

>  <i_m_source_file_index>  (230) 
22

>  <i_lp_mmshare_version>  (230) 
48012

>  <i_f3d_flags>  (230) 
0

>  <s_epik_input>  (230) 
W0NAQF0xMjNDNDVbQ0BASF02W0NASF0oW0NIM10pW0NIMl1bQ0gyXVtDQEBIXShDNT1PKVtDSDJdW0NASF0xW0NIMl1bQ0gyXVtDQF0oW0NIM10pKE9PMilPW0NASF0zT1tDQF0oW0NIM10pKE9PNClbQ0gyXVtDSDJdNg==

>  <s_epik_cmdline>  (230) 
J2VwaWtfcHl0aG9uJywgJy1waHQnLCAnMi4wJywgJy1waCcsICc3LjAnLCAnLXRuJywgJzgnLCAnLW1hJywgJzIwMCcsICctaW1hZScsICc8aW5maWxlLm1hZT4nLCAnLW9tYWUnLCAnPG91dGZpbGUubWFlPic=

>  <r_lp_tautomer_probability>  (230) 
1

>  <r_epik_Ionization_Penalty>  (230) 
6.11559e-11

>  <r_epik_Ionization_Penalty_Charging>  (230) 
0

>  <r_epik_Ionization_Penalty_Neutral>  (230) 
6.11559e-11

>  <r_epik_State_Penalty>  (230) 
-0

>  <r_epik_Charging_Adjusted_Penalty>  (230) 
0

>  <i_epik_Tot_Q>  (230) 
0

>  <i_epik_Tot_abs_Q>  (230) 
0

>  <s_epik_Chemistry_Notes>  (230) 
This compound contains an acetal/aminal-like group ( X-CH(R)-Y where X, Y are N, S, or O) that may be acid/base labile, releasing an aldehyde.

>  <s_lp_Force_Field>  (230) 
OPLS3e

>  <r_lp_Energy>  (230) 
89.8424

>  <b_lp_Chiralities_Consistent>  (230) 
1

>  <s_lp_Variant>  (230) 
69:0-1

>  <s_i_glide_gridfile>  (230) 
pfpi4k_grid

>  <i_i_glide_lignum>  (230) 
22

>  <i_i_glide_rotatable_bonds>  (230) 
0

>  <r_i_docking_score>  (230) 
-2.20577

>  <r_i_glide_ligand_efficiency>  (230) 
-0.0816951

>  <r_i_glide_ligand_efficiency_sa>  (230) 
-0.245085

>  <r_i_glide_ligand_efficiency_ln>  (230) 
-0.513466

>  <r_i_glide_gscore>  (230) 
-2.20577

>  <r_i_glide_lipo>  (230) 
-0.14702

>  <r_i_glide_hbond>  (230) 
-0.0310149

>  <r_i_glide_metal>  (230) 
-0

>  <r_i_glide_rewards>  (230) 
-0.91876

>  <r_i_glide_evdw>  (230) 
-21.3669

>  <r_i_glide_ecoul>  (230) 
-0.0339552

>  <r_i_glide_erotb>  (230) 
0

>  <r_i_glide_esite>  (230) 
-0.0355324

>  <r_i_glide_emodel>  (230) 
-24.7382

>  <r_i_glide_energy>  (230) 
-21.4009

>  <r_i_glide_einternal>  (230) 
0

>  <r_i_glide_intrahb_reward>  (230) 
-0

>  <i_i_glide_confnum>  (230) 
1

>  <i_i_glide_posenum>  (230) 
2

>  <r_i_glide_eff_state_penalty>  (230) 
0

>  <ligand_id>  (230) 
69

>  <original_smiles>  (230) 
CC1CCC2CC3CCC4(C)OOC35C(OC3(C)CCC1C5(OO3)C2=O)O4

>  <smiles>  (230) 
[H]C([H])([H])C12OOC34C(=O)C([H])(C([H])([H])C([H])([H])C([H])(C([H])([H])[H])C3([H])C([H])([H])C1([H])[H])C([H])([H])C1([H])C([H])([H])C([H])([H])C3(C([H])([H])[H])OOC41C([H])(O2)O3

$$$$
69:1:0
     RDKit          3D

 55 60  0  0  1  0  0  0  0  0999 V2000
    2.5109   -1.9086    1.6398 C   0  0  0  0  0  0  0  0  0  0  0  0
    3.1408   -3.2843    1.9555 C   0  0  2  0  0  0  0  0  0  0  0  0
    3.1356   -4.1332    0.6200 C   0  0  0  0  0  0  0  0  0  0  0  0
    3.6210   -5.6338    0.4811 C   0  0  0  0  0  0  0  0  0  0  0  0
    4.4224   -6.3567    1.6132 C   0  0  2  0  0  0  0  0  0  0  0  0
    3.9770   -7.7835    2.0444 C   0  0  0  0  0  0  0  0  0  0  0  0
    2.5152   -7.8407    2.5684 C   0  0  1  0  0  0  0  0  0  0  0  0
    2.0320   -9.0957    3.2867 C   0  0  0  0  0  0  0  0  0  0  0  0
    0.5647   -9.3270    2.8800 C   0  0  0  0  0  0  0  0  0  0  0  0
   -0.2938   -8.0317    2.8265 C   0  0  2  0  0  0  0  0  0  0  0  0
   -1.7813   -8.3969    2.6666 C   0  0  0  0  0  0  0  0  0  0  0  0
   -0.0085   -7.1423    1.7139 O   0  0  0  0  0  0  0  0  0  0  0  0
    1.1242   -6.1051    1.9916 O   0  0  0  0  0  0  0  0  0  0  0  0
    1.9155   -6.4925    3.1156 C   0  0  1  0  0  0  0  0  0  0  0  0
    0.7755   -6.4584    4.2187 C   0  0  2  0  0  0  0  0  0  0  0  0
    1.1901   -6.3495    5.5360 O   0  0  0  0  0  0  0  0  0  0  0  0
    1.6287   -5.0918    6.0841 C   0  0  2  0  0  0  0  0  0  0  0  0
    1.1623   -5.1838    7.5466 C   0  0  0  0  0  0  0  0  0  0  0  0
    1.2201   -3.7304    5.4601 C   0  0  0  0  0  0  0  0  0  0  0  0
    2.2458   -3.1136    4.4581 C   0  0  0  0  0  0  0  0  0  0  0  0
    2.4787   -3.9850    3.2123 C   0  0  2  0  0  0  0  0  0  0  0  0
    3.0326   -5.4327    3.5524 C   0  0  1  0  0  0  0  0  0  0  0  0
    3.4356   -5.8762    4.8669 O   0  0  0  0  0  0  0  0  0  0  0  0
    3.0147   -4.9845    5.9930 O   0  0  0  0  0  0  0  0  0  0  0  0
    4.4021   -5.5708    2.8652 C   0  0  0  0  0  0  0  0  0  0  0  0
    5.4203   -5.0053    3.2920 O   0  0  0  0  0  0  0  0  0  0  0  0
   -0.1854   -7.4416    4.0882 O   0  0  0  0  0  0  0  0  0  0  0  0
    1.4284   -1.9770    1.5062 H   0  0  0  0  0  0  0  0  0  0  0  0
    2.9109   -1.4826    0.7188 H   0  0  0  0  0  0  0  0  0  0  0  0
    2.7039   -1.1665    2.4179 H   0  0  0  0  0  0  0  0  0  0  0  0
    4.1767   -3.0352    2.1886 H   0  0  0  0  0  0  0  0  0  0  0  0
    2.1197   -4.1061    0.2203 H   0  0  0  0  0  0  0  0  0  0  0  0
    3.7080   -3.5594   -0.1133 H   0  0  0  0  0  0  0  0  0  0  0  0
    2.7710   -6.2458    0.1906 H   0  0  0  0  0  0  0  0  0  0  0  0
    4.2402   -5.6732   -0.4117 H   0  0  0  0  0  0  0  0  0  0  0  0
    5.4608   -6.4136    1.2790 H   0  0  0  0  0  0  0  0  0  0  0  0
    4.1112   -8.4777    1.2193 H   0  0  0  0  0  0  0  0  0  0  0  0
    4.6562   -8.1366    2.8234 H   0  0  0  0  0  0  0  0  0  0  0  0
    2.1044   -8.0048    1.5789 H   0  0  0  0  0  0  0  0  0  0  0  0
    2.6296   -9.9594    3.0029 H   0  0  0  0  0  0  0  0  0  0  0  0
    2.1328   -8.9849    4.3691 H   0  0  0  0  0  0  0  0  0  0  0  0
    0.5423   -9.8223    1.9067 H   0  0  0  0  0  0  0  0  0  0  0  0
    0.1251  -10.0443    3.5767 H   0  0  0  0  0  0  0  0  0  0  0  0
   -2.4014   -7.5035    2.7035 H   0  0  0  0  0  0  0  0  0  0  0  0
   -2.1219   -9.0560    3.4692 H   0  0  0  0  0  0  0  0  0  0  0  0
   -1.9786   -8.9050    1.7186 H   0  0  0  0  0  0  0  0  0  0  0  0
    0.1537   -5.5881    4.0294 H   0  0  0  0  0  0  0  0  0  0  0  0
    0.0709   -5.1215    7.6048 H   0  0  0  0  0  0  0  0  0  0  0  0
    1.5763   -4.3780    8.1570 H   0  0  0  0  0  0  0  0  0  0  0  0
    1.4485   -6.1364    8.0048 H   0  0  0  0  0  0  0  0  0  0  0  0
    0.2064   -3.7393    5.0597 H   0  0  0  0  0  0  0  0  0  0  0  0
    1.1808   -3.0115    6.2848 H   0  0  0  0  0  0  0  0  0  0  0  0
    1.8460   -2.1400    4.1842 H   0  0  0  0  0  0  0  0  0  0  0  0
    3.1987   -2.8949    4.9402 H   0  0  0  0  0  0  0  0  0  0  0  0
    1.4536   -4.0666    2.8753 H   0  0  0  0  0  0  0  0  0  0  0  0
  1  2  1  0
  1 28  1  0
  1 29  1  0
  1 30  1  0
  2 21  1  0
  2  3  1  0
  2 31  1  1
  3  4  1  0
  3 32  1  0
  3 33  1  0
  4  5  1  0
  4 34  1  0
  4 35  1  0
  5 25  1  0
  5  6  1  0
  5 36  1  6
  6  7  1  0
  6 37  1  0
  6 38  1  0
  7 14  1  0
  7  8  1  0
  7 39  1  6
  8  9  1  0
  8 40  1  0
  8 41  1  0
  9 10  1  0
  9 42  1  0
  9 43  1  0
 10 27  1  0
 10 11  1  6
 10 12  1  0
 11 44  1  0
 11 45  1  0
 11 46  1  0
 12 13  1  0
 14 13  1  6
 14 22  1  0
 14 15  1  0
 15 16  1  0
 15 27  1  0
 15 47  1  6
 16 17  1  0
 17 24  1  0
 17 18  1  1
 17 19  1  0
 18 48  1  0
 18 49  1  0
 18 50  1  0
 19 20  1  0
 19 51  1  0
 19 52  1  0
 20 21  1  0
 20 53  1  0
 20 54  1  0
 21 22  1  0
 21 55  1  6
 22 23  1  1
 22 25  1  0
 23 24  1  0
 25 26  2  0
M  END
>  <i_m_ct_stereo_status>  (231) 
1

>  <s_m_source_file>  (231) 
/var/tmp/pbs.5076255.sched01/tmpbaygurib/766rrai79r.sdf

>  <i_m_source_file_index>  (231) 
23

>  <i_lp_mmshare_version>  (231) 
48012

>  <i_f3d_flags>  (231) 
0

>  <s_epik_input>  (231) 
W0NAQF0xMjNDNDVbQ0BASF02W0NASF0oW0NIM10pW0NIMl1bQ0gyXVtDQEBIXShDNT1PKVtDSDJdW0NASF0xW0NIMl1bQ0gyXVtDQF0oW0NIM10pKE9PMilPW0NASF0zT1tDQF0oW0NIM10pKE9PNClbQ0gyXVtDSDJdNg==

>  <s_epik_cmdline>  (231) 
J2VwaWtfcHl0aG9uJywgJy1waHQnLCAnMi4wJywgJy1waCcsICc3LjAnLCAnLXRuJywgJzgnLCAnLW1hJywgJzIwMCcsICctaW1hZScsICc8aW5maWxlLm1hZT4nLCAnLW9tYWUnLCAnPG91dGZpbGUubWFlPic=

>  <r_lp_tautomer_probability>  (231) 
1

>  <r_epik_Ionization_Penalty>  (231) 
6.11559e-11

>  <r_epik_Ionization_Penalty_Charging>  (231) 
0

>  <r_epik_Ionization_Penalty_Neutral>  (231) 
6.11559e-11

>  <r_epik_State_Penalty>  (231) 
-0

>  <r_epik_Charging_Adjusted_Penalty>  (231) 
0

>  <i_epik_Tot_Q>  (231) 
0

>  <i_epik_Tot_abs_Q>  (231) 
0

>  <s_epik_Chemistry_Notes>  (231) 
This compound contains an acetal/aminal-like group ( X-CH(R)-Y where X, Y are N, S, or O) that may be acid/base labile, releasing an aldehyde.

>  <s_lp_Force_Field>  (231) 
OPLS3e

>  <r_lp_Energy>  (231) 
117.95

>  <b_lp_Chiralities_Consistent>  (231) 
1

>  <s_lp_Variant>  (231) 
69:0-2

>  <s_i_glide_gridfile>  (231) 
pfpi4k_grid

>  <i_i_glide_lignum>  (231) 
23

>  <i_i_glide_rotatable_bonds>  (231) 
0

>  <r_i_docking_score>  (231) 
-2.67953

>  <r_i_glide_ligand_efficiency>  (231) 
-0.0992418

>  <r_i_glide_ligand_efficiency_sa>  (231) 
-0.297725

>  <r_i_glide_ligand_efficiency_ln>  (231) 
-0.62375

>  <r_i_glide_gscore>  (231) 
-2.67953

>  <r_i_glide_lipo>  (231) 
-0.120693

>  <r_i_glide_hbond>  (231) 
-0.0534612

>  <r_i_glide_metal>  (231) 
-0

>  <r_i_glide_rewards>  (231) 
-0.815236

>  <r_i_glide_evdw>  (231) 
-25.0713

>  <r_i_glide_ecoul>  (231) 
-2.45476

>  <r_i_glide_erotb>  (231) 
0

>  <r_i_glide_esite>  (231) 
-0.0683592

>  <r_i_glide_emodel>  (231) 
-31.7899

>  <r_i_glide_energy>  (231) 
-27.5261

>  <r_i_glide_einternal>  (231) 
0

>  <r_i_glide_intrahb_reward>  (231) 
-0

>  <i_i_glide_confnum>  (231) 
2

>  <i_i_glide_posenum>  (231) 
28

>  <r_i_glide_eff_state_penalty>  (231) 
0

>  <ligand_id>  (231) 
69

>  <original_smiles>  (231) 
CC1CCC2CC3CCC4(C)OOC35C(OC3(C)CCC1C5(OO3)C2=O)O4

>  <smiles>  (231) 
[H]C([H])([H])C12OOC34C(=O)C([H])(C([H])([H])C([H])([H])C([H])(C([H])([H])[H])C3([H])C([H])([H])C1([H])[H])C([H])([H])C1([H])C([H])([H])C([H])([H])C3(C([H])([H])[H])OOC41C([H])(O2)O3

$$$$
69:1:1
     RDKit          3D

 55 60  0  0  1  0  0  0  0  0999 V2000
    3.6792   -1.7668   -1.8417 C   0  0  0  0  0  0  0  0  0  0  0  0
    4.5462   -2.4438   -0.7512 C   0  0  2  0  0  0  0  0  0  0  0  0
    4.4283   -4.0050   -0.9614 C   0  0  0  0  0  0  0  0  0  0  0  0
    5.0766   -5.1050   -0.0253 C   0  0  0  0  0  0  0  0  0  0  0  0
    6.1705   -4.7617    1.0376 C   0  0  2  0  0  0  0  0  0  0  0  0
    6.0077   -5.3613    2.4631 C   0  0  0  0  0  0  0  0  0  0  0  0
    4.6918   -4.9374    3.1628 C   0  0  1  0  0  0  0  0  0  0  0  0
    4.5143   -5.2027    4.6524 C   0  0  0  0  0  0  0  0  0  0  0  0
    3.0483   -5.6110    4.8830 C   0  0  0  0  0  0  0  0  0  0  0  0
    2.0169   -4.7685    4.0857 C   0  0  2  0  0  0  0  0  0  0  0  0
    0.5961   -5.0703    4.5809 C   0  0  0  0  0  0  0  0  0  0  0  0
    1.9777   -5.0405    2.6624 O   0  0  0  0  0  0  0  0  0  0  0  0
    2.9752   -4.1908    1.8169 O   0  0  0  0  0  0  0  0  0  0  0  0
    3.9993   -3.6201    2.6348 C   0  0  1  0  0  0  0  0  0  0  0  0
    3.0723   -2.7254    3.5513 C   0  0  2  0  0  0  0  0  0  0  0  0
    3.6954   -1.6756    4.2123 O   0  0  0  0  0  0  0  0  0  0  0  0
    4.0390   -0.4527    3.5302 C   0  0  2  0  0  0  0  0  0  0  0  0
    3.8479    0.6097    4.6298 C   0  0  0  0  0  0  0  0  0  0  0  0
    3.3366   -0.0151    2.2162 C   0  0  0  0  0  0  0  0  0  0  0  0
    4.0768   -0.4151    0.9032 C   0  0  0  0  0  0  0  0  0  0  0  0
    4.2143   -1.9286    0.7076 C   0  0  2  0  0  0  0  0  0  0  0  0
    5.0213   -2.6454    1.8777 C   0  0  1  0  0  0  0  0  0  0  0  0
    5.7308   -1.9435    2.9284 O   0  0  0  0  0  0  0  0  0  0  0  0
    5.3676   -0.5039    3.0989 O   0  0  0  0  0  0  0  0  0  0  0  0
    6.2446   -3.2994    1.2474 C   0  0  0  0  0  0  0  0  0  0  0  0
    7.2345   -2.6385    0.8476 O   0  0  0  0  0  0  0  0  0  0  0  0
    2.2700   -3.4310    4.4254 O   0  0  0  0  0  0  0  0  0  0  0  0
    2.6091   -1.8817   -1.6358 H   0  0  0  0  0  0  0  0  0  0  0  0
    3.8632   -2.1966   -2.8282 H   0  0  0  0  0  0  0  0  0  0  0  0
    3.8925   -0.7003   -1.9409 H   0  0  0  0  0  0  0  0  0  0  0  0
    5.5599   -2.1429   -1.0152 H   0  0  0  0  0  0  0  0  0  0  0  0
    3.3618   -4.2476   -1.0043 H   0  0  0  0  0  0  0  0  0  0  0  0
    4.7780   -4.2136   -1.9767 H   0  0  0  0  0  0  0  0  0  0  0  0
    4.2825   -5.6972    0.4245 H   0  0  0  0  0  0  0  0  0  0  0  0
    5.5301   -5.8456   -0.6755 H   0  0  0  0  0  0  0  0  0  0  0  0
    7.1280   -5.0875    0.6362 H   0  0  0  0  0  0  0  0  0  0  0  0
    6.0907   -6.4439    2.4219 H   0  0  0  0  0  0  0  0  0  0  0  0
    6.8617   -5.0556    3.0705 H   0  0  0  0  0  0  0  0  0  0  0  0
    4.1478   -5.7776    2.7475 H   0  0  0  0  0  0  0  0  0  0  0  0
    5.1756   -6.0010    4.9805 H   0  0  0  0  0  0  0  0  0  0  0  0
    4.7823   -4.3160    5.2299 H   0  0  0  0  0  0  0  0  0  0  0  0
    2.9225   -6.6685    4.6352 H   0  0  0  0  0  0  0  0  0  0  0  0
    2.8437   -5.5363    5.9544 H   0  0  0  0  0  0  0  0  0  0  0  0
   -0.1272   -4.4276    4.0796 H   0  0  0  0  0  0  0  0  0  0  0  0
    0.4957   -4.8849    5.6536 H   0  0  0  0  0  0  0  0  0  0  0  0
    0.3069   -6.1106    4.3992 H   0  0  0  0  0  0  0  0  0  0  0  0
    2.2992   -2.2742    2.9313 H   0  0  0  0  0  0  0  0  0  0  0  0
    2.7832    0.7404    4.8649 H   0  0  0  0  0  0  0  0  0  0  0  0
    4.2374    1.5878    4.3273 H   0  0  0  0  0  0  0  0  0  0  0  0
    4.3394    0.3236    5.5657 H   0  0  0  0  0  0  0  0  0  0  0  0
    2.2759   -0.2851    2.1907 H   0  0  0  0  0  0  0  0  0  0  0  0
    3.3333    1.0816    2.2106 H   0  0  0  0  0  0  0  0  0  0  0  0
    3.5045    0.0229    0.0921 H   0  0  0  0  0  0  0  0  0  0  0  0
    5.0559    0.0597    0.8343 H   0  0  0  0  0  0  0  0  0  0  0  0
    3.1706   -2.1934    0.7746 H   0  0  0  0  0  0  0  0  0  0  0  0
  1  2  1  0
  1 28  1  0
  1 29  1  0
  1 30  1  0
  2 21  1  0
  2  3  1  0
  2 31  1  6
  3  4  1  0
  3 32  1  0
  3 33  1  0
  4  5  1  0
  4 34  1  0
  4 35  1  0
  5 25  1  0
  5  6  1  0
  5 36  1  6
  6  7  1  0
  6 37  1  0
  6 38  1  0
  7 14  1  0
  7  8  1  0
  7 39  1  6
  8  9  1  0
  8 40  1  0
  8 41  1  0
  9 10  1  0
  9 42  1  0
  9 43  1  0
 10 27  1  0
 10 11  1  1
 10 12  1  0
 11 44  1  0
 11 45  1  0
 11 46  1  0
 12 13  1  0
 14 13  1  6
 14 22  1  0
 14 15  1  0
 15 16  1  0
 15 27  1  0
 15 47  1  6
 16 17  1  0
 17 24  1  0
 17 18  1  1
 17 19  1  0
 18 48  1  0
 18 49  1  0
 18 50  1  0
 19 20  1  0
 19 51  1  0
 19 52  1  0
 20 21  1  0
 20 53  1  0
 20 54  1  0
 21 22  1  0
 21 55  1  1
 22 23  1  1
 22 25  1  0
 23 24  1  0
 25 26  2  0
M  END
>  <i_m_ct_stereo_status>  (232) 
1

>  <s_m_source_file>  (232) 
/var/tmp/pbs.5076255.sched01/tmpbaygurib/766rrai79r.sdf

>  <i_m_source_file_index>  (232) 
23

>  <i_lp_mmshare_version>  (232) 
48012

>  <i_f3d_flags>  (232) 
0

>  <s_epik_input>  (232) 
W0NAQF0xMjNDNDVbQ0BASF02W0NASF0oW0NIM10pW0NIMl1bQ0gyXVtDQEBIXShDNT1PKVtDSDJdW0NASF0xW0NIMl1bQ0gyXVtDQF0oW0NIM10pKE9PMilPW0NASF0zT1tDQF0oW0NIM10pKE9PNClbQ0gyXVtDSDJdNg==

>  <s_epik_cmdline>  (232) 
J2VwaWtfcHl0aG9uJywgJy1waHQnLCAnMi4wJywgJy1waCcsICc3LjAnLCAnLXRuJywgJzgnLCAnLW1hJywgJzIwMCcsICctaW1hZScsICc8aW5maWxlLm1hZT4nLCAnLW9tYWUnLCAnPG91dGZpbGUubWFlPic=

>  <r_lp_tautomer_probability>  (232) 
1

>  <r_epik_Ionization_Penalty>  (232) 
6.11559e-11

>  <r_epik_Ionization_Penalty_Charging>  (232) 
0

>  <r_epik_Ionization_Penalty_Neutral>  (232) 
6.11559e-11

>  <r_epik_State_Penalty>  (232) 
-0

>  <r_epik_Charging_Adjusted_Penalty>  (232) 
0

>  <i_epik_Tot_Q>  (232) 
0

>  <i_epik_Tot_abs_Q>  (232) 
0

>  <s_epik_Chemistry_Notes>  (232) 
This compound contains an acetal/aminal-like group ( X-CH(R)-Y where X, Y are N, S, or O) that may be acid/base labile, releasing an aldehyde.

>  <s_lp_Force_Field>  (232) 
OPLS3e

>  <r_lp_Energy>  (232) 
117.95

>  <b_lp_Chiralities_Consistent>  (232) 
1

>  <s_lp_Variant>  (232) 
69:0-2

>  <s_i_glide_gridfile>  (232) 
pfpi4k_grid

>  <i_i_glide_lignum>  (232) 
23

>  <i_i_glide_rotatable_bonds>  (232) 
0

>  <r_i_docking_score>  (232) 
-2.62408

>  <r_i_glide_ligand_efficiency>  (232) 
-0.0971882

>  <r_i_glide_ligand_efficiency_sa>  (232) 
-0.291565

>  <r_i_glide_ligand_efficiency_ln>  (232) 
-0.610843

>  <r_i_glide_gscore>  (232) 
-2.62408

>  <r_i_glide_lipo>  (232) 
-0.324655

>  <r_i_glide_hbond>  (232) 
0

>  <r_i_glide_metal>  (232) 
-0

>  <r_i_glide_rewards>  (232) 
-0.960807

>  <r_i_glide_evdw>  (232) 
-21.7123

>  <r_i_glide_ecoul>  (232) 
-1.68262

>  <r_i_glide_erotb>  (232) 
0

>  <r_i_glide_esite>  (232) 
-0.000609293

>  <r_i_glide_emodel>  (232) 
-27.5463

>  <r_i_glide_energy>  (232) 
-23.395

>  <r_i_glide_einternal>  (232) 
0

>  <r_i_glide_intrahb_reward>  (232) 
-0

>  <i_i_glide_confnum>  (232) 
1

>  <i_i_glide_posenum>  (232) 
14

>  <r_i_glide_eff_state_penalty>  (232) 
0

>  <ligand_id>  (232) 
69

>  <original_smiles>  (232) 
CC1CCC2CC3CCC4(C)OOC35C(OC3(C)CCC1C5(OO3)C2=O)O4

>  <smiles>  (232) 
[H]C([H])([H])C12OOC34C(=O)C([H])(C([H])([H])C([H])([H])C([H])(C([H])([H])[H])C3([H])C([H])([H])C1([H])[H])C([H])([H])C1([H])C([H])([H])C([H])([H])C3(C([H])([H])[H])OOC41C([H])(O2)O3

$$$$
69:1:2
     RDKit          3D

 55 60  0  0  1  0  0  0  0  0999 V2000
    3.2943   -5.9256    3.3061 C   0  0  0  0  0  0  0  0  0  0  0  0
    3.6147   -4.4641    2.9113 C   0  0  2  0  0  0  0  0  0  0  0  0
    2.2634   -3.7769    2.4898 C   0  0  0  0  0  0  0  0  0  0  0  0
    2.1256   -2.2975    1.9464 C   0  0  0  0  0  0  0  0  0  0  0  0
    3.2907   -1.2655    2.0196 C   0  0  2  0  0  0  0  0  0  0  0  0
    3.6227   -0.4575    0.7330 C   0  0  0  0  0  0  0  0  0  0  0  0
    4.0257   -1.3409   -0.4812 C   0  0  1  0  0  0  0  0  0  0  0  0
    4.6276   -0.7046   -1.7357 C   0  0  0  0  0  0  0  0  0  0  0  0
    4.0784   -1.4228   -2.9560 C   0  0  0  0  0  0  0  0  0  0  0  0
    3.9983   -2.9528   -2.7901 C   0  0  2  0  0  0  0  0  0  0  0  0
    3.7401   -3.5842   -4.1437 C   0  0  0  0  0  0  0  0  0  0  0  0
    2.9513   -3.4367   -1.9080 O   0  0  0  0  0  0  0  0  0  0  0  0
    3.3689   -3.5535   -0.4246 O   0  0  0  0  0  0  0  0  0  0  0  0
    4.5386   -2.7825   -0.1523 C   0  0  1  0  0  0  0  0  0  0  0  0
    5.5306   -3.5479   -1.1313 C   0  0  2  0  0  0  0  0  0  0  0  0
    6.8867   -3.4018   -0.9088 O   0  0  0  0  0  0  0  0  0  0  0  0
    7.5123   -4.1126    0.1748 C   0  0  2  0  0  0  0  0  0  0  0  0
    8.9490   -4.3286   -0.3002 C   0  0  0  0  0  0  0  0  0  0  0  0
    6.9230   -5.4027    0.8245 C   0  0  0  0  0  0  0  0  0  0  0  0
    6.0433   -5.2188    2.0986 C   0  0  0  0  0  0  0  0  0  0  0  0
    4.7892   -4.3760    1.8472 C   0  0  2  0  0  0  0  0  0  0  0  0
    5.1143   -2.9058    1.3397 C   0  0  1  0  0  0  0  0  0  0  0  0
    6.4307   -2.3333    1.1695 O   0  0  0  0  0  0  0  0  0  0  0  0
    7.5366   -3.3266    1.2877 O   0  0  0  0  0  0  0  0  0  0  0  0
    4.5651   -1.9308    2.3717 C   0  0  0  0  0  0  0  0  0  0  0  0
    5.1018   -1.7325    3.4652 O   0  0  0  0  0  0  0  0  0  0  0  0
    5.2973   -3.3468   -2.4614 O   0  0  0  0  0  0  0  0  0  0  0  0
    3.0698   -6.5424    2.4330 H   0  0  0  0  0  0  0  0  0  0  0  0
    2.4266   -5.9804    3.9661 H   0  0  0  0  0  0  0  0  0  0  0  0
    4.1110   -6.4007    3.8531 H   0  0  0  0  0  0  0  0  0  0  0  0
    3.9489   -4.0156    3.8474 H   0  0  0  0  0  0  0  0  0  0  0  0
    1.8171   -4.4326    1.7381 H   0  0  0  0  0  0  0  0  0  0  0  0
    1.5914   -3.8605    3.3509 H   0  0  0  0  0  0  0  0  0  0  0  0
    1.7597   -2.3474    0.9234 H   0  0  0  0  0  0  0  0  0  0  0  0
    1.2660   -1.8635    2.4606 H   0  0  0  0  0  0  0  0  0  0  0  0
    3.0279   -0.5575    2.8069 H   0  0  0  0  0  0  0  0  0  0  0  0
    2.7557    0.1530    0.4852 H   0  0  0  0  0  0  0  0  0  0  0  0
    4.4284    0.2347    0.9575 H   0  0  0  0  0  0  0  0  0  0  0  0
    2.9996   -1.4393   -0.8068 H   0  0  0  0  0  0  0  0  0  0  0  0
    4.3123    0.3162   -1.8514 H   0  0  0  0  0  0  0  0  0  0  0  0
    5.7099   -0.7355   -1.6737 H   0  0  0  0  0  0  0  0  0  0  0  0
    3.0873   -1.0394   -3.1941 H   0  0  0  0  0  0  0  0  0  0  0  0
    4.7084   -1.1623   -3.8096 H   0  0  0  0  0  0  0  0  0  0  0  0
    3.7797   -4.6585   -4.0637 H   0  0  0  0  0  0  0  0  0  0  0  0
    4.5321   -3.3034   -4.8248 H   0  0  0  0  0  0  0  0  0  0  0  0
    2.7709   -3.2888   -4.5476 H   0  0  0  0  0  0  0  0  0  0  0  0
    5.3347   -4.6068   -1.0429 H   0  0  0  0  0  0  0  0  0  0  0  0
    8.9941   -5.0826   -1.1117 H   0  0  0  0  0  0  0  0  0  0  0  0
    9.5179   -4.6950    0.5487 H   0  0  0  0  0  0  0  0  0  0  0  0
    9.3937   -3.4074   -0.6731 H   0  0  0  0  0  0  0  0  0  0  0  0
    6.4263   -6.0615    0.0869 H   0  0  0  0  0  0  0  0  0  0  0  0
    7.7693   -5.9941    1.1849 H   0  0  0  0  0  0  0  0  0  0  0  0
    5.7737   -6.2050    2.4354 H   0  0  0  0  0  0  0  0  0  0  0  0
    6.6061   -4.7871    2.9259 H   0  0  0  0  0  0  0  0  0  0  0  0
    4.3656   -4.9531    1.0352 H   0  0  0  0  0  0  0  0  0  0  0  0
  1  2  1  0
  1 28  1  0
  1 29  1  0
  1 30  1  0
  2 21  1  0
  2  3  1  0
  2 31  1  1
  3  4  1  0
  3 32  1  0
  3 33  1  0
  4  5  1  0
  4 34  1  0
  4 35  1  0
  5 25  1  0
  5  6  1  0
  5 36  1  1
  6  7  1  0
  6 37  1  0
  6 38  1  0
  7 14  1  0
  7  8  1  0
  7 39  1  6
  8  9  1  0
  8 40  1  0
  8 41  1  0
  9 10  1  0
  9 42  1  0
  9 43  1  0
 10 27  1  0
 10 11  1  6
 10 12  1  0
 11 44  1  0
 11 45  1  0
 11 46  1  0
 12 13  1  0
 14 13  1  1
 14 22  1  0
 14 15  1  0
 15 16  1  0
 15 27  1  0
 15 47  1  6
 16 17  1  0
 17 24  1  0
 17 18  1  6
 17 19  1  0
 18 48  1  0
 18 49  1  0
 18 50  1  0
 19 20  1  0
 19 51  1  0
 19 52  1  0
 20 21  1  0
 20 53  1  0
 20 54  1  0
 21 22  1  0
 21 55  1  6
 22 23  1  6
 22 25  1  0
 23 24  1  0
 25 26  2  0
M  END
>  <i_m_ct_stereo_status>  (233) 
1

>  <s_m_source_file>  (233) 
/var/tmp/pbs.5076255.sched01/tmpbaygurib/766rrai79r.sdf

>  <i_m_source_file_index>  (233) 
23

>  <i_lp_mmshare_version>  (233) 
48012

>  <i_f3d_flags>  (233) 
0

>  <s_epik_input>  (233) 
W0NAQF0xMjNDNDVbQ0BASF02W0NASF0oW0NIM10pW0NIMl1bQ0gyXVtDQEBIXShDNT1PKVtDSDJdW0NASF0xW0NIMl1bQ0gyXVtDQF0oW0NIM10pKE9PMilPW0NASF0zT1tDQF0oW0NIM10pKE9PNClbQ0gyXVtDSDJdNg==

>  <s_epik_cmdline>  (233) 
J2VwaWtfcHl0aG9uJywgJy1waHQnLCAnMi4wJywgJy1waCcsICc3LjAnLCAnLXRuJywgJzgnLCAnLW1hJywgJzIwMCcsICctaW1hZScsICc8aW5maWxlLm1hZT4nLCAnLW9tYWUnLCAnPG91dGZpbGUubWFlPic=

>  <r_lp_tautomer_probability>  (233) 
1

>  <r_epik_Ionization_Penalty>  (233) 
6.11559e-11

>  <r_epik_Ionization_Penalty_Charging>  (233) 
0

>  <r_epik_Ionization_Penalty_Neutral>  (233) 
6.11559e-11

>  <r_epik_State_Penalty>  (233) 
-0

>  <r_epik_Charging_Adjusted_Penalty>  (233) 
0

>  <i_epik_Tot_Q>  (233) 
0

>  <i_epik_Tot_abs_Q>  (233) 
0

>  <s_epik_Chemistry_Notes>  (233) 
This compound contains an acetal/aminal-like group ( X-CH(R)-Y where X, Y are N, S, or O) that may be acid/base labile, releasing an aldehyde.

>  <s_lp_Force_Field>  (233) 
OPLS3e

>  <r_lp_Energy>  (233) 
117.95

>  <b_lp_Chiralities_Consistent>  (233) 
1

>  <s_lp_Variant>  (233) 
69:0-2

>  <s_i_glide_gridfile>  (233) 
pfpi4k_grid

>  <i_i_glide_lignum>  (233) 
23

>  <i_i_glide_rotatable_bonds>  (233) 
0

>  <r_i_docking_score>  (233) 
-2.50021

>  <r_i_glide_ligand_efficiency>  (233) 
-0.0926002

>  <r_i_glide_ligand_efficiency_sa>  (233) 
-0.277801

>  <r_i_glide_ligand_efficiency_ln>  (233) 
-0.582007

>  <r_i_glide_gscore>  (233) 
-2.50021

>  <r_i_glide_lipo>  (233) 
-0.202821

>  <r_i_glide_hbond>  (233) 
0

>  <r_i_glide_metal>  (233) 
-0

>  <r_i_glide_rewards>  (233) 
-1.16353

>  <r_i_glide_evdw>  (233) 
-23.0147

>  <r_i_glide_ecoul>  (233) 
0.114266

>  <r_i_glide_erotb>  (233) 
0

>  <r_i_glide_esite>  (233) 
-0.000257859

>  <r_i_glide_emodel>  (233) 
-26.8418

>  <r_i_glide_energy>  (233) 
-22.9004

>  <r_i_glide_einternal>  (233) 
0

>  <r_i_glide_intrahb_reward>  (233) 
-0

>  <i_i_glide_confnum>  (233) 
1

>  <i_i_glide_posenum>  (233) 
11

>  <r_i_glide_eff_state_penalty>  (233) 
0

>  <ligand_id>  (233) 
69

>  <original_smiles>  (233) 
CC1CCC2CC3CCC4(C)OOC35C(OC3(C)CCC1C5(OO3)C2=O)O4

>  <smiles>  (233) 
[H]C([H])([H])C12OOC34C(=O)C([H])(C([H])([H])C([H])([H])C([H])(C([H])([H])[H])C3([H])C([H])([H])C1([H])[H])C([H])([H])C1([H])C([H])([H])C([H])([H])C3(C([H])([H])[H])OOC41C([H])(O2)O3

$$$$
70:0:0
     RDKit          3D

 28 29  0  0  1  0  0  0  0  0999 V2000
    5.6342   -3.1578   -1.3874 C   0  0  0  0  0  0  0  0  0  0  0  0
    4.4595   -2.2354   -0.9752 C   0  0  1  0  0  0  0  0  0  0  0  0
    4.7377   -1.6736    0.3904 N   0  0  0  0  0  0  0  0  0  0  0  0
    4.6596   -0.4243    0.8831 C   0  0  0  0  0  0  0  0  0  0  0  0
    5.0199   -0.3269    2.1557 N   0  0  0  0  0  0  0  0  0  0  0  0
    5.3140   -1.6387    2.4116 C   0  0  0  0  0  0  0  0  0  0  0  0
    5.1396   -2.4824    1.4017 N   0  0  0  0  0  0  0  0  0  0  0  0
    4.4127   -1.1622   -1.8865 O   0  0  0  0  0  0  0  0  0  0  0  0
    3.2019   -1.1764   -2.6605 C   0  0  1  0  0  0  0  0  0  0  0  0
    3.4962   -0.8255   -4.1233 C   0  0  0  0  0  0  0  0  0  0  0  0
    3.6894    0.5611   -4.3138 O   0  0  0  0  0  0  0  0  0  0  0  0
    2.6094   -2.5791   -2.4409 C   0  0  1  0  0  0  0  0  0  0  0  0
    3.1736   -3.4571   -3.4027 O   0  0  0  0  0  0  0  0  0  0  0  0
    3.0540   -2.8680   -1.0122 C   0  0  1  0  0  0  0  0  0  0  0  0
    2.9673   -4.2520   -0.7140 O   0  0  0  0  0  0  0  0  0  0  0  0
    5.7073   -4.0017   -0.7008 H   0  0  0  0  0  0  0  0  0  0  0  0
    6.5695   -2.5981   -1.3582 H   0  0  0  0  0  0  0  0  0  0  0  0
    5.5036   -3.5482   -2.3974 H   0  0  0  0  0  0  0  0  0  0  0  0
    4.3326    0.4200    0.2900 H   0  0  0  0  0  0  0  0  0  0  0  0
    5.6784   -1.9785    3.3703 H   0  0  0  0  0  0  0  0  0  0  0  0
    2.4979   -0.4475   -2.2749 H   0  0  0  0  0  0  0  0  0  0  0  0
    4.3660   -1.3654   -4.4915 H   0  0  0  0  0  0  0  0  0  0  0  0
    2.6414   -1.1218   -4.7236 H   0  0  0  0  0  0  0  0  0  0  0  0
    3.0185    1.0439   -3.8419 H   0  0  0  0  0  0  0  0  0  0  0  0
    1.5196   -2.6135   -2.5439 H   0  0  0  0  0  0  0  0  0  0  0  0
    2.9631   -4.3627   -3.1770 H   0  0  0  0  0  0  0  0  0  0  0  0
    2.4309   -2.3352   -0.2931 H   0  0  0  0  0  0  0  0  0  0  0  0
    3.2687   -4.7668   -1.4486 H   0  0  0  0  0  0  0  0  0  0  0  0
  2  1  1  6
  1 16  1  0
  1 17  1  0
  1 18  1  0
  2 14  1  0
  2  3  1  0
  2  8  1  0
  3  7  1  0
  3  4  1  0
  4  5  2  0
  4 19  1  0
  5  6  1  0
  6  7  2  0
  6 20  1  0
  8  9  1  0
  9 10  1  0
  9 12  1  0
  9 21  1  1
 10 11  1  0
 10 22  1  0
 10 23  1  0
 11 24  1  0
 12 13  1  0
 12 14  1  0
 12 25  1  1
 13 26  1  0
 14 15  1  0
 14 27  1  1
 15 28  1  0
M  END
>  <i_m_ct_stereo_status>  (234) 
1

>  <s_m_source_file>  (234) 
/var/tmp/pbs.5076255.sched01/tmpbaygurib/766rrai79r.sdf

>  <i_m_source_file_index>  (234) 
24

>  <i_lp_mmshare_version>  (234) 
48012

>  <i_f3d_flags>  (234) 
0

>  <s_epik_input>  (234) 
W09IXVtDQEBIXTFbQ0BIXShbT0hdKVtDQEhdKFtDSDJdW09IXSlPW0NAQF0xKFtDSDNdKW4yW2NIXW5bY0hdbjI=

>  <s_epik_cmdline>  (234) 
J2VwaWtfcHl0aG9uJywgJy1waHQnLCAnMi4wJywgJy1waCcsICc3LjAnLCAnLXRuJywgJzgnLCAnLW1hJywgJzIwMCcsICctaW1hZScsICc8aW5maWxlLm1hZT4nLCAnLW9tYWUnLCAnPG91dGZpbGUubWFlPic=

>  <r_lp_tautomer_probability>  (234) 
1

>  <r_epik_Ionization_Penalty>  (234) 
1.13553e-05

>  <r_epik_Ionization_Penalty_Charging>  (234) 
0

>  <r_epik_Ionization_Penalty_Neutral>  (234) 
1.13553e-05

>  <r_epik_State_Penalty>  (234) 
-0

>  <r_epik_Charging_Adjusted_Penalty>  (234) 
0

>  <i_epik_Tot_Q>  (234) 
0

>  <i_epik_Tot_abs_Q>  (234) 
0

>  <s_lp_Force_Field>  (234) 
OPLS3e

>  <r_lp_Energy>  (234) 
7.17131

>  <b_lp_Chiralities_Consistent>  (234) 
1

>  <s_lp_Variant>  (234) 
70:0-1

>  <s_i_glide_gridfile>  (234) 
pfpi4k_grid

>  <i_i_glide_lignum>  (234) 
24

>  <i_i_glide_rotatable_bonds>  (234) 
5

>  <r_i_docking_score>  (234) 
-4.99959

>  <r_i_glide_ligand_efficiency>  (234) 
-0.333306

>  <r_i_glide_ligand_efficiency_sa>  (234) 
-0.822003

>  <r_i_glide_ligand_efficiency_ln>  (234) 
-1.34831

>  <r_i_glide_gscore>  (234) 
-4.99959

>  <r_i_glide_lipo>  (234) 
-0.244554

>  <r_i_glide_hbond>  (234) 
-0.056099

>  <r_i_glide_metal>  (234) 
-0

>  <r_i_glide_rewards>  (234) 
-2.28439

>  <r_i_glide_evdw>  (234) 
-19.8647

>  <r_i_glide_ecoul>  (234) 
-14.1387

>  <r_i_glide_erotb>  (234) 
0.722346

>  <r_i_glide_esite>  (234) 
-0.0228511

>  <r_i_glide_emodel>  (234) 
-43.8198

>  <r_i_glide_energy>  (234) 
-34.0033

>  <r_i_glide_einternal>  (234) 
2.17165

>  <r_i_glide_intrahb_reward>  (234) 
-0

>  <i_i_glide_confnum>  (234) 
4

>  <i_i_glide_posenum>  (234) 
28

>  <r_i_glide_eff_state_penalty>  (234) 
0

>  <ligand_id>  (234) 
70

>  <original_smiles>  (234) 
CC1(n2cncn2)OC(CO)C(O)C1O

>  <smiles>  (234) 
[H]OC([H])([H])C1([H])OC(n2nc([H])nc2[H])(C([H])([H])[H])C([H])(O[H])C1([H])O[H]

$$$$
70:0:1
     RDKit          3D

 28 29  0  0  1  0  0  0  0  0999 V2000
    5.2546   -3.2557    0.2858 C   0  0  0  0  0  0  0  0  0  0  0  0
    3.9213   -2.5188    0.0144 C   0  0  1  0  0  0  0  0  0  0  0  0
    3.4089   -1.9507    1.3135 N   0  0  0  0  0  0  0  0  0  0  0  0
    3.2809   -0.6874    1.7512 C   0  0  0  0  0  0  0  0  0  0  0  0
    2.8734   -0.6041    3.0142 N   0  0  0  0  0  0  0  0  0  0  0  0
    2.7476   -1.9351    3.3059 C   0  0  0  0  0  0  0  0  0  0  0  0
    3.0488   -2.7842    2.3209 N   0  0  0  0  0  0  0  0  0  0  0  0
    4.1950   -1.4602   -0.8661 O   0  0  0  0  0  0  0  0  0  0  0  0
    3.5219   -1.6225   -2.1210 C   0  0  1  0  0  0  0  0  0  0  0  0
    4.4429   -1.1765   -3.2710 C   0  0  0  0  0  0  0  0  0  0  0  0
    3.8540   -1.4085   -4.5385 O   0  0  0  0  0  0  0  0  0  0  0  0
    3.0932   -3.0917   -2.1381 C   0  0  1  0  0  0  0  0  0  0  0  0
    4.1806   -3.8535   -2.6430 O   0  0  0  0  0  0  0  0  0  0  0  0
    2.8055   -3.3476   -0.6588 C   0  0  1  0  0  0  0  0  0  0  0  0
    2.7822   -4.7236   -0.3278 O   0  0  0  0  0  0  0  0  0  0  0  0
    5.0798   -4.0880    0.9646 H   0  0  0  0  0  0  0  0  0  0  0  0
    5.9802   -2.5737    0.7370 H   0  0  0  0  0  0  0  0  0  0  0  0
    5.6918   -3.6594   -0.6295 H   0  0  0  0  0  0  0  0  0  0  0  0
    3.5234    0.1686    1.1406 H   0  0  0  0  0  0  0  0  0  0  0  0
    2.4351   -2.3072    4.2740 H   0  0  0  0  0  0  0  0  0  0  0  0
    2.6302   -0.9967   -2.1133 H   0  0  0  0  0  0  0  0  0  0  0  0
    4.6542   -0.1163   -3.1710 H   0  0  0  0  0  0  0  0  0  0  0  0
    5.3944   -1.7034   -3.1917 H   0  0  0  0  0  0  0  0  0  0  0  0
    2.9673   -1.0772   -4.5332 H   0  0  0  0  0  0  0  0  0  0  0  0
    2.2175   -3.2586   -2.7670 H   0  0  0  0  0  0  0  0  0  0  0  0
    3.9140   -4.7685   -2.7005 H   0  0  0  0  0  0  0  0  0  0  0  0
    1.8364   -2.9190   -0.3995 H   0  0  0  0  0  0  0  0  0  0  0  0
    2.9592   -5.2129   -1.1253 H   0  0  0  0  0  0  0  0  0  0  0  0
  2  1  1  1
  1 16  1  0
  1 17  1  0
  1 18  1  0
  2 14  1  0
  2  3  1  0
  2  8  1  0
  3  7  1  0
  3  4  1  0
  4  5  2  0
  4 19  1  0
  5  6  1  0
  6  7  2  0
  6 20  1  0
  8  9  1  0
  9 10  1  0
  9 12  1  0
  9 21  1  1
 10 11  1  0
 10 22  1  0
 10 23  1  0
 11 24  1  0
 12 13  1  0
 12 14  1  0
 12 25  1  6
 13 26  1  0
 14 15  1  0
 14 27  1  1
 15 28  1  0
M  END
>  <i_m_ct_stereo_status>  (235) 
1

>  <s_m_source_file>  (235) 
/var/tmp/pbs.5076255.sched01/tmpbaygurib/766rrai79r.sdf

>  <i_m_source_file_index>  (235) 
24

>  <i_lp_mmshare_version>  (235) 
48012

>  <i_f3d_flags>  (235) 
0

>  <s_epik_input>  (235) 
W09IXVtDQEBIXTFbQ0BIXShbT0hdKVtDQEhdKFtDSDJdW09IXSlPW0NAQF0xKFtDSDNdKW4yW2NIXW5bY0hdbjI=

>  <s_epik_cmdline>  (235) 
J2VwaWtfcHl0aG9uJywgJy1waHQnLCAnMi4wJywgJy1waCcsICc3LjAnLCAnLXRuJywgJzgnLCAnLW1hJywgJzIwMCcsICctaW1hZScsICc8aW5maWxlLm1hZT4nLCAnLW9tYWUnLCAnPG91dGZpbGUubWFlPic=

>  <r_lp_tautomer_probability>  (235) 
1

>  <r_epik_Ionization_Penalty>  (235) 
1.13553e-05

>  <r_epik_Ionization_Penalty_Charging>  (235) 
0

>  <r_epik_Ionization_Penalty_Neutral>  (235) 
1.13553e-05

>  <r_epik_State_Penalty>  (235) 
-0

>  <r_epik_Charging_Adjusted_Penalty>  (235) 
0

>  <i_epik_Tot_Q>  (235) 
0

>  <i_epik_Tot_abs_Q>  (235) 
0

>  <s_lp_Force_Field>  (235) 
OPLS3e

>  <r_lp_Energy>  (235) 
7.17131

>  <b_lp_Chiralities_Consistent>  (235) 
1

>  <s_lp_Variant>  (235) 
70:0-1

>  <s_i_glide_gridfile>  (235) 
pfpi4k_grid

>  <i_i_glide_lignum>  (235) 
24

>  <i_i_glide_rotatable_bonds>  (235) 
5

>  <r_i_docking_score>  (235) 
-4.26689

>  <r_i_glide_ligand_efficiency>  (235) 
-0.284459

>  <r_i_glide_ligand_efficiency_sa>  (235) 
-0.701536

>  <r_i_glide_ligand_efficiency_ln>  (235) 
-1.15071

>  <r_i_glide_gscore>  (235) 
-4.26689

>  <r_i_glide_lipo>  (235) 
-0.110807

>  <r_i_glide_hbond>  (235) 
0

>  <r_i_glide_metal>  (235) 
-0

>  <r_i_glide_rewards>  (235) 
-1.94177

>  <r_i_glide_evdw>  (235) 
-13.0859

>  <r_i_glide_ecoul>  (235) 
-14.8375

>  <r_i_glide_erotb>  (235) 
0.722346

>  <r_i_glide_esite>  (235) 
-0.0567394

>  <r_i_glide_emodel>  (235) 
-36.4568

>  <r_i_glide_energy>  (235) 
-27.9233

>  <r_i_glide_einternal>  (235) 
1.96419

>  <r_i_glide_intrahb_reward>  (235) 
-0

>  <i_i_glide_confnum>  (235) 
4

>  <i_i_glide_posenum>  (235) 
1

>  <r_i_glide_eff_state_penalty>  (235) 
0

>  <ligand_id>  (235) 
70

>  <original_smiles>  (235) 
CC1(n2cncn2)OC(CO)C(O)C1O

>  <smiles>  (235) 
[H]OC([H])([H])C1([H])OC(n2nc([H])nc2[H])(C([H])([H])[H])C([H])(O[H])C1([H])O[H]

$$$$
70:0:2
     RDKit          3D

 28 29  0  0  1  0  0  0  0  0999 V2000
    5.7489   -2.3075   -0.0720 C   0  0  0  0  0  0  0  0  0  0  0  0
    4.2136   -2.2267   -0.2612 C   0  0  1  0  0  0  0  0  0  0  0  0
    3.5710   -2.0144    1.0852 N   0  0  0  0  0  0  0  0  0  0  0  0
    2.7856   -1.0382    1.5658 C   0  0  0  0  0  0  0  0  0  0  0  0
    2.4637   -1.1875    2.8465 N   0  0  0  0  0  0  0  0  0  0  0  0
    3.1223   -2.3563    3.1140 C   0  0  0  0  0  0  0  0  0  0  0  0
    3.7799   -2.9020    2.0850 N   0  0  0  0  0  0  0  0  0  0  0  0
    3.9276   -1.1143   -1.0685 O   0  0  0  0  0  0  0  0  0  0  0  0
    3.3641   -1.5064   -2.3311 C   0  0  1  0  0  0  0  0  0  0  0  0
    3.9297   -0.6162   -3.4447 C   0  0  0  0  0  0  0  0  0  0  0  0
    3.6036   -1.0930   -4.7280 O   0  0  0  0  0  0  0  0  0  0  0  0
    3.6291   -3.0184   -2.4403 C   0  0  1  0  0  0  0  0  0  0  0  0
    4.8939   -3.2907   -3.0333 O   0  0  0  0  0  0  0  0  0  0  0  0
    3.5667   -3.4284   -0.9700 C   0  0  1  0  0  0  0  0  0  0  0  0
    4.2126   -4.6659   -0.7401 O   0  0  0  0  0  0  0  0  0  0  0  0
    6.0119   -3.1614    0.5531 H   0  0  0  0  0  0  0  0  0  0  0  0
    6.1129   -1.3991    0.4122 H   0  0  0  0  0  0  0  0  0  0  0  0
    6.2670   -2.4167   -1.0272 H   0  0  0  0  0  0  0  0  0  0  0  0
    2.4465   -0.2078    0.9605 H   0  0  0  0  0  0  0  0  0  0  0  0
    3.1302   -2.8190    4.0903 H   0  0  0  0  0  0  0  0  0  0  0  0
    2.2840   -1.3682   -2.3032 H   0  0  0  0  0  0  0  0  0  0  0  0
    3.5962    0.4171   -3.3619 H   0  0  0  0  0  0  0  0  0  0  0  0
    5.0121   -0.6058   -3.3503 H   0  0  0  0  0  0  0  0  0  0  0  0
    2.6649   -1.1703   -4.8158 H   0  0  0  0  0  0  0  0  0  0  0  0
    2.8597   -3.5203   -3.0362 H   0  0  0  0  0  0  0  0  0  0  0  0
    5.1333   -4.1879   -2.8518 H   0  0  0  0  0  0  0  0  0  0  0  0
    2.5220   -3.4955   -0.6612 H   0  0  0  0  0  0  0  0  0  0  0  0
    3.8333   -5.3156   -1.3276 H   0  0  0  0  0  0  0  0  0  0  0  0
  2  1  1  1
  1 16  1  0
  1 17  1  0
  1 18  1  0
  2 14  1  0
  2  3  1  0
  2  8  1  0
  3  7  1  0
  3  4  1  0
  4  5  2  0
  4 19  1  0
  5  6  1  0
  6  7  2  0
  6 20  1  0
  8  9  1  0
  9 10  1  0
  9 12  1  0
  9 21  1  1
 10 11  1  0
 10 22  1  0
 10 23  1  0
 11 24  1  0
 12 13  1  0
 12 14  1  0
 12 25  1  6
 13 26  1  0
 14 15  1  0
 14 27  1  1
 15 28  1  0
M  END
>  <i_m_ct_stereo_status>  (236) 
1

>  <s_m_source_file>  (236) 
/var/tmp/pbs.5076255.sched01/tmpbaygurib/766rrai79r.sdf

>  <i_m_source_file_index>  (236) 
24

>  <i_lp_mmshare_version>  (236) 
48012

>  <i_f3d_flags>  (236) 
0

>  <s_epik_input>  (236) 
W09IXVtDQEBIXTFbQ0BIXShbT0hdKVtDQEhdKFtDSDJdW09IXSlPW0NAQF0xKFtDSDNdKW4yW2NIXW5bY0hdbjI=

>  <s_epik_cmdline>  (236) 
J2VwaWtfcHl0aG9uJywgJy1waHQnLCAnMi4wJywgJy1waCcsICc3LjAnLCAnLXRuJywgJzgnLCAnLW1hJywgJzIwMCcsICctaW1hZScsICc8aW5maWxlLm1hZT4nLCAnLW9tYWUnLCAnPG91dGZpbGUubWFlPic=

>  <r_lp_tautomer_probability>  (236) 
1

>  <r_epik_Ionization_Penalty>  (236) 
1.13553e-05

>  <r_epik_Ionization_Penalty_Charging>  (236) 
0

>  <r_epik_Ionization_Penalty_Neutral>  (236) 
1.13553e-05

>  <r_epik_State_Penalty>  (236) 
-0

>  <r_epik_Charging_Adjusted_Penalty>  (236) 
0

>  <i_epik_Tot_Q>  (236) 
0

>  <i_epik_Tot_abs_Q>  (236) 
0

>  <s_lp_Force_Field>  (236) 
OPLS3e

>  <r_lp_Energy>  (236) 
7.17131

>  <b_lp_Chiralities_Consistent>  (236) 
1

>  <s_lp_Variant>  (236) 
70:0-1

>  <s_i_glide_gridfile>  (236) 
pfpi4k_grid

>  <i_i_glide_lignum>  (236) 
24

>  <i_i_glide_rotatable_bonds>  (236) 
5

>  <r_i_docking_score>  (236) 
-4.09241

>  <r_i_glide_ligand_efficiency>  (236) 
-0.272827

>  <r_i_glide_ligand_efficiency_sa>  (236) 
-0.67285

>  <r_i_glide_ligand_efficiency_ln>  (236) 
-1.10365

>  <r_i_glide_gscore>  (236) 
-4.09241

>  <r_i_glide_lipo>  (236) 
-0.266586

>  <r_i_glide_hbond>  (236) 
0

>  <r_i_glide_metal>  (236) 
-0

>  <r_i_glide_rewards>  (236) 
-1.94177

>  <r_i_glide_evdw>  (236) 
-16.8066

>  <r_i_glide_ecoul>  (236) 
-11.1784

>  <r_i_glide_erotb>  (236) 
0.722346

>  <r_i_glide_esite>  (236) 
-0.0893018

>  <r_i_glide_emodel>  (236) 
-36.3101

>  <r_i_glide_energy>  (236) 
-27.985

>  <r_i_glide_einternal>  (236) 
1.28829

>  <r_i_glide_intrahb_reward>  (236) 
-0

>  <i_i_glide_confnum>  (236) 
4

>  <i_i_glide_posenum>  (236) 
6

>  <r_i_glide_eff_state_penalty>  (236) 
0

>  <ligand_id>  (236) 
70

>  <original_smiles>  (236) 
CC1(n2cncn2)OC(CO)C(O)C1O

>  <smiles>  (236) 
[H]OC([H])([H])C1([H])OC(n2nc([H])nc2[H])(C([H])([H])[H])C([H])(O[H])C1([H])O[H]

$$$$
72:0:0
     RDKit          3D

 77 83  0  0  1  0  0  0  0  0999 V2000
    3.8694   -0.9160   -0.2623 C   0  0  0  0  0  0  0  0  0  0  0  0
    3.8551   -1.7243    0.8066 C   0  0  0  0  0  0  0  0  0  0  0  0
    4.9101   -1.8207    1.8923 C   0  0  0  0  0  0  0  0  0  0  0  0
    5.3329   -3.2920    1.9709 C   0  0  0  0  0  0  0  0  0  0  0  0
    6.1318   -0.9334    1.6190 C   0  0  0  0  0  0  0  0  0  0  0  0
    4.3998   -1.4988    3.1936 O   0  0  0  0  0  0  0  0  0  0  0  0
    3.9701   -0.0365    3.2768 O   0  0  0  0  0  0  0  0  0  0  0  0
    2.8748    0.1120    4.1971 C   0  0  1  0  0  0  0  0  0  0  0  0
    3.2098   -0.1615    5.6957 C   0  0  2  0  0  0  0  0  0  0  0  0
    3.9749    1.2147    5.5902 C   0  0  2  0  0  0  0  0  0  0  0  0
    4.2672    1.0264    7.0551 C   0  0  1  0  0  0  0  0  0  0  0  0
    3.2788    1.6495    8.0467 C   0  0  0  0  0  0  0  0  0  0  0  0
    3.1038    3.1573    7.7799 C   0  0  0  0  0  0  0  0  0  0  0  0
    1.6569    3.5893    7.4748 C   0  0  0  0  0  0  0  0  0  0  0  0
    1.1116    3.4748    6.0128 C   0  0  2  0  0  0  0  0  0  0  0  0
   -0.4561    3.5563    6.0533 C   0  0  1  0  0  0  0  0  0  0  0  0
   -0.9560    4.5850    5.2136 O   0  0  0  0  0  0  0  0  0  0  0  0
   -1.0045    2.1359    5.6971 C   0  0  1  0  0  0  0  0  0  0  0  0
   -2.1073    1.6987    6.6859 C   0  0  0  0  0  0  0  0  0  0  0  0
   -1.5043    1.9272    4.2102 C   0  0  0  0  0  0  0  0  0  0  0  0
   -0.8079    0.8623    3.3010 C   0  0  0  0  0  0  0  0  0  0  0  0
    0.7198    1.0222    3.0151 C   0  0  1  0  0  0  0  0  0  0  0  0
    0.9382    1.2174    1.5027 C   0  0  0  0  0  0  0  0  0  0  0  0
    1.2292    2.2926    3.7182 C   0  0  2  0  0  0  0  0  0  0  0  0
    2.7246    2.6381    3.6896 C   0  0  0  0  0  0  0  0  0  0  0  0
    2.7781    1.5683    4.7541 C   0  0  1  0  0  0  0  0  0  0  0  0
    1.3827    2.1575    5.2517 C   0  0  1  0  0  0  0  0  0  0  0  0
    0.2720    1.3455    5.9488 C   0  0  0  0  0  0  0  0  0  0  0  0
    1.5147   -0.2401    3.5386 C   0  0  1  0  0  0  0  0  0  0  0  0
    1.4586   -1.2829    2.6251 O   0  0  0  0  0  0  0  0  0  0  0  0
    4.3589   -0.4933    6.6828 C   0  0  0  0  0  0  0  0  0  0  0  0
    3.9980   -1.4283    7.8302 C   0  0  0  0  0  0  0  0  0  0  0  0
    5.6923   -1.0216    6.1220 C   0  0  0  0  0  0  0  0  0  0  0  0
    4.6777   -0.2409   -0.4875 H   0  0  0  0  0  0  0  0  0  0  0  0
    3.0452   -0.9345   -0.9493 H   0  0  0  0  0  0  0  0  0  0  0  0
    3.0263   -2.4106    0.8998 H   0  0  0  0  0  0  0  0  0  0  0  0
    5.6874   -3.6316    0.9946 H   0  0  0  0  0  0  0  0  0  0  0  0
    4.4898   -3.9271    2.2480 H   0  0  0  0  0  0  0  0  0  0  0  0
    6.1283   -3.4552    2.6974 H   0  0  0  0  0  0  0  0  0  0  0  0
    6.5769   -1.1777    0.6568 H   0  0  0  0  0  0  0  0  0  0  0  0
    6.9024   -1.0546    2.3755 H   0  0  0  0  0  0  0  0  0  0  0  0
    5.8500    0.1154    1.5951 H   0  0  0  0  0  0  0  0  0  0  0  0
    2.2893   -0.1405    6.2743 H   0  0  0  0  0  0  0  0  0  0  0  0
    4.8955    1.2398    4.9927 H   0  0  0  0  0  0  0  0  0  0  0  0
    5.2735    1.4042    7.2365 H   0  0  0  0  0  0  0  0  0  0  0  0
    2.3179    1.1469    8.0422 H   0  0  0  0  0  0  0  0  0  0  0  0
    3.6399    1.5056    9.0658 H   0  0  0  0  0  0  0  0  0  0  0  0
    3.4129    3.6797    8.6859 H   0  0  0  0  0  0  0  0  0  0  0  0
    3.7802    3.5237    7.0107 H   0  0  0  0  0  0  0  0  0  0  0  0
    1.0018    3.0819    8.1848 H   0  0  0  0  0  0  0  0  0  0  0  0
    1.5767    4.6459    7.7365 H   0  0  0  0  0  0  0  0  0  0  0  0
    1.4948    4.3358    5.4645 H   0  0  0  0  0  0  0  0  0  0  0  0
   -0.7776    3.8189    7.0615 H   0  0  0  0  0  0  0  0  0  0  0  0
   -0.5757    4.4626    4.3655 H   0  0  0  0  0  0  0  0  0  0  0  0
   -2.4166    0.6714    6.5046 H   0  0  0  0  0  0  0  0  0  0  0  0
   -2.9865    2.3348    6.5844 H   0  0  0  0  0  0  0  0  0  0  0  0
   -1.7743    1.7707    7.7198 H   0  0  0  0  0  0  0  0  0  0  0  0
   -2.5507    1.6261    4.2538 H   0  0  0  0  0  0  0  0  0  0  0  0
   -1.5432    2.8600    3.6494 H   0  0  0  0  0  0  0  0  0  0  0  0
   -1.0176   -0.1284    3.6987 H   0  0  0  0  0  0  0  0  0  0  0  0
   -1.3431    0.8644    2.3512 H   0  0  0  0  0  0  0  0  0  0  0  0
    1.9961    1.2490    1.2443 H   0  0  0  0  0  0  0  0  0  0  0  0
    0.4702    2.1364    1.1533 H   0  0  0  0  0  0  0  0  0  0  0  0
    0.4915    0.4221    0.9124 H   0  0  0  0  0  0  0  0  0  0  0  0
    0.6950    3.2019    3.4202 H   0  0  0  0  0  0  0  0  0  0  0  0
    3.2378    2.3769    2.7712 H   0  0  0  0  0  0  0  0  0  0  0  0
    2.9880    3.6397    4.0336 H   0  0  0  0  0  0  0  0  0  0  0  0
    0.4446    1.2668    7.0168 H   0  0  0  0  0  0  0  0  0  0  0  0
    0.1321    0.3226    5.6677 H   0  0  0  0  0  0  0  0  0  0  0  0
    0.9698   -0.7583    4.3112 H   0  0  0  0  0  0  0  0  0  0  0  0
    1.8726   -0.9685    1.8293 H   0  0  0  0  0  0  0  0  0  0  0  0
    4.7468   -1.4106    8.6285 H   0  0  0  0  0  0  0  0  0  0  0  0
    3.8801   -2.4593    7.4998 H   0  0  0  0  0  0  0  0  0  0  0  0
    3.0516   -1.1320    8.2909 H   0  0  0  0  0  0  0  0  0  0  0  0
    6.4773   -1.0361    6.8843 H   0  0  0  0  0  0  0  0  0  0  0  0
    6.0825   -0.4426    5.2859 H   0  0  0  0  0  0  0  0  0  0  0  0
    5.5768   -2.0408    5.7555 H   0  0  0  0  0  0  0  0  0  0  0  0
  1  2  2  0
  1 34  1  0
  1 35  1  0
  2  3  1  0
  2 36  1  0
  3  4  1  0
  3  5  1  0
  3  6  1  0
  4 37  1  0
  4 38  1  0
  4 39  1  0
  5 40  1  0
  5 41  1  0
  5 42  1  0
  6  7  1  0
  8  7  1  6
  8 26  1  0
  8 29  1  0
  8  9  1  0
  9 31  1  0
  9 10  1  0
  9 43  1  1
 10 26  1  0
 10 11  1  0
 10 44  1  6
 11 12  1  0
 11 31  1  0
 11 45  1  1
 12 13  1  0
 12 46  1  0
 12 47  1  0
 13 14  1  0
 13 48  1  0
 13 49  1  0
 14 15  1  0
 14 50  1  0
 14 51  1  0
 15 27  1  0
 15 16  1  0
 15 52  1  6
 16 17  1  0
 16 18  1  0
 16 53  1  1
 17 54  1  0
 18 28  1  0
 18 19  1  1
 18 20  1  0
 19 55  1  0
 19 56  1  0
 19 57  1  0
 20 21  1  0
 20 58  1  0
 20 59  1  0
 21 22  1  0
 21 60  1  0
 21 61  1  0
 22 23  1  6
 22 24  1  0
 22 29  1  0
 23 62  1  0
 23 63  1  0
 23 64  1  0
 24 27  1  0
 24 25  1  0
 24 65  1  1
 26 25  1  6
 25 66  1  0
 25 67  1  0
 26 27  1  0
 27 28  1  1
 28 68  1  0
 28 69  1  0
 29 30  1  0
 29 70  1  1
 30 71  1  0
 31 32  1  0
 31 33  1  0
 32 72  1  0
 32 73  1  0
 32 74  1  0
 33 75  1  0
 33 76  1  0
 33 77  1  0
M  END
>  <i_m_ct_stereo_status>  (237) 
1

>  <s_m_source_file>  (237) 
/var/tmp/pbs.5076255.sched01/tmpbaygurib/766rrai79r.sdf

>  <i_m_source_file_index>  (237) 
26

>  <i_lp_mmshare_version>  (237) 
48012

>  <i_f3d_flags>  (237) 
0

>  <s_epik_input>  (237) 
W09IXVtDQEhdMVtDQF0oW0NIM10pKFtDSDJdMilbQ0gyXVtDSDJdW0NAQF0oW0NIM10pKFtDQEBIXTNbQ0gyXTQpW0NAQEhdKFtPSF0pW0NAXTUoT09DKFtDSDNdKShbQ0gzXSlbQ0hdPVtDSDJdKVtDSF0oQzYoW0NIM10pW0NIM10pW0NAQEhdN1tDQEhdNltDSDJdW0NIMl1bQ0gyXVtDQEhdMVtDQEBdMjNbQ0BdNDU3

>  <s_epik_cmdline>  (237) 
J2VwaWtfcHl0aG9uJywgJy1waHQnLCAnMi4wJywgJy1waCcsICc3LjAnLCAnLXRuJywgJzgnLCAnLW1hJywgJzIwMCcsICctaW1hZScsICc8aW5maWxlLm1hZT4nLCAnLW9tYWUnLCAnPG91dGZpbGUubWFlPic=

>  <r_lp_tautomer_probability>  (237) 
1

>  <r_epik_Ionization_Penalty>  (237) 
1.81588e-06

>  <r_epik_Ionization_Penalty_Charging>  (237) 
0

>  <r_epik_Ionization_Penalty_Neutral>  (237) 
1.81588e-06

>  <r_epik_State_Penalty>  (237) 
-0

>  <r_epik_Charging_Adjusted_Penalty>  (237) 
0

>  <i_epik_Tot_Q>  (237) 
0

>  <i_epik_Tot_abs_Q>  (237) 
0

>  <s_lp_Force_Field>  (237) 
OPLS3e

>  <r_lp_Energy>  (237) 
179.483

>  <b_lp_Chiralities_Consistent>  (237) 
1

>  <s_lp_Variant>  (237) 
72:0-1

>  <s_i_glide_gridfile>  (237) 
pfpi4k_grid

>  <i_i_glide_lignum>  (237) 
26

>  <i_i_glide_rotatable_bonds>  (237) 
6

>  <r_i_docking_score>  (237) 
-1.28074

>  <r_i_glide_ligand_efficiency>  (237) 
-0.0388103

>  <r_i_glide_ligand_efficiency_sa>  (237) 
-0.124486

>  <r_i_glide_ligand_efficiency_ln>  (237) 
-0.28483

>  <r_i_glide_gscore>  (237) 
-1.28074

>  <r_i_glide_lipo>  (237) 
-0.228987

>  <r_i_glide_hbond>  (237) 
0

>  <r_i_glide_metal>  (237) 
-0

>  <r_i_glide_rewards>  (237) 
-0.295519

>  <r_i_glide_evdw>  (237) 
-19.051

>  <r_i_glide_ecoul>  (237) 
-1.26138

>  <r_i_glide_erotb>  (237) 
0.385521

>  <r_i_glide_esite>  (237) 
0

>  <r_i_glide_emodel>  (237) 
-19.3775

>  <r_i_glide_energy>  (237) 
-20.3124

>  <r_i_glide_einternal>  (237) 
4.12208

>  <r_i_glide_intrahb_reward>  (237) 
-0

>  <i_i_glide_confnum>  (237) 
2

>  <i_i_glide_posenum>  (237) 
23

>  <r_i_glide_eff_state_penalty>  (237) 
0

>  <ligand_id>  (237) 
72

>  <original_smiles>  (237) 
C=CC(C)(C)OOC12C3C4C(CCCC5C(O)C6(C)CCC(C)(C7CC41C57C6)C2O)C3(C)C

>  <smiles>  (237) 
[H]OC1([H])C2([H])C([H])([H])C([H])([H])C([H])([H])C3([H])C4([H])C([H])(C5(OOC(C([H])=C([H])[H])(C([H])([H])[H])C([H])([H])[H])C([H])(O[H])C6(C([H])([H])[H])C([H])([H])C([H])([H])C1(C([H])([H])[H])C([H])([H])C21C6([H])C([H])([H])C451)C3(C([H])([H])[H])C([H])([H])[H]

$$$$
72:1:0
     RDKit          3D

 77 83  0  0  1  0  0  0  0  0999 V2000
   -0.4391    0.8161    2.1324 C   0  0  0  0  0  0  0  0  0  0  0  0
    0.8867    0.8270    2.2121 C   0  0  0  0  0  0  0  0  0  0  0  0
    1.7464    1.3375    3.3713 C   0  0  0  0  0  0  0  0  0  0  0  0
    2.7098    2.4336    2.9065 C   0  0  0  0  0  0  0  0  0  0  0  0
    0.8415    1.8667    4.5073 C   0  0  0  0  0  0  0  0  0  0  0  0
    2.5227    0.3146    4.0049 O   0  0  0  0  0  0  0  0  0  0  0  0
    3.5418   -0.2933    3.0654 O   0  0  0  0  0  0  0  0  0  0  0  0
    3.9164   -1.6465    3.4929 C   0  0  1  0  0  0  0  0  0  0  0  0
    4.1099   -1.6226    5.0417 C   0  0  1  0  0  0  0  0  0  0  0  0
    2.6906   -2.2005    5.1629 C   0  0  2  0  0  0  0  0  0  0  0  0
    3.1274   -3.0783    6.3055 C   0  0  1  0  0  0  0  0  0  0  0  0
    2.6609   -4.5287    6.3001 C   0  0  0  0  0  0  0  0  0  0  0  0
    1.2116   -4.7025    5.7772 C   0  0  0  0  0  0  0  0  0  0  0  0
    1.1067   -5.6322    4.5548 C   0  0  0  0  0  0  0  0  0  0  0  0
    1.4416   -5.0702    3.1495 C   0  0  2  0  0  0  0  0  0  0  0  0
    1.7981   -6.1940    2.1255 C   0  0  1  0  0  0  0  0  0  0  0  0
    0.9182   -6.2735    1.0227 O   0  0  0  0  0  0  0  0  0  0  0  0
    3.3165   -6.0266    1.7580 C   0  0  1  0  0  0  0  0  0  0  0  0
    4.0400   -7.3821    1.8367 C   0  0  0  0  0  0  0  0  0  0  0  0
    3.6740   -5.3015    0.3937 C   0  0  0  0  0  0  0  0  0  0  0  0
    4.5051   -3.9598    0.4231 C   0  0  0  0  0  0  0  0  0  0  0  0
    3.8622   -2.7359    1.1709 C   0  0  1  0  0  0  0  0  0  0  0  0
    3.6405   -1.5865    0.1432 C   0  0  0  0  0  0  0  0  0  0  0  0
    2.4919   -3.1916    1.7908 C   0  0  2  0  0  0  0  0  0  0  0  0
    1.6499   -2.2095    2.6506 C   0  0  0  0  0  0  0  0  0  0  0  0
    2.7134   -2.6151    3.6834 C   0  0  1  0  0  0  0  0  0  0  0  0
    2.6290   -4.0964    3.0335 C   0  0  1  0  0  0  0  0  0  0  0  0
    3.7408   -5.1579    2.9297 C   0  0  0  0  0  0  0  0  0  0  0  0
    4.8034   -2.1978    2.3509 C   0  0  1  0  0  0  0  0  0  0  0  0
    5.8414   -1.3147    1.9438 O   0  0  0  0  0  0  0  0  0  0  0  0
    4.6082   -2.6665    6.0853 C   0  0  0  0  0  0  0  0  0  0  0  0
    5.6037   -3.7026    5.5963 C   0  0  0  0  0  0  0  0  0  0  0  0
    5.2361   -2.0427    7.3414 C   0  0  0  0  0  0  0  0  0  0  0  0
   -1.1160    1.2317    2.8685 H   0  0  0  0  0  0  0  0  0  0  0  0
   -0.9050    0.3710    1.2863 H   0  0  0  0  0  0  0  0  0  0  0  0
    1.4595    0.3960    1.3782 H   0  0  0  0  0  0  0  0  0  0  0  0
    2.1571    3.2848    2.5054 H   0  0  0  0  0  0  0  0  0  0  0  0
    3.3554    2.0228    2.1324 H   0  0  0  0  0  0  0  0  0  0  0  0
    3.3371    2.7544    3.7445 H   0  0  0  0  0  0  0  0  0  0  0  0
    0.2008    2.6793    4.1529 H   0  0  0  0  0  0  0  0  0  0  0  0
    1.4267    2.2450    5.3547 H   0  0  0  0  0  0  0  0  0  0  0  0
    0.1955    1.0703    4.8980 H   0  0  0  0  0  0  0  0  0  0  0  0
    4.2257   -0.6130    5.4150 H   0  0  0  0  0  0  0  0  0  0  0  0
    1.9295   -1.4783    5.4422 H   0  0  0  0  0  0  0  0  0  0  0  0
    2.7557   -2.5859    7.2064 H   0  0  0  0  0  0  0  0  0  0  0  0
    3.3426   -5.1327    5.7175 H   0  0  0  0  0  0  0  0  0  0  0  0
    2.7353   -4.9342    7.3087 H   0  0  0  0  0  0  0  0  0  0  0  0
    0.6447   -5.1614    6.5864 H   0  0  0  0  0  0  0  0  0  0  0  0
    0.6945   -3.7574    5.5941 H   0  0  0  0  0  0  0  0  0  0  0  0
    1.7043   -6.5168    4.7518 H   0  0  0  0  0  0  0  0  0  0  0  0
    0.0819   -5.9852    4.5002 H   0  0  0  0  0  0  0  0  0  0  0  0
    0.5242   -4.6086    2.8175 H   0  0  0  0  0  0  0  0  0  0  0  0
    1.6589   -7.1434    2.6347 H   0  0  0  0  0  0  0  0  0  0  0  0
    1.1019   -7.0891    0.5670 H   0  0  0  0  0  0  0  0  0  0  0  0
    5.1172   -7.2648    1.7173 H   0  0  0  0  0  0  0  0  0  0  0  0
    3.6872   -8.0564    1.0593 H   0  0  0  0  0  0  0  0  0  0  0  0
    3.8748   -7.8736    2.7966 H   0  0  0  0  0  0  0  0  0  0  0  0
    4.2613   -5.9969   -0.2005 H   0  0  0  0  0  0  0  0  0  0  0  0
    2.7858   -5.1552   -0.2203 H   0  0  0  0  0  0  0  0  0  0  0  0
    5.5072   -4.1585    0.8075 H   0  0  0  0  0  0  0  0  0  0  0  0
    4.6846   -3.6844   -0.6193 H   0  0  0  0  0  0  0  0  0  0  0  0
    3.2209   -0.6958    0.6022 H   0  0  0  0  0  0  0  0  0  0  0  0
    2.9604   -1.8893   -0.6515 H   0  0  0  0  0  0  0  0  0  0  0  0
    4.5661   -1.2711   -0.3424 H   0  0  0  0  0  0  0  0  0  0  0  0
    1.8504   -3.5810    1.0129 H   0  0  0  0  0  0  0  0  0  0  0  0
    1.7147   -1.2712    2.2010 H   0  0  0  0  0  0  0  0  0  0  0  0
    0.6397   -2.5974    2.9306 H   0  0  0  0  0  0  0  0  0  0  0  0
    3.7677   -5.7613    3.8297 H   0  0  0  0  0  0  0  0  0  0  0  0
    4.7490   -4.8293    2.7831 H   0  0  0  0  0  0  0  0  0  0  0  0
    5.3905   -2.9926    2.7828 H   0  0  0  0  0  0  0  0  0  0  0  0
    6.4170   -1.1733    2.6817 H   0  0  0  0  0  0  0  0  0  0  0  0
    5.8014   -4.4570    6.3566 H   0  0  0  0  0  0  0  0  0  0  0  0
    6.5450   -3.2373    5.3147 H   0  0  0  0  0  0  0  0  0  0  0  0
    5.2289   -4.2070    4.7303 H   0  0  0  0  0  0  0  0  0  0  0  0
    5.3691   -2.7869    8.1276 H   0  0  0  0  0  0  0  0  0  0  0  0
    4.6062   -1.2557    7.7614 H   0  0  0  0  0  0  0  0  0  0  0  0
    6.2081   -1.5912    7.1358 H   0  0  0  0  0  0  0  0  0  0  0  0
  1  2  2  0
  1 34  1  0
  1 35  1  0
  2  3  1  0
  2 36  1  0
  3  4  1  0
  3  5  1  0
  3  6  1  0
  4 37  1  0
  4 38  1  0
  4 39  1  0
  5 40  1  0
  5 41  1  0
  5 42  1  0
  6  7  1  0
  8  7  1  6
  8 26  1  0
  8 29  1  0
  8  9  1  0
  9 31  1  0
  9 10  1  0
  9 43  1  1
 10 26  1  0
 10 11  1  0
 10 44  1  1
 11 12  1  0
 11 31  1  0
 11 45  1  1
 12 13  1  0
 12 46  1  0
 12 47  1  0
 13 14  1  0
 13 48  1  0
 13 49  1  0
 14 15  1  0
 14 50  1  0
 14 51  1  0
 15 27  1  0
 15 16  1  0
 15 52  1  6
 16 17  1  0
 16 18  1  0
 16 53  1  1
 17 54  1  0
 18 28  1  0
 18 19  1  1
 18 20  1  0
 19 55  1  0
 19 56  1  0
 19 57  1  0
 20 21  1  0
 20 58  1  0
 20 59  1  0
 21 22  1  0
 21 60  1  0
 21 61  1  0
 22 23  1  6
 22 24  1  0
 22 29  1  0
 23 62  1  0
 23 63  1  0
 23 64  1  0
 24 27  1  0
 24 25  1  0
 24 65  1  6
 26 25  1  6
 25 66  1  0
 25 67  1  0
 26 27  1  0
 27 28  1  6
 28 68  1  0
 28 69  1  0
 29 30  1  0
 29 70  1  1
 30 71  1  0
 31 32  1  0
 31 33  1  0
 32 72  1  0
 32 73  1  0
 32 74  1  0
 33 75  1  0
 33 76  1  0
 33 77  1  0
M  END
>  <i_m_ct_stereo_status>  (238) 
1

>  <s_m_source_file>  (238) 
/var/tmp/pbs.5076255.sched01/tmpbaygurib/766rrai79r.sdf

>  <i_m_source_file_index>  (238) 
27

>  <i_lp_mmshare_version>  (238) 
48012

>  <i_f3d_flags>  (238) 
0

>  <s_epik_input>  (238) 
W09IXVtDQEhdMVtDQF0oW0NIM10pKFtDSDJdMilbQ0gyXVtDSDJdW0NAQF0oW0NIM10pKFtDQEBIXTNbQ0gyXTQpW0NAQEhdKFtPSF0pW0NAXTUoT09DKFtDSDNdKShbQ0gzXSlbQ0hdPVtDSDJdKVtDSF0oQzYoW0NIM10pW0NIM10pW0NAQEhdN1tDQEhdNltDSDJdW0NIMl1bQ0gyXVtDQEhdMVtDQEBdMjNbQ0BdNDU3

>  <s_epik_cmdline>  (238) 
J2VwaWtfcHl0aG9uJywgJy1waHQnLCAnMi4wJywgJy1waCcsICc3LjAnLCAnLXRuJywgJzgnLCAnLW1hJywgJzIwMCcsICctaW1hZScsICc8aW5maWxlLm1hZT4nLCAnLW9tYWUnLCAnPG91dGZpbGUubWFlPic=

>  <r_lp_tautomer_probability>  (238) 
1

>  <r_epik_Ionization_Penalty>  (238) 
1.81588e-06

>  <r_epik_Ionization_Penalty_Charging>  (238) 
0

>  <r_epik_Ionization_Penalty_Neutral>  (238) 
1.81588e-06

>  <r_epik_State_Penalty>  (238) 
-0

>  <r_epik_Charging_Adjusted_Penalty>  (238) 
0

>  <i_epik_Tot_Q>  (238) 
0

>  <i_epik_Tot_abs_Q>  (238) 
0

>  <s_lp_Force_Field>  (238) 
OPLS3e

>  <r_lp_Energy>  (238) 
161.619

>  <b_lp_Chiralities_Consistent>  (238) 
1

>  <s_lp_Variant>  (238) 
72:0-2

>  <s_i_glide_gridfile>  (238) 
pfpi4k_grid

>  <i_i_glide_lignum>  (238) 
27

>  <i_i_glide_rotatable_bonds>  (238) 
6

>  <r_i_docking_score>  (238) 
-1.68555

>  <r_i_glide_ligand_efficiency>  (238) 
-0.0510774

>  <r_i_glide_ligand_efficiency_sa>  (238) 
-0.163832

>  <r_i_glide_ligand_efficiency_ln>  (238) 
-0.374858

>  <r_i_glide_gscore>  (238) 
-1.68555

>  <r_i_glide_lipo>  (238) 
-0.162882

>  <r_i_glide_hbond>  (238) 
-0.16

>  <r_i_glide_metal>  (238) 
-0

>  <r_i_glide_rewards>  (238) 
-0.295519

>  <r_i_glide_evdw>  (238) 
-18.8722

>  <r_i_glide_ecoul>  (238) 
-3.39375

>  <r_i_glide_erotb>  (238) 
0.385521

>  <r_i_glide_esite>  (238) 
0

>  <r_i_glide_emodel>  (238) 
-18.9108

>  <r_i_glide_energy>  (238) 
-22.266

>  <r_i_glide_einternal>  (238) 
9.28283

>  <r_i_glide_intrahb_reward>  (238) 
-0

>  <i_i_glide_confnum>  (238) 
4

>  <i_i_glide_posenum>  (238) 
4

>  <r_i_glide_eff_state_penalty>  (238) 
0

>  <ligand_id>  (238) 
72

>  <original_smiles>  (238) 
C=CC(C)(C)OOC12C3C4C(CCCC5C(O)C6(C)CCC(C)(C7CC41C57C6)C2O)C3(C)C

>  <smiles>  (238) 
[H]OC1([H])C2([H])C([H])([H])C([H])([H])C([H])([H])C3([H])C4([H])C([H])(C5(OOC(C([H])=C([H])[H])(C([H])([H])[H])C([H])([H])[H])C([H])(O[H])C6(C([H])([H])[H])C([H])([H])C([H])([H])C1(C([H])([H])[H])C([H])([H])C21C6([H])C([H])([H])C451)C3(C([H])([H])[H])C([H])([H])[H]

$$$$
72:1:1
     RDKit          3D

 77 83  0  0  1  0  0  0  0  0999 V2000
    3.5137   -1.6141   -0.5020 C   0  0  0  0  0  0  0  0  0  0  0  0
    4.4457   -2.0802    0.3377 C   0  0  0  0  0  0  0  0  0  0  0  0
    4.8503   -1.4849    1.7041 C   0  0  0  0  0  0  0  0  0  0  0  0
    6.3195   -1.0814    1.6590 C   0  0  0  0  0  0  0  0  0  0  0  0
    3.9672   -0.2871    2.1074 C   0  0  0  0  0  0  0  0  0  0  0  0
    4.7414   -2.3999    2.7762 O   0  0  0  0  0  0  0  0  0  0  0  0
    5.2527   -3.8035    2.4463 O   0  0  0  0  0  0  0  0  0  0  0  0
    4.7880   -4.7886    3.4178 C   0  0  1  0  0  0  0  0  0  0  0  0
    4.9673   -4.1620    4.8398 C   0  0  1  0  0  0  0  0  0  0  0  0
    3.4908   -3.8361    4.8354 C   0  0  2  0  0  0  0  0  0  0  0  0
    3.3756   -4.2059    6.2760 C   0  0  1  0  0  0  0  0  0  0  0  0
    2.1813   -5.0096    6.7524 C   0  0  0  0  0  0  0  0  0  0  0  0
    0.8794   -4.6637    5.9897 C   0  0  0  0  0  0  0  0  0  0  0  0
    0.2752   -5.8568    5.2301 C   0  0  0  0  0  0  0  0  0  0  0  0
    0.8354   -6.2120    3.8152 C   0  0  2  0  0  0  0  0  0  0  0  0
    0.4891   -7.6869    3.4534 C   0  0  1  0  0  0  0  0  0  0  0  0
   -0.2211   -7.7533    2.2222 O   0  0  0  0  0  0  0  0  0  0  0  0
    1.8385   -8.4875    3.4418 C   0  0  1  0  0  0  0  0  0  0  0  0
    1.6853   -9.8221    4.2044 C   0  0  0  0  0  0  0  0  0  0  0  0
    2.5071   -8.7600    2.0268 C   0  0  0  0  0  0  0  0  0  0  0  0
    3.9376   -8.1949    1.7506 C   0  0  0  0  0  0  0  0  0  0  0  0
    4.1120   -6.6368    1.7824 C   0  0  1  0  0  0  0  0  0  0  0  0
    4.5417   -6.1852    0.3766 C   0  0  0  0  0  0  0  0  0  0  0  0
    2.7462   -6.0025    2.1144 C   0  0  2  0  0  0  0  0  0  0  0  0
    2.5433   -4.4890    2.3301 C   0  0  0  0  0  0  0  0  0  0  0  0
    3.2666   -4.7860    3.6381 C   0  0  1  0  0  0  0  0  0  0  0  0
    2.3572   -6.1159    3.6081 C   0  0  1  0  0  0  0  0  0  0  0  0
    2.6739   -7.4918    4.2301 C   0  0  0  0  0  0  0  0  0  0  0  0
    5.2013   -6.1499    2.8444 C   0  0  1  0  0  0  0  0  0  0  0  0
    6.5508   -6.2180    2.4240 O   0  0  0  0  0  0  0  0  0  0  0  0
    4.8508   -4.7147    6.2844 C   0  0  0  0  0  0  0  0  0  0  0  0
    5.1038   -6.1948    6.5156 C   0  0  0  0  0  0  0  0  0  0  0  0
    5.7272   -4.0106    7.3108 C   0  0  0  0  0  0  0  0  0  0  0  0
    2.9854   -0.6965   -0.3428 H   0  0  0  0  0  0  0  0  0  0  0  0
    3.2777   -2.1506   -1.3956 H   0  0  0  0  0  0  0  0  0  0  0  0
    4.9830   -2.9758    0.0651 H   0  0  0  0  0  0  0  0  0  0  0  0
    6.4927   -0.3110    0.9138 H   0  0  0  0  0  0  0  0  0  0  0  0
    6.9299   -1.9402    1.4343 H   0  0  0  0  0  0  0  0  0  0  0  0
    6.6092   -0.7019    2.6314 H   0  0  0  0  0  0  0  0  0  0  0  0
    4.0205    0.5331    1.3896 H   0  0  0  0  0  0  0  0  0  0  0  0
    4.2474    0.1103    3.0735 H   0  0  0  0  0  0  0  0  0  0  0  0
    2.9254   -0.5941    2.1762 H   0  0  0  0  0  0  0  0  0  0  0  0
    5.5604   -3.2473    4.8061 H   0  0  0  0  0  0  0  0  0  0  0  0
    3.2818   -2.7823    4.6444 H   0  0  0  0  0  0  0  0  0  0  0  0
    3.3600   -3.2272    6.7691 H   0  0  0  0  0  0  0  0  0  0  0  0
    2.3861   -6.0775    6.6836 H   0  0  0  0  0  0  0  0  0  0  0  0
    2.0187   -4.8575    7.8310 H   0  0  0  0  0  0  0  0  0  0  0  0
    0.1533   -4.3476    6.7350 H   0  0  0  0  0  0  0  0  0  0  0  0
    0.9827   -3.7961    5.3382 H   0  0  0  0  0  0  0  0  0  0  0  0
    0.3082   -6.7228    5.8884 H   0  0  0  0  0  0  0  0  0  0  0  0
   -0.7890   -5.6456    5.0842 H   0  0  0  0  0  0  0  0  0  0  0  0
    0.2760   -5.5939    3.1172 H   0  0  0  0  0  0  0  0  0  0  0  0
   -0.1751   -8.1106    4.2096 H   0  0  0  0  0  0  0  0  0  0  0  0
   -0.3400   -8.6612    2.0143 H   0  0  0  0  0  0  0  0  0  0  0  0
    2.6456  -10.3269    4.3052 H   0  0  0  0  0  0  0  0  0  0  0  0
    1.0050  -10.4993    3.6859 H   0  0  0  0  0  0  0  0  0  0  0  0
    1.2905   -9.6694    5.2075 H   0  0  0  0  0  0  0  0  0  0  0  0
    2.5899   -9.8422    1.9104 H   0  0  0  0  0  0  0  0  0  0  0  0
    1.8511   -8.4860    1.2009 H   0  0  0  0  0  0  0  0  0  0  0  0
    4.6595   -8.6768    2.4099 H   0  0  0  0  0  0  0  0  0  0  0  0
    4.2178   -8.5553    0.7661 H   0  0  0  0  0  0  0  0  0  0  0  0
    4.7016   -5.1171    0.3392 H   0  0  0  0  0  0  0  0  0  0  0  0
    3.7834   -6.4449   -0.3469 H   0  0  0  0  0  0  0  0  0  0  0  0
    5.4702   -6.6677    0.0673 H   0  0  0  0  0  0  0  0  0  0  0  0
    1.9378   -6.3067    1.4439 H   0  0  0  0  0  0  0  0  0  0  0  0
    3.0590   -3.9314    1.5711 H   0  0  0  0  0  0  0  0  0  0  0  0
    1.5510   -4.1017    2.4781 H   0  0  0  0  0  0  0  0  0  0  0  0
    2.3634   -7.5652    5.2700 H   0  0  0  0  0  0  0  0  0  0  0  0
    3.6962   -7.8394    4.2402 H   0  0  0  0  0  0  0  0  0  0  0  0
    5.2711   -6.8249    3.6892 H   0  0  0  0  0  0  0  0  0  0  0  0
    6.7747   -7.1176    2.3140 H   0  0  0  0  0  0  0  0  0  0  0  0
    4.8731   -6.4839    7.5361 H   0  0  0  0  0  0  0  0  0  0  0  0
    6.1388   -6.4355    6.3130 H   0  0  0  0  0  0  0  0  0  0  0  0
    4.4896   -6.7829    5.8619 H   0  0  0  0  0  0  0  0  0  0  0  0
    5.4480   -4.2587    8.3364 H   0  0  0  0  0  0  0  0  0  0  0  0
    5.6521   -2.9143    7.2313 H   0  0  0  0  0  0  0  0  0  0  0  0
    6.7833   -4.2559    7.1934 H   0  0  0  0  0  0  0  0  0  0  0  0
  1  2  2  0
  1 34  1  0
  1 35  1  0
  2  3  1  0
  2 36  1  0
  3  4  1  0
  3  5  1  0
  3  6  1  0
  4 37  1  0
  4 38  1  0
  4 39  1  0
  5 40  1  0
  5 41  1  0
  5 42  1  0
  6  7  1  0
  8  7  1  6
  8 26  1  0
  8 29  1  0
  8  9  1  0
  9 31  1  0
  9 10  1  0
  9 43  1  6
 10 26  1  0
 10 11  1  0
 10 44  1  6
 11 12  1  0
 11 31  1  0
 11 45  1  1
 12 13  1  0
 12 46  1  0
 12 47  1  0
 13 14  1  0
 13 48  1  0
 13 49  1  0
 14 15  1  0
 14 50  1  0
 14 51  1  0
 15 27  1  0
 15 16  1  0
 15 52  1  6
 16 17  1  0
 16 18  1  0
 16 53  1  1
 17 54  1  0
 18 28  1  0
 18 19  1  1
 18 20  1  0
 19 55  1  0
 19 56  1  0
 19 57  1  0
 20 21  1  0
 20 58  1  0
 20 59  1  0
 21 22  1  0
 21 60  1  0
 21 61  1  0
 22 23  1  6
 22 24  1  0
 22 29  1  0
 23 62  1  0
 23 63  1  0
 23 64  1  0
 24 27  1  0
 24 25  1  0
 24 65  1  6
 26 25  1  6
 25 66  1  0
 25 67  1  0
 26 27  1  0
 27 28  1  1
 28 68  1  0
 28 69  1  0
 29 30  1  0
 29 70  1  1
 30 71  1  0
 31 32  1  0
 31 33  1  0
 32 72  1  0
 32 73  1  0
 32 74  1  0
 33 75  1  0
 33 76  1  0
 33 77  1  0
M  END
>  <i_m_ct_stereo_status>  (239) 
1

>  <s_m_source_file>  (239) 
/var/tmp/pbs.5076255.sched01/tmpbaygurib/766rrai79r.sdf

>  <i_m_source_file_index>  (239) 
27

>  <i_lp_mmshare_version>  (239) 
48012

>  <i_f3d_flags>  (239) 
0

>  <s_epik_input>  (239) 
W09IXVtDQEhdMVtDQF0oW0NIM10pKFtDSDJdMilbQ0gyXVtDSDJdW0NAQF0oW0NIM10pKFtDQEBIXTNbQ0gyXTQpW0NAQEhdKFtPSF0pW0NAXTUoT09DKFtDSDNdKShbQ0gzXSlbQ0hdPVtDSDJdKVtDSF0oQzYoW0NIM10pW0NIM10pW0NAQEhdN1tDQEhdNltDSDJdW0NIMl1bQ0gyXVtDQEhdMVtDQEBdMjNbQ0BdNDU3

>  <s_epik_cmdline>  (239) 
J2VwaWtfcHl0aG9uJywgJy1waHQnLCAnMi4wJywgJy1waCcsICc3LjAnLCAnLXRuJywgJzgnLCAnLW1hJywgJzIwMCcsICctaW1hZScsICc8aW5maWxlLm1hZT4nLCAnLW9tYWUnLCAnPG91dGZpbGUubWFlPic=

>  <r_lp_tautomer_probability>  (239) 
1

>  <r_epik_Ionization_Penalty>  (239) 
1.81588e-06

>  <r_epik_Ionization_Penalty_Charging>  (239) 
0

>  <r_epik_Ionization_Penalty_Neutral>  (239) 
1.81588e-06

>  <r_epik_State_Penalty>  (239) 
-0

>  <r_epik_Charging_Adjusted_Penalty>  (239) 
0

>  <i_epik_Tot_Q>  (239) 
0

>  <i_epik_Tot_abs_Q>  (239) 
0

>  <s_lp_Force_Field>  (239) 
OPLS3e

>  <r_lp_Energy>  (239) 
161.619

>  <b_lp_Chiralities_Consistent>  (239) 
1

>  <s_lp_Variant>  (239) 
72:0-2

>  <s_i_glide_gridfile>  (239) 
pfpi4k_grid

>  <i_i_glide_lignum>  (239) 
27

>  <i_i_glide_rotatable_bonds>  (239) 
6

>  <r_i_docking_score>  (239) 
-1.66743

>  <r_i_glide_ligand_efficiency>  (239) 
-0.0505282

>  <r_i_glide_ligand_efficiency_sa>  (239) 
-0.162071

>  <r_i_glide_ligand_efficiency_ln>  (239) 
-0.370828

>  <r_i_glide_gscore>  (239) 
-1.66743

>  <r_i_glide_lipo>  (239) 
-0.407694

>  <r_i_glide_hbond>  (239) 
0

>  <r_i_glide_metal>  (239) 
-0

>  <r_i_glide_rewards>  (239) 
-0.295519

>  <r_i_glide_evdw>  (239) 
-20.1173

>  <r_i_glide_ecoul>  (239) 
-2.29249

>  <r_i_glide_erotb>  (239) 
0.385521

>  <r_i_glide_esite>  (239) 
0

>  <r_i_glide_emodel>  (239) 
-19.2666

>  <r_i_glide_energy>  (239) 
-22.4098

>  <r_i_glide_einternal>  (239) 
10.5008

>  <r_i_glide_intrahb_reward>  (239) 
-0

>  <i_i_glide_confnum>  (239) 
4

>  <i_i_glide_posenum>  (239) 
23

>  <r_i_glide_eff_state_penalty>  (239) 
0

>  <ligand_id>  (239) 
72

>  <original_smiles>  (239) 
C=CC(C)(C)OOC12C3C4C(CCCC5C(O)C6(C)CCC(C)(C7CC41C57C6)C2O)C3(C)C

>  <smiles>  (239) 
[H]OC1([H])C2([H])C([H])([H])C([H])([H])C([H])([H])C3([H])C4([H])C([H])(C5(OOC(C([H])=C([H])[H])(C([H])([H])[H])C([H])([H])[H])C([H])(O[H])C6(C([H])([H])[H])C([H])([H])C([H])([H])C1(C([H])([H])[H])C([H])([H])C21C6([H])C([H])([H])C451)C3(C([H])([H])[H])C([H])([H])[H]

$$$$
72:1:2
     RDKit          3D

 77 83  0  0  1  0  0  0  0  0999 V2000
   -3.8434    3.3602    9.5995 C   0  0  0  0  0  0  0  0  0  0  0  0
   -2.9999    3.9569    8.7521 C   0  0  0  0  0  0  0  0  0  0  0  0
   -1.5501    4.3141    9.0129 C   0  0  0  0  0  0  0  0  0  0  0  0
   -1.2510    5.7925    8.7782 C   0  0  0  0  0  0  0  0  0  0  0  0
   -1.0855    3.9277   10.4329 C   0  0  0  0  0  0  0  0  0  0  0  0
   -0.7527    3.4965    8.1641 O   0  0  0  0  0  0  0  0  0  0  0  0
   -0.9531    3.8180    6.6689 O   0  0  0  0  0  0  0  0  0  0  0  0
    0.2821    3.6296    5.9291 C   0  0  1  0  0  0  0  0  0  0  0  0
    1.3808    4.4482    6.6600 C   0  0  1  0  0  0  0  0  0  0  0  0
    1.8520    3.1309    7.3167 C   0  0  2  0  0  0  0  0  0  0  0  0
    3.2923    3.5704    7.1558 C   0  0  1  0  0  0  0  0  0  0  0  0
    4.3108    2.5554    6.6726 C   0  0  0  0  0  0  0  0  0  0  0  0
    4.0373    1.1318    7.1981 C   0  0  0  0  0  0  0  0  0  0  0  0
    3.7932    0.1007    6.0770 C   0  0  0  0  0  0  0  0  0  0  0  0
    2.3767   -0.0093    5.4423 C   0  0  2  0  0  0  0  0  0  0  0  0
    2.4684   -0.6707    4.0254 C   0  0  1  0  0  0  0  0  0  0  0  0
    1.6780   -1.8319    3.9374 O   0  0  0  0  0  0  0  0  0  0  0  0
    2.1090    0.4241    2.9702 C   0  0  1  0  0  0  0  0  0  0  0  0
    3.1193    0.4040    1.8055 C   0  0  0  0  0  0  0  0  0  0  0  0
    0.6373    0.4233    2.3975 C   0  0  0  0  0  0  0  0  0  0  0  0
   -0.2767    1.6840    2.6214 C   0  0  0  0  0  0  0  0  0  0  0  0
   -0.6272    2.0999    4.0909 C   0  0  1  0  0  0  0  0  0  0  0  0
   -2.1440    1.9754    4.3087 C   0  0  0  0  0  0  0  0  0  0  0  0
    0.0822    1.0731    5.0396 C   0  0  2  0  0  0  0  0  0  0  0  0
    0.0284    1.2096    6.5713 C   0  0  0  0  0  0  0  0  0  0  0  0
    1.0230    2.3290    6.2979 C   0  0  1  0  0  0  0  0  0  0  0  0
    1.5921    1.3160    5.1904 C   0  0  1  0  0  0  0  0  0  0  0  0
    2.3157    1.6468    3.8522 C   0  0  0  0  0  0  0  0  0  0  0  0
   -0.1418    3.5726    4.4496 C   0  0  1  0  0  0  0  0  0  0  0  0
   -1.0079    4.5976    4.0094 O   0  0  0  0  0  0  0  0  0  0  0  0
    2.8506    4.8205    6.3493 C   0  0  0  0  0  0  0  0  0  0  0  0
    3.2396    4.9327    4.8951 C   0  0  0  0  0  0  0  0  0  0  0  0
    3.3088    6.1383    6.9894 C   0  0  0  0  0  0  0  0  0  0  0  0
   -3.5553    3.0750   10.6046 H   0  0  0  0  0  0  0  0  0  0  0  0
   -4.8668    3.1456    9.3202 H   0  0  0  0  0  0  0  0  0  0  0  0
   -3.3668    4.2267    7.7659 H   0  0  0  0  0  0  0  0  0  0  0  0
   -1.8246    6.4331    9.4526 H   0  0  0  0  0  0  0  0  0  0  0  0
   -1.4584    6.1108    7.7572 H   0  0  0  0  0  0  0  0  0  0  0  0
   -0.2096    6.0173    8.9835 H   0  0  0  0  0  0  0  0  0  0  0  0
   -1.6418    4.4809   11.1887 H   0  0  0  0  0  0  0  0  0  0  0  0
   -0.0328    4.1453   10.5815 H   0  0  0  0  0  0  0  0  0  0  0  0
   -1.2214    2.8681   10.6252 H   0  0  0  0  0  0  0  0  0  0  0  0
    0.9606    5.1271    7.3822 H   0  0  0  0  0  0  0  0  0  0  0  0
    1.5504    3.0426    8.3506 H   0  0  0  0  0  0  0  0  0  0  0  0
    3.5491    3.8881    8.1611 H   0  0  0  0  0  0  0  0  0  0  0  0
    4.3588    2.5660    5.5954 H   0  0  0  0  0  0  0  0  0  0  0  0
    5.3094    2.8723    6.9799 H   0  0  0  0  0  0  0  0  0  0  0  0
    4.9283    0.8213    7.7460 H   0  0  0  0  0  0  0  0  0  0  0  0
    3.2415    1.0823    7.9397 H   0  0  0  0  0  0  0  0  0  0  0  0
    4.5597    0.2632    5.3154 H   0  0  0  0  0  0  0  0  0  0  0  0
    4.0189   -0.8834    6.4943 H   0  0  0  0  0  0  0  0  0  0  0  0
    1.8196   -0.6918    6.0776 H   0  0  0  0  0  0  0  0  0  0  0  0
    3.4963   -1.0043    3.8562 H   0  0  0  0  0  0  0  0  0  0  0  0
    2.0807   -2.4991    4.4986 H   0  0  0  0  0  0  0  0  0  0  0  0
    2.9500    1.2428    1.1377 H   0  0  0  0  0  0  0  0  0  0  0  0
    3.0286   -0.5125    1.2199 H   0  0  0  0  0  0  0  0  0  0  0  0
    4.1481    0.4693    2.1551 H   0  0  0  0  0  0  0  0  0  0  0  0
    0.7065    0.3078    1.3190 H   0  0  0  0  0  0  0  0  0  0  0  0
    0.0919   -0.4669    2.6994 H   0  0  0  0  0  0  0  0  0  0  0  0
    0.1467    2.5343    2.0846 H   0  0  0  0  0  0  0  0  0  0  0  0
   -1.2069    1.4963    2.0808 H   0  0  0  0  0  0  0  0  0  0  0  0
   -2.4459    2.2534    5.3198 H   0  0  0  0  0  0  0  0  0  0  0  0
   -2.4708    0.9475    4.1454 H   0  0  0  0  0  0  0  0  0  0  0  0
   -2.7141    2.6077    3.6211 H   0  0  0  0  0  0  0  0  0  0  0  0
   -0.1751    0.0351    4.8236 H   0  0  0  0  0  0  0  0  0  0  0  0
   -0.9589    1.4520    6.9233 H   0  0  0  0  0  0  0  0  0  0  0  0
    0.4478    0.3963    7.1797 H   0  0  0  0  0  0  0  0  0  0  0  0
    3.3838    1.7764    3.9745 H   0  0  0  0  0  0  0  0  0  0  0  0
    2.0129    2.5150    3.2971 H   0  0  0  0  0  0  0  0  0  0  0  0
    0.7233    3.8537    3.8829 H   0  0  0  0  0  0  0  0  0  0  0  0
   -0.9081    4.6145    3.0572 H   0  0  0  0  0  0  0  0  0  0  0  0
    4.3135    5.0908    4.7660 H   0  0  0  0  0  0  0  0  0  0  0  0
    2.7152    5.7491    4.4052 H   0  0  0  0  0  0  0  0  0  0  0  0
    2.9902    4.0325    4.3547 H   0  0  0  0  0  0  0  0  0  0  0  0
    4.3915    6.2595    6.9291 H   0  0  0  0  0  0  0  0  0  0  0  0
    3.0475    6.1835    8.0415 H   0  0  0  0  0  0  0  0  0  0  0  0
    2.8529    7.0023    6.5125 H   0  0  0  0  0  0  0  0  0  0  0  0
  1  2  2  0
  1 34  1  0
  1 35  1  0
  2  3  1  0
  2 36  1  0
  3  4  1  0
  3  5  1  0
  3  6  1  0
  4 37  1  0
  4 38  1  0
  4 39  1  0
  5 40  1  0
  5 41  1  0
  5 42  1  0
  6  7  1  0
  8  7  1  1
  8 26  1  0
  8 29  1  0
  8  9  1  0
  9 31  1  0
  9 10  1  0
  9 43  1  1
 10 26  1  0
 10 11  1  0
 10 44  1  1
 11 12  1  0
 11 31  1  0
 11 45  1  1
 12 13  1  0
 12 46  1  0
 12 47  1  0
 13 14  1  0
 13 48  1  0
 13 49  1  0
 14 15  1  0
 14 50  1  0
 14 51  1  0
 15 27  1  0
 15 16  1  0
 15 52  1  1
 16 17  1  0
 16 18  1  0
 16 53  1  6
 17 54  1  0
 18 28  1  0
 18 19  1  6
 18 20  1  0
 19 55  1  0
 19 56  1  0
 19 57  1  0
 20 21  1  0
 20 58  1  0
 20 59  1  0
 21 22  1  0
 21 60  1  0
 21 61  1  0
 22 23  1  6
 22 24  1  0
 22 29  1  0
 23 62  1  0
 23 63  1  0
 23 64  1  0
 24 27  1  0
 24 25  1  0
 24 65  1  1
 26 25  1  1
 25 66  1  0
 25 67  1  0
 26 27  1  0
 27 28  1  6
 28 68  1  0
 28 69  1  0
 29 30  1  0
 29 70  1  6
 30 71  1  0
 31 32  1  0
 31 33  1  0
 32 72  1  0
 32 73  1  0
 32 74  1  0
 33 75  1  0
 33 76  1  0
 33 77  1  0
M  END
>  <i_m_ct_stereo_status>  (240) 
1

>  <s_m_source_file>  (240) 
/var/tmp/pbs.5076255.sched01/tmpbaygurib/766rrai79r.sdf

>  <i_m_source_file_index>  (240) 
27

>  <i_lp_mmshare_version>  (240) 
48012

>  <i_f3d_flags>  (240) 
0

>  <s_epik_input>  (240) 
W09IXVtDQEhdMVtDQF0oW0NIM10pKFtDSDJdMilbQ0gyXVtDSDJdW0NAQF0oW0NIM10pKFtDQEBIXTNbQ0gyXTQpW0NAQEhdKFtPSF0pW0NAXTUoT09DKFtDSDNdKShbQ0gzXSlbQ0hdPVtDSDJdKVtDSF0oQzYoW0NIM10pW0NIM10pW0NAQEhdN1tDQEhdNltDSDJdW0NIMl1bQ0gyXVtDQEhdMVtDQEBdMjNbQ0BdNDU3

>  <s_epik_cmdline>  (240) 
J2VwaWtfcHl0aG9uJywgJy1waHQnLCAnMi4wJywgJy1waCcsICc3LjAnLCAnLXRuJywgJzgnLCAnLW1hJywgJzIwMCcsICctaW1hZScsICc8aW5maWxlLm1hZT4nLCAnLW9tYWUnLCAnPG91dGZpbGUubWFlPic=

>  <r_lp_tautomer_probability>  (240) 
1

>  <r_epik_Ionization_Penalty>  (240) 
1.81588e-06

>  <r_epik_Ionization_Penalty_Charging>  (240) 
0

>  <r_epik_Ionization_Penalty_Neutral>  (240) 
1.81588e-06

>  <r_epik_State_Penalty>  (240) 
-0

>  <r_epik_Charging_Adjusted_Penalty>  (240) 
0

>  <i_epik_Tot_Q>  (240) 
0

>  <i_epik_Tot_abs_Q>  (240) 
0

>  <s_lp_Force_Field>  (240) 
OPLS3e

>  <r_lp_Energy>  (240) 
161.619

>  <b_lp_Chiralities_Consistent>  (240) 
1

>  <s_lp_Variant>  (240) 
72:0-2

>  <s_i_glide_gridfile>  (240) 
pfpi4k_grid

>  <i_i_glide_lignum>  (240) 
27

>  <i_i_glide_rotatable_bonds>  (240) 
6

>  <r_i_docking_score>  (240) 
-1.6332

>  <r_i_glide_ligand_efficiency>  (240) 
-0.049491

>  <r_i_glide_ligand_efficiency_sa>  (240) 
-0.158744

>  <r_i_glide_ligand_efficiency_ln>  (240) 
-0.363216

>  <r_i_glide_gscore>  (240) 
-1.6332

>  <r_i_glide_lipo>  (240) 
-0.249808

>  <r_i_glide_hbond>  (240) 
0

>  <r_i_glide_metal>  (240) 
-0

>  <r_i_glide_rewards>  (240) 
-0.295519

>  <r_i_glide_evdw>  (240) 
-19.5138

>  <r_i_glide_ecoul>  (240) 
-3.31805

>  <r_i_glide_erotb>  (240) 
0.385521

>  <r_i_glide_esite>  (240) 
0

>  <r_i_glide_emodel>  (240) 
-20.3618

>  <r_i_glide_energy>  (240) 
-22.8318

>  <r_i_glide_einternal>  (240) 
8.83213

>  <r_i_glide_intrahb_reward>  (240) 
-0

>  <i_i_glide_confnum>  (240) 
4

>  <i_i_glide_posenum>  (240) 
34

>  <r_i_glide_eff_state_penalty>  (240) 
0

>  <ligand_id>  (240) 
72

>  <original_smiles>  (240) 
C=CC(C)(C)OOC12C3C4C(CCCC5C(O)C6(C)CCC(C)(C7CC41C57C6)C2O)C3(C)C

>  <smiles>  (240) 
[H]OC1([H])C2([H])C([H])([H])C([H])([H])C([H])([H])C3([H])C4([H])C([H])(C5(OOC(C([H])=C([H])[H])(C([H])([H])[H])C([H])([H])[H])C([H])(O[H])C6(C([H])([H])[H])C([H])([H])C([H])([H])C1(C([H])([H])[H])C([H])([H])C21C6([H])C([H])([H])C451)C3(C([H])([H])[H])C([H])([H])[H]

$$$$
73:0:0
     RDKit          3D

 51 55  0  0  1  0  0  0  0  0999 V2000
    3.3404   -4.5126    0.1754 C   0  0  0  0  0  0  0  0  0  0  0  0
    4.4220   -4.3795    1.2739 C   0  0  2  0  0  0  0  0  0  0  0  0
    4.4542   -2.9085    1.7958 C   0  0  0  0  0  0  0  0  0  0  0  0
    4.9356   -1.8702    0.7702 C   0  0  0  0  0  0  0  0  0  0  0  0
    6.2766   -2.2829    0.1888 C   0  0  0  0  0  0  0  0  0  0  0  0
    7.2090   -1.4887    0.0869 O   0  0  0  0  0  0  0  0  0  0  0  0
    6.3757   -3.7086   -0.3356 C   0  0  0  0  0  0  0  0  0  0  0  0
    5.7804   -4.7249    0.6360 C   0  0  0  0  0  0  0  0  0  0  0  0
    6.4206   -5.8793    0.8811 C   0  0  0  0  0  0  0  0  0  0  0  0
    5.8916   -7.0095    1.7375 C   0  0  0  0  0  0  0  0  0  0  0  0
    4.4230   -6.8315    2.1827 C   0  0  2  0  0  0  0  0  0  0  0  0
    4.1322   -5.3422    2.4854 C   0  0  2  0  0  0  0  0  0  0  0  0
    2.7136   -5.2066    3.0662 C   0  0  0  0  0  0  0  0  0  0  0  0
    2.6126   -5.9941    4.3650 C   0  0  0  0  0  0  0  0  0  0  0  0
    2.8045   -7.5187    4.1775 C   0  0  1  0  0  0  0  0  0  0  0  0
    2.9203   -8.1521    5.5852 C   0  0  0  0  0  0  0  0  0  0  0  0
    1.7195   -8.3110    3.4363 C   0  0  0  0  0  0  0  0  0  0  0  0
    0.2828   -8.1199    3.4387 C   0  0  0  0  0  0  0  0  0  0  0  0
   -0.4269   -7.2425    4.2131 C   0  0  0  0  0  0  0  0  0  0  0  0
   -1.8065   -7.3177    3.9924 N   0  0  0  0  0  0  0  0  0  0  0  0
   -2.1755   -8.2291    3.1386 N   0  0  0  0  0  0  0  0  0  0  0  0
   -0.8521   -9.0515    2.5282 S   0  0  0  0  0  0  0  0  0  0  0  0
    2.3068   -9.2485    2.6830 C   0  0  0  0  0  0  0  0  0  0  0  0
    3.8101   -9.2282    2.7583 C   0  0  0  0  0  0  0  0  0  0  0  0
    4.1008   -7.8274    3.3509 C   0  0  1  0  0  0  0  0  0  0  0  0
    2.3567   -4.2034    0.5303 H   0  0  0  0  0  0  0  0  0  0  0  0
    3.2673   -5.5395   -0.1850 H   0  0  0  0  0  0  0  0  0  0  0  0
    3.5703   -3.8982   -0.6967 H   0  0  0  0  0  0  0  0  0  0  0  0
    3.4685   -2.5952    2.1400 H   0  0  0  0  0  0  0  0  0  0  0  0
    5.1107   -2.8404    2.6647 H   0  0  0  0  0  0  0  0  0  0  0  0
    4.2264   -1.7762   -0.0498 H   0  0  0  0  0  0  0  0  0  0  0  0
    5.0195   -0.8823    1.2225 H   0  0  0  0  0  0  0  0  0  0  0  0
    5.8381   -3.7577   -1.2810 H   0  0  0  0  0  0  0  0  0  0  0  0
    7.4203   -3.9438   -0.5402 H   0  0  0  0  0  0  0  0  0  0  0  0
    7.3765   -6.0712    0.4116 H   0  0  0  0  0  0  0  0  0  0  0  0
    5.9925   -7.9329    1.1670 H   0  0  0  0  0  0  0  0  0  0  0  0
    6.5563   -7.0934    2.5966 H   0  0  0  0  0  0  0  0  0  0  0  0
    3.7835   -7.1004    1.3427 H   0  0  0  0  0  0  0  0  0  0  0  0
    4.8276   -5.0601    3.2765 H   0  0  0  0  0  0  0  0  0  0  0  0
    2.4836   -4.1664    3.2889 H   0  0  0  0  0  0  0  0  0  0  0  0
    1.9620   -5.5608    2.3600 H   0  0  0  0  0  0  0  0  0  0  0  0
    3.3962   -5.6393    5.0352 H   0  0  0  0  0  0  0  0  0  0  0  0
    1.6974   -5.7301    4.8787 H   0  0  0  0  0  0  0  0  0  0  0  0
    3.7489   -7.7252    6.1520 H   0  0  0  0  0  0  0  0  0  0  0  0
    3.0796   -9.2331    5.5381 H   0  0  0  0  0  0  0  0  0  0  0  0
    2.0053   -7.9947    6.1613 H   0  0  0  0  0  0  0  0  0  0  0  0
   -0.1027   -6.5357    4.9502 H   0  0  0  0  0  0  0  0  0  0  0  0
    1.7940   -9.9637    2.0584 H   0  0  0  0  0  0  0  0  0  0  0  0
    4.1274  -10.0309    3.4259 H   0  0  0  0  0  0  0  0  0  0  0  0
    4.2533   -9.4046    1.7768 H   0  0  0  0  0  0  0  0  0  0  0  0
    4.9577   -7.8732    4.0268 H   0  0  0  0  0  0  0  0  0  0  0  0
  2  1  1  6
  1 26  1  0
  1 27  1  0
  1 28  1  0
  2  8  1  0
  2 12  1  0
  2  3  1  0
  3  4  1  0
  3 29  1  0
  3 30  1  0
  4  5  1  0
  4 31  1  0
  4 32  1  0
  5  6  2  0
  5  7  1  0
  7  8  1  0
  7 33  1  0
  7 34  1  0
  8  9  2  0
  9 10  1  0
  9 35  1  0
 10 11  1  0
 10 36  1  0
 10 37  1  0
 11 25  1  0
 11 12  1  0
 11 38  1  6
 12 13  1  0
 12 39  1  1
 13 14  1  0
 13 40  1  0
 13 41  1  0
 14 15  1  0
 14 42  1  0
 14 43  1  0
 15 25  1  0
 15 16  1  1
 15 17  1  0
 16 44  1  0
 16 45  1  0
 16 46  1  0
 17 18  1  0
 17 23  2  0
 18 22  1  0
 18 19  2  0
 19 20  1  0
 19 47  1  0
 20 21  2  0
 21 22  1  0
 23 24  1  0
 23 48  1  0
 24 25  1  0
 24 49  1  0
 24 50  1  0
 25 51  1  1
M  END
>  <i_m_ct_stereo_status>  (241) 
1

>  <s_m_source_file>  (241) 
/var/tmp/pbs.5076255.sched01/tmpbaygurib/766rrai79r.sdf

>  <i_m_source_file_index>  (241) 
28

>  <i_lp_mmshare_version>  (241) 
48012

>  <i_f3d_flags>  (241) 
0

>  <s_epik_input>  (241) 
W0NIMl0xW0NIMl1DKD1PKVtDSDJdQyhbQ0BdMTJbQ0gzXSk9W0NIXVtDSDJdW0NAQEhdM1tDQEBIXTJbQ0gyXVtDSDJdW0NAXTQoW0NIM10pW0NASF0zW0NIMl1bQ0hdPUM0YzVbY0hdbm5zNQ==

>  <s_epik_cmdline>  (241) 
J2VwaWtfcHl0aG9uJywgJy1waHQnLCAnMi4wJywgJy1waCcsICc3LjAnLCAnLXRuJywgJzgnLCAnLW1hJywgJzIwMCcsICctaW1hZScsICc8aW5maWxlLm1hZT4nLCAnLW9tYWUnLCAnPG91dGZpbGUubWFlPic=

>  <r_lp_tautomer_probability>  (241) 
1

>  <r_epik_Ionization_Penalty>  (241) 
8.83041e-09

>  <r_epik_Ionization_Penalty_Charging>  (241) 
0

>  <r_epik_Ionization_Penalty_Neutral>  (241) 
8.83041e-09

>  <r_epik_State_Penalty>  (241) 
-0

>  <r_epik_Charging_Adjusted_Penalty>  (241) 
0

>  <i_epik_Tot_Q>  (241) 
0

>  <i_epik_Tot_abs_Q>  (241) 
0

>  <s_lp_Force_Field>  (241) 
OPLS3e

>  <r_lp_Energy>  (241) 
28.53

>  <b_lp_Chiralities_Consistent>  (241) 
1

>  <s_lp_Variant>  (241) 
73:0-1

>  <s_i_glide_gridfile>  (241) 
pfpi4k_grid

>  <i_i_glide_lignum>  (241) 
28

>  <i_i_glide_rotatable_bonds>  (241) 
1

>  <r_i_docking_score>  (241) 
-3.39582

>  <r_i_glide_ligand_efficiency>  (241) 
-0.135833

>  <r_i_glide_ligand_efficiency_sa>  (241) 
-0.397178

>  <r_i_glide_ligand_efficiency_ln>  (241) 
-0.804911

>  <r_i_glide_gscore>  (241) 
-3.39582

>  <r_i_glide_lipo>  (241) 
-0.497417

>  <r_i_glide_hbond>  (241) 
-0.101382

>  <r_i_glide_metal>  (241) 
-0

>  <r_i_glide_rewards>  (241) 
-1.04181

>  <r_i_glide_evdw>  (241) 
-28.6628

>  <r_i_glide_ecoul>  (241) 
-2.46772

>  <r_i_glide_erotb>  (241) 
0.152053

>  <r_i_glide_esite>  (241) 
-0.103967

>  <r_i_glide_emodel>  (241) 
-37.4214

>  <r_i_glide_energy>  (241) 
-31.1305

>  <r_i_glide_einternal>  (241) 
0.000443131

>  <r_i_glide_intrahb_reward>  (241) 
-0

>  <i_i_glide_confnum>  (241) 
1

>  <i_i_glide_posenum>  (241) 
17

>  <r_i_glide_eff_state_penalty>  (241) 
0

>  <ligand_id>  (241) 
73

>  <original_smiles>  (241) 
CC12CCC(=O)CC1=CCC1C2CCC2(C)C(c3cnns3)=CCC12

>  <smiles>  (241) 
[H]C1=C2C([H])([H])C(=O)C([H])([H])C([H])([H])C2(C([H])([H])[H])C2([H])C([H])([H])C([H])([H])C3(C([H])([H])[H])C(c4snnc4[H])=C([H])C([H])([H])C3([H])C2([H])C1([H])[H]

$$$$
73:0:1
     RDKit          3D

 51 55  0  0  1  0  0  0  0  0999 V2000
    3.4506   -4.7925    0.0852 C   0  0  0  0  0  0  0  0  0  0  0  0
    4.3881   -4.5013    1.2813 C   0  0  2  0  0  0  0  0  0  0  0  0
    4.2620   -2.9975    1.6811 C   0  0  0  0  0  0  0  0  0  0  0  0
    4.7859   -2.0029    0.6324 C   0  0  0  0  0  0  0  0  0  0  0  0
    6.2086   -2.3520    0.2262 C   0  0  0  0  0  0  0  0  0  0  0  0
    7.0880   -1.4966    0.1501 O   0  0  0  0  0  0  0  0  0  0  0  0
    6.4633   -3.8027   -0.1614 C   0  0  0  0  0  0  0  0  0  0  0  0
    5.8290   -4.7885    0.8187 C   0  0  0  0  0  0  0  0  0  0  0  0
    6.5129   -5.8774    1.2137 C   0  0  0  0  0  0  0  0  0  0  0  0
    5.9669   -6.9704    2.1083 C   0  0  0  0  0  0  0  0  0  0  0  0
    4.4476   -6.8725    2.3774 C   0  0  2  0  0  0  0  0  0  0  0  0
    4.0259   -5.3916    2.5276 C   0  0  2  0  0  0  0  0  0  0  0  0
    2.5433   -5.3224    2.9341 C   0  0  0  0  0  0  0  0  0  0  0  0
    2.3400   -6.0243    4.2705 C   0  0  0  0  0  0  0  0  0  0  0  0
    2.6639   -7.5374    4.2353 C   0  0  1  0  0  0  0  0  0  0  0  0
    2.6662   -8.0532    5.6937 C   0  0  0  0  0  0  0  0  0  0  0  0
    1.7119   -8.4557    3.4690 C   0  0  0  0  0  0  0  0  0  0  0  0
    0.2748   -8.3094    3.3780 C   0  0  0  0  0  0  0  0  0  0  0  0
   -0.5364   -8.9693    2.4895 C   0  0  0  0  0  0  0  0  0  0  0  0
   -1.8901   -8.6325    2.6356 N   0  0  0  0  0  0  0  0  0  0  0  0
   -2.1363   -7.8011    3.6079 N   0  0  0  0  0  0  0  0  0  0  0  0
   -0.7375   -7.4088    4.4411 S   0  0  0  0  0  0  0  0  0  0  0  0
    2.4290   -9.3922    2.8280 C   0  0  0  0  0  0  0  0  0  0  0  0
    3.9177   -9.2613    3.0627 C   0  0  0  0  0  0  0  0  0  0  0  0
    4.0577   -7.8074    3.5741 C   0  0  1  0  0  0  0  0  0  0  0  0
    2.4135   -4.5347    0.3037 H   0  0  0  0  0  0  0  0  0  0  0  0
    3.4877   -5.8470   -0.1922 H   0  0  0  0  0  0  0  0  0  0  0  0
    3.7380   -4.2283   -0.8054 H   0  0  0  0  0  0  0  0  0  0  0  0
    3.2240   -2.7366    1.8897 H   0  0  0  0  0  0  0  0  0  0  0  0
    4.8071   -2.8149    2.6087 H   0  0  0  0  0  0  0  0  0  0  0  0
    4.1670   -2.0247   -0.2622 H   0  0  0  0  0  0  0  0  0  0  0  0
    4.7469   -0.9814    1.0107 H   0  0  0  0  0  0  0  0  0  0  0  0
    6.0422   -3.9578   -1.1518 H   0  0  0  0  0  0  0  0  0  0  0  0
    7.5369   -3.9748   -0.2292 H   0  0  0  0  0  0  0  0  0  0  0  0
    7.5297   -6.0280    0.8730 H   0  0  0  0  0  0  0  0  0  0  0  0
    6.1950   -7.9241    1.6330 H   0  0  0  0  0  0  0  0  0  0  0  0
    6.5348   -6.9327    3.0386 H   0  0  0  0  0  0  0  0  0  0  0  0
    3.9283   -7.2500    1.4973 H   0  0  0  0  0  0  0  0  0  0  0  0
    4.6055   -4.9997    3.3646 H   0  0  0  0  0  0  0  0  0  0  0  0
    2.2189   -4.2895    3.0510 H   0  0  0  0  0  0  0  0  0  0  0  0
    1.9023   -5.7803    2.1813 H   0  0  0  0  0  0  0  0  0  0  0  0
    3.0086   -5.5603    4.9971 H   0  0  0  0  0  0  0  0  0  0  0  0
    1.3421   -5.8043    4.6407 H   0  0  0  0  0  0  0  0  0  0  0  0
    3.3932   -7.5203    6.3069 H   0  0  0  0  0  0  0  0  0  0  0  0
    2.8985   -9.1214    5.7542 H   0  0  0  0  0  0  0  0  0  0  0  0
    1.6841   -7.9207    6.1558 H   0  0  0  0  0  0  0  0  0  0  0  0
   -0.2653   -9.6819    1.7395 H   0  0  0  0  0  0  0  0  0  0  0  0
    2.0392  -10.1932    2.2124 H   0  0  0  0  0  0  0  0  0  0  0  0
    4.2125   -9.9823    3.8268 H   0  0  0  0  0  0  0  0  0  0  0  0
    4.4965   -9.4771    2.1632 H   0  0  0  0  0  0  0  0  0  0  0  0
    4.8320   -7.7388    4.3403 H   0  0  0  0  0  0  0  0  0  0  0  0
  2  1  1  6
  1 26  1  0
  1 27  1  0
  1 28  1  0
  2  8  1  0
  2 12  1  0
  2  3  1  0
  3  4  1  0
  3 29  1  0
  3 30  1  0
  4  5  1  0
  4 31  1  0
  4 32  1  0
  5  6  2  0
  5  7  1  0
  7  8  1  0
  7 33  1  0
  7 34  1  0
  8  9  2  0
  9 10  1  0
  9 35  1  0
 10 11  1  0
 10 36  1  0
 10 37  1  0
 11 25  1  0
 11 12  1  0
 11 38  1  6
 12 13  1  0
 12 39  1  1
 13 14  1  0
 13 40  1  0
 13 41  1  0
 14 15  1  0
 14 42  1  0
 14 43  1  0
 15 25  1  0
 15 16  1  1
 15 17  1  0
 16 44  1  0
 16 45  1  0
 16 46  1  0
 17 18  1  0
 17 23  2  0
 18 22  1  0
 18 19  2  0
 19 20  1  0
 19 47  1  0
 20 21  2  0
 21 22  1  0
 23 24  1  0
 23 48  1  0
 24 25  1  0
 24 49  1  0
 24 50  1  0
 25 51  1  1
M  END
>  <i_m_ct_stereo_status>  (242) 
1

>  <s_m_source_file>  (242) 
/var/tmp/pbs.5076255.sched01/tmpbaygurib/766rrai79r.sdf

>  <i_m_source_file_index>  (242) 
28

>  <i_lp_mmshare_version>  (242) 
48012

>  <i_f3d_flags>  (242) 
0

>  <s_epik_input>  (242) 
W0NIMl0xW0NIMl1DKD1PKVtDSDJdQyhbQ0BdMTJbQ0gzXSk9W0NIXVtDSDJdW0NAQEhdM1tDQEBIXTJbQ0gyXVtDSDJdW0NAXTQoW0NIM10pW0NASF0zW0NIMl1bQ0hdPUM0YzVbY0hdbm5zNQ==

>  <s_epik_cmdline>  (242) 
J2VwaWtfcHl0aG9uJywgJy1waHQnLCAnMi4wJywgJy1waCcsICc3LjAnLCAnLXRuJywgJzgnLCAnLW1hJywgJzIwMCcsICctaW1hZScsICc8aW5maWxlLm1hZT4nLCAnLW9tYWUnLCAnPG91dGZpbGUubWFlPic=

>  <r_lp_tautomer_probability>  (242) 
1

>  <r_epik_Ionization_Penalty>  (242) 
8.83041e-09

>  <r_epik_Ionization_Penalty_Charging>  (242) 
0

>  <r_epik_Ionization_Penalty_Neutral>  (242) 
8.83041e-09

>  <r_epik_State_Penalty>  (242) 
-0

>  <r_epik_Charging_Adjusted_Penalty>  (242) 
0

>  <i_epik_Tot_Q>  (242) 
0

>  <i_epik_Tot_abs_Q>  (242) 
0

>  <s_lp_Force_Field>  (242) 
OPLS3e

>  <r_lp_Energy>  (242) 
28.53

>  <b_lp_Chiralities_Consistent>  (242) 
1

>  <s_lp_Variant>  (242) 
73:0-1

>  <s_i_glide_gridfile>  (242) 
pfpi4k_grid

>  <i_i_glide_lignum>  (242) 
28

>  <i_i_glide_rotatable_bonds>  (242) 
1

>  <r_i_docking_score>  (242) 
-3.19668

>  <r_i_glide_ligand_efficiency>  (242) 
-0.127867

>  <r_i_glide_ligand_efficiency_sa>  (242) 
-0.373886

>  <r_i_glide_ligand_efficiency_ln>  (242) 
-0.757709

>  <r_i_glide_gscore>  (242) 
-3.19668

>  <r_i_glide_lipo>  (242) 
-0.352446

>  <r_i_glide_hbond>  (242) 
-0.0764715

>  <r_i_glide_metal>  (242) 
-0

>  <r_i_glide_rewards>  (242) 
-1.05033

>  <r_i_glide_evdw>  (242) 
-27.7309

>  <r_i_glide_ecoul>  (242) 
-2.79808

>  <r_i_glide_erotb>  (242) 
0.152053

>  <r_i_glide_esite>  (242) 
-0.0632315

>  <r_i_glide_emodel>  (242) 
-35.8001

>  <r_i_glide_energy>  (242) 
-30.529

>  <r_i_glide_einternal>  (242) 
1.7856

>  <r_i_glide_intrahb_reward>  (242) 
-0

>  <i_i_glide_confnum>  (242) 
4

>  <i_i_glide_posenum>  (242) 
25

>  <r_i_glide_eff_state_penalty>  (242) 
0

>  <ligand_id>  (242) 
73

>  <original_smiles>  (242) 
CC12CCC(=O)CC1=CCC1C2CCC2(C)C(c3cnns3)=CCC12

>  <smiles>  (242) 
[H]C1=C2C([H])([H])C(=O)C([H])([H])C([H])([H])C2(C([H])([H])[H])C2([H])C([H])([H])C([H])([H])C3(C([H])([H])[H])C(c4snnc4[H])=C([H])C([H])([H])C3([H])C2([H])C1([H])[H]

$$$$
73:0:2
     RDKit          3D

 51 55  0  0  1  0  0  0  0  0999 V2000
    0.2116   -7.6290    3.3211 C   0  0  0  0  0  0  0  0  0  0  0  0
    1.4088   -7.9776    4.2376 C   0  0  2  0  0  0  0  0  0  0  0  0
    2.6619   -8.2845    3.3576 C   0  0  0  0  0  0  0  0  0  0  0  0
    2.5535   -9.5577    2.5027 C   0  0  0  0  0  0  0  0  0  0  0  0
    2.1846  -10.7452    3.3762 C   0  0  0  0  0  0  0  0  0  0  0  0
    2.8058  -11.8003    3.3163 O   0  0  0  0  0  0  0  0  0  0  0  0
    0.9789  -10.5659    4.2902 C   0  0  0  0  0  0  0  0  0  0  0  0
    1.0228   -9.2356    5.0410 C   0  0  0  0  0  0  0  0  0  0  0  0
    0.7027   -9.1920    6.3454 C   0  0  0  0  0  0  0  0  0  0  0  0
    0.6344   -7.9331    7.1854 C   0  0  0  0  0  0  0  0  0  0  0  0
    0.7385   -6.6220    6.3703 C   0  0  2  0  0  0  0  0  0  0  0  0
    1.7518   -6.7889    5.2124 C   0  0  2  0  0  0  0  0  0  0  0  0
    1.9600   -5.4325    4.5086 C   0  0  0  0  0  0  0  0  0  0  0  0
    2.5224   -4.4204    5.5038 C   0  0  0  0  0  0  0  0  0  0  0  0
    1.5421   -4.1005    6.6537 C   0  0  1  0  0  0  0  0  0  0  0  0
    2.3147   -3.2511    7.6921 C   0  0  0  0  0  0  0  0  0  0  0  0
    0.2498   -3.3375    6.3218 C   0  0  0  0  0  0  0  0  0  0  0  0
    0.0294   -2.2483    5.3833 C   0  0  0  0  0  0  0  0  0  0  0  0
    0.8742   -1.7914    4.4027 C   0  0  0  0  0  0  0  0  0  0  0  0
    0.3564   -0.6846    3.7021 N   0  0  0  0  0  0  0  0  0  0  0  0
   -0.8216   -0.2920    4.0945 N   0  0  0  0  0  0  0  0  0  0  0  0
   -1.3947   -1.2692    5.3256 S   0  0  0  0  0  0  0  0  0  0  0  0
   -0.7335   -3.8250    7.0944 C   0  0  0  0  0  0  0  0  0  0  0  0
   -0.3093   -4.9666    7.9833 C   0  0  0  0  0  0  0  0  0  0  0  0
    1.0226   -5.4165    7.3340 C   0  0  1  0  0  0  0  0  0  0  0  0
    0.4377   -6.7949    2.6564 H   0  0  0  0  0  0  0  0  0  0  0  0
   -0.6718   -7.3742    3.9075 H   0  0  0  0  0  0  0  0  0  0  0  0
   -0.0682   -8.4738    2.6890 H   0  0  0  0  0  0  0  0  0  0  0  0
    2.8829   -7.4547    2.6864 H   0  0  0  0  0  0  0  0  0  0  0  0
    3.5413   -8.3913    3.9955 H   0  0  0  0  0  0  0  0  0  0  0  0
    1.7936   -9.4504    1.7310 H   0  0  0  0  0  0  0  0  0  0  0  0
    3.4916   -9.7646    1.9866 H   0  0  0  0  0  0  0  0  0  0  0  0
    0.0785  -10.6033    3.6819 H   0  0  0  0  0  0  0  0  0  0  0  0
    0.9321  -11.3964    4.9958 H   0  0  0  0  0  0  0  0  0  0  0  0
    0.4589  -10.1123    6.8632 H   0  0  0  0  0  0  0  0  0  0  0  0
   -0.3017   -7.9584    7.7385 H   0  0  0  0  0  0  0  0  0  0  0  0
    1.4313   -7.9950    7.9267 H   0  0  0  0  0  0  0  0  0  0  0  0
   -0.2273   -6.4401    5.8991 H   0  0  0  0  0  0  0  0  0  0  0  0
    2.7002   -7.0457    5.6863 H   0  0  0  0  0  0  0  0  0  0  0  0
    2.6690   -5.5273    3.6890 H   0  0  0  0  0  0  0  0  0  0  0  0
    1.0248   -5.0653    4.0833 H   0  0  0  0  0  0  0  0  0  0  0  0
    3.4259   -4.8523    5.9386 H   0  0  0  0  0  0  0  0  0  0  0  0
    2.8856   -3.5320    5.0025 H   0  0  0  0  0  0  0  0  0  0  0  0
    3.2005   -3.7738    8.0554 H   0  0  0  0  0  0  0  0  0  0  0  0
    1.7041   -3.0028    8.5637 H   0  0  0  0  0  0  0  0  0  0  0  0
    2.6449   -2.3064    7.2536 H   0  0  0  0  0  0  0  0  0  0  0  0
    1.8427   -2.1299    4.1012 H   0  0  0  0  0  0  0  0  0  0  0  0
   -1.7514   -3.4725    7.1112 H   0  0  0  0  0  0  0  0  0  0  0  0
   -0.1607   -4.5866    8.9959 H   0  0  0  0  0  0  0  0  0  0  0  0
   -1.0740   -5.7440    8.0211 H   0  0  0  0  0  0  0  0  0  0  0  0
    1.7318   -5.7338    8.1018 H   0  0  0  0  0  0  0  0  0  0  0  0
  2  1  1  6
  1 26  1  0
  1 27  1  0
  1 28  1  0
  2  8  1  0
  2 12  1  0
  2  3  1  0
  3  4  1  0
  3 29  1  0
  3 30  1  0
  4  5  1  0
  4 31  1  0
  4 32  1  0
  5  6  2  0
  5  7  1  0
  7  8  1  0
  7 33  1  0
  7 34  1  0
  8  9  2  0
  9 10  1  0
  9 35  1  0
 10 11  1  0
 10 36  1  0
 10 37  1  0
 11 25  1  0
 11 12  1  0
 11 38  1  6
 12 13  1  0
 12 39  1  1
 13 14  1  0
 13 40  1  0
 13 41  1  0
 14 15  1  0
 14 42  1  0
 14 43  1  0
 15 25  1  0
 15 16  1  1
 15 17  1  0
 16 44  1  0
 16 45  1  0
 16 46  1  0
 17 18  1  0
 17 23  2  0
 18 22  1  0
 18 19  2  0
 19 20  1  0
 19 47  1  0
 20 21  2  0
 21 22  1  0
 23 24  1  0
 23 48  1  0
 24 25  1  0
 24 49  1  0
 24 50  1  0
 25 51  1  1
M  END
>  <i_m_ct_stereo_status>  (243) 
1

>  <s_m_source_file>  (243) 
/var/tmp/pbs.5076255.sched01/tmpbaygurib/766rrai79r.sdf

>  <i_m_source_file_index>  (243) 
28

>  <i_lp_mmshare_version>  (243) 
48012

>  <i_f3d_flags>  (243) 
0

>  <s_epik_input>  (243) 
W0NIMl0xW0NIMl1DKD1PKVtDSDJdQyhbQ0BdMTJbQ0gzXSk9W0NIXVtDSDJdW0NAQEhdM1tDQEBIXTJbQ0gyXVtDSDJdW0NAXTQoW0NIM10pW0NASF0zW0NIMl1bQ0hdPUM0YzVbY0hdbm5zNQ==

>  <s_epik_cmdline>  (243) 
J2VwaWtfcHl0aG9uJywgJy1waHQnLCAnMi4wJywgJy1waCcsICc3LjAnLCAnLXRuJywgJzgnLCAnLW1hJywgJzIwMCcsICctaW1hZScsICc8aW5maWxlLm1hZT4nLCAnLW9tYWUnLCAnPG91dGZpbGUubWFlPic=

>  <r_lp_tautomer_probability>  (243) 
1

>  <r_epik_Ionization_Penalty>  (243) 
8.83041e-09

>  <r_epik_Ionization_Penalty_Charging>  (243) 
0

>  <r_epik_Ionization_Penalty_Neutral>  (243) 
8.83041e-09

>  <r_epik_State_Penalty>  (243) 
-0

>  <r_epik_Charging_Adjusted_Penalty>  (243) 
0

>  <i_epik_Tot_Q>  (243) 
0

>  <i_epik_Tot_abs_Q>  (243) 
0

>  <s_lp_Force_Field>  (243) 
OPLS3e

>  <r_lp_Energy>  (243) 
28.53

>  <b_lp_Chiralities_Consistent>  (243) 
1

>  <s_lp_Variant>  (243) 
73:0-1

>  <s_i_glide_gridfile>  (243) 
pfpi4k_grid

>  <i_i_glide_lignum>  (243) 
28

>  <i_i_glide_rotatable_bonds>  (243) 
1

>  <r_i_docking_score>  (243) 
-1.92302

>  <r_i_glide_ligand_efficiency>  (243) 
-0.0769207

>  <r_i_glide_ligand_efficiency_sa>  (243) 
-0.224917

>  <r_i_glide_ligand_efficiency_ln>  (243) 
-0.455813

>  <r_i_glide_gscore>  (243) 
-1.92302

>  <r_i_glide_lipo>  (243) 
-0.0134284

>  <r_i_glide_hbond>  (243) 
0

>  <r_i_glide_metal>  (243) 
-0

>  <r_i_glide_rewards>  (243) 
-1.07918

>  <r_i_glide_evdw>  (243) 
-25.9803

>  <r_i_glide_ecoul>  (243) 
2.35797

>  <r_i_glide_erotb>  (243) 
0.152053

>  <r_i_glide_esite>  (243) 
-0.03714

>  <r_i_glide_emodel>  (243) 
-27.2898

>  <r_i_glide_energy>  (243) 
-23.6223

>  <r_i_glide_einternal>  (243) 
0.141402

>  <r_i_glide_intrahb_reward>  (243) 
-0

>  <i_i_glide_confnum>  (243) 
1

>  <i_i_glide_posenum>  (243) 
2

>  <r_i_glide_eff_state_penalty>  (243) 
0

>  <ligand_id>  (243) 
73

>  <original_smiles>  (243) 
CC12CCC(=O)CC1=CCC1C2CCC2(C)C(c3cnns3)=CCC12

>  <smiles>  (243) 
[H]C1=C2C([H])([H])C(=O)C([H])([H])C([H])([H])C2(C([H])([H])[H])C2([H])C([H])([H])C([H])([H])C3(C([H])([H])[H])C(c4snnc4[H])=C([H])C([H])([H])C3([H])C2([H])C1([H])[H]

$$$$
74:1:0
     RDKit          3D

108115  0  0  1  0  0  0  0  0999 V2000
    6.4290   -0.6707    0.2875 C   0  0  0  0  0  0  0  0  0  0  0  0
    6.2027   -0.7346    1.7788 C   0  0  0  0  0  0  0  0  0  0  0  0
    5.0537   -0.8024    2.4761 C   0  0  0  0  0  0  0  0  0  0  0  0
    3.6616   -0.8057    1.9407 C   0  0  0  0  0  0  0  0  0  0  0  0
    3.3833   -0.7155    0.7513 O   0  0  0  0  0  0  0  0  0  0  0  0
    2.6677   -0.8780    2.8739 O   0  0  0  0  0  0  0  0  0  0  0  0
    2.8570   -1.0508    4.2668 C   0  0  2  0  0  0  0  0  0  0  0  0
    2.2708   -2.3965    4.6844 C   0  0  1  0  0  0  0  0  0  0  0  0
    3.1697   -3.4295    4.2718 O   0  0  0  0  0  0  0  0  0  0  0  0
    2.7415   -4.5196    3.6137 C   0  0  0  0  0  0  0  0  0  0  0  0
    3.8582   -5.5260    3.3368 C   0  0  0  0  0  0  0  0  0  0  0  0
    1.5798   -4.7574    3.2786 O   0  0  0  0  0  0  0  0  0  0  0  0
    1.9804   -2.4346    6.2173 C   0  0  1  0  0  0  0  0  0  0  0  0
    3.2215   -1.9702    7.1774 C   0  0  2  0  0  0  0  0  0  0  0  0
    4.6477   -2.1680    6.6021 C   0  0  0  0  0  0  0  0  0  0  0  0
    5.4933   -2.5514    7.7596 C   0  0  1  0  0  0  0  0  0  0  0  0
    6.0447   -1.2706    8.4157 C   0  0  0  0  0  0  0  0  0  0  0  0
    4.5055   -3.3823    8.5971 C   0  0  0  0  0  0  0  0  0  0  0  0
    4.5405   -4.8807    8.2264 C   0  0  0  0  0  0  0  0  0  0  0  0
    4.7974   -3.2383   10.1030 C   0  0  0  0  0  0  0  0  0  0  0  0
    3.2058   -2.8958    8.2340 O   0  0  0  0  0  0  0  0  0  0  0  0
    3.0042   -0.6628    7.7714 O   0  0  0  0  0  0  0  0  0  0  0  0
    3.3975    0.7018    7.3742 C   0  0  1  0  0  0  0  0  0  0  0  0
    3.3815    0.9398    5.8629 C   0  0  1  0  0  0  0  0  0  0  0  0
    4.6881    0.9682    5.2972 O   0  0  0  0  0  0  0  0  0  0  0  0
    2.3468    0.1739    5.0574 C   0  0  2  0  0  0  0  0  0  0  0  0
    1.0701   -0.1615    5.8899 C   0  0  0  0  0  0  0  0  0  0  0  0
   -0.0243    0.8126    6.1249 C   0  0  1  0  0  0  0  0  0  0  0  0
   -1.2345   -0.0509    5.9289 C   0  0  1  0  0  0  0  0  0  0  0  0
   -0.7251   -1.5758    5.9765 C   0  0  0  0  0  0  0  0  0  0  0  0
    0.7422   -1.5359    6.5577 C   0  0  1  0  0  0  0  0  0  0  0  0
    0.4353   -1.8409    8.0528 C   0  0  0  0  0  0  0  0  0  0  0  0
   -1.8929    0.6576    6.9616 O   0  0  0  0  0  0  0  0  0  0  0  0
   -1.5976    2.1109    6.9289 C   0  0  2  0  0  0  0  0  0  0  0  0
   -2.9488    2.5581    7.4856 C   0  0  0  0  0  0  0  0  0  0  0  0
   -0.2603    1.6252    7.4263 C   0  0  1  0  0  0  0  0  0  0  0  0
    0.1393    1.1168    8.8175 C   0  0  0  0  0  0  0  0  0  0  0  0
    1.6163    1.2904    9.2625 C   0  0  0  0  0  0  0  0  0  0  0  0
    2.7592    1.8633    8.3338 C   0  0  1  0  0  0  0  0  0  0  0  0
    3.9123    2.0369    9.4013 C   0  0  0  0  0  0  0  0  0  0  0  0
    2.3887    3.3668    7.7370 C   0  0  0  0  0  0  0  0  0  0  0  0
    2.3578    4.3727    8.9386 C   0  0  0  0  0  0  0  0  0  0  0  0
    3.5797    3.9987    6.9248 C   0  0  0  0  0  0  0  0  0  0  0  0
    1.0112    3.6124    6.8742 C   0  0  1  0  0  0  0  0  0  0  0  0
    1.2005    3.3755    5.4692 O   0  0  0  0  0  0  0  0  0  0  0  0
    0.4948    4.0730    4.5450 C   0  0  0  0  0  0  0  0  0  0  0  0
    0.9971    3.7164    3.2908 N   0  0  0  0  0  0  0  0  0  0  0  0
   -0.4032    4.8512    4.7514 O   0  0  0  0  0  0  0  0  0  0  0  0
   -0.3591    3.0559    7.4419 C   0  0  1  0  0  0  0  0  0  0  0  0
   -0.7806    3.9606    8.6446 C   0  0  0  0  0  0  0  0  0  0  0  0
   -1.1679    5.2610    8.2487 O   0  0  0  0  0  0  0  0  0  0  0  0
    7.2236   -1.4013    0.0348 H   0  0  0  0  0  0  0  0  0  0  0  0
    6.7635    0.3551    0.0852 H   0  0  0  0  0  0  0  0  0  0  0  0
    5.5338   -0.8948   -0.3069 H   0  0  0  0  0  0  0  0  0  0  0  0
    7.1015   -0.7091    2.3703 H   0  0  0  0  0  0  0  0  0  0  0  0
    5.3200   -0.8409    3.5084 H   0  0  0  0  0  0  0  0  0  0  0  0
    3.8752   -1.1384    4.5243 H   0  0  0  0  0  0  0  0  0  0  0  0
    1.3076   -2.5323    4.1646 H   0  0  0  0  0  0  0  0  0  0  0  0
    4.7078   -5.0419    2.8570 H   0  0  0  0  0  0  0  0  0  0  0  0
    3.5041   -6.3220    2.6769 H   0  0  0  0  0  0  0  0  0  0  0  0
    4.2164   -5.9894    4.2588 H   0  0  0  0  0  0  0  0  0  0  0  0
    1.7456   -3.4733    6.4694 H   0  0  0  0  0  0  0  0  0  0  0  0
    4.6688   -3.0653    6.0106 H   0  0  0  0  0  0  0  0  0  0  0  0
    5.0707   -1.3257    6.0703 H   0  0  0  0  0  0  0  0  0  0  0  0
    6.3322   -3.1537    7.3845 H   0  0  0  0  0  0  0  0  0  0  0  0
    5.1936   -0.7277    8.8167 H   0  0  0  0  0  0  0  0  0  0  0  0
    6.5931   -0.6455    7.6976 H   0  0  0  0  0  0  0  0  0  0  0  0
    6.6802   -1.5052    9.2732 H   0  0  0  0  0  0  0  0  0  0  0  0
    5.4995   -5.3260    8.4978 H   0  0  0  0  0  0  0  0  0  0  0  0
    4.3807   -5.0689    7.1645 H   0  0  0  0  0  0  0  0  0  0  0  0
    3.7706   -5.4207    8.7747 H   0  0  0  0  0  0  0  0  0  0  0  0
    5.8031   -3.6272   10.3040 H   0  0  0  0  0  0  0  0  0  0  0  0
    4.0730   -3.7671   10.7145 H   0  0  0  0  0  0  0  0  0  0  0  0
    4.7732   -2.2023   10.4427 H   0  0  0  0  0  0  0  0  0  0  0  0
    4.4644    0.7745    7.5588 H   0  0  0  0  0  0  0  0  0  0  0  0
    3.0929    1.9534    5.7288 H   0  0  0  0  0  0  0  0  0  0  0  0
    4.6468    1.2986    4.4192 H   0  0  0  0  0  0  0  0  0  0  0  0
    2.0933    0.9179    4.2889 H   0  0  0  0  0  0  0  0  0  0  0  0
    0.7271   -0.3772    4.8747 H   0  0  0  0  0  0  0  0  0  0  0  0
   -0.0577    1.4674    5.2486 H   0  0  0  0  0  0  0  0  0  0  0  0
   -1.7478    0.1393    4.9899 H   0  0  0  0  0  0  0  0  0  0  0  0
   -1.3995   -2.2602    6.4833 H   0  0  0  0  0  0  0  0  0  0  0  0
   -0.6719   -1.9694    4.9604 H   0  0  0  0  0  0  0  0  0  0  0  0
   -0.5836   -1.6144    8.3464 H   0  0  0  0  0  0  0  0  0  0  0  0
    1.1039   -1.4100    8.7915 H   0  0  0  0  0  0  0  0  0  0  0  0
    0.5008   -2.9131    8.2206 H   0  0  0  0  0  0  0  0  0  0  0  0
   -3.0473    3.6443    7.4075 H   0  0  0  0  0  0  0  0  0  0  0  0
   -3.1257    2.2404    8.5198 H   0  0  0  0  0  0  0  0  0  0  0  0
   -3.7609    2.1626    6.8851 H   0  0  0  0  0  0  0  0  0  0  0  0
   -0.4301    1.6918    9.5344 H   0  0  0  0  0  0  0  0  0  0  0  0
   -0.3122    0.1876    9.0864 H   0  0  0  0  0  0  0  0  0  0  0  0
    1.5523    1.9067   10.1574 H   0  0  0  0  0  0  0  0  0  0  0  0
    1.9405    0.3537    9.7102 H   0  0  0  0  0  0  0  0  0  0  0  0
    3.6574    2.6482   10.2653 H   0  0  0  0  0  0  0  0  0  0  0  0
    4.8251    2.4660    8.9937 H   0  0  0  0  0  0  0  0  0  0  0  0
    4.2080    1.0840    9.8431 H   0  0  0  0  0  0  0  0  0  0  0  0
    1.8260    5.2900    8.6867 H   0  0  0  0  0  0  0  0  0  0  0  0
    3.3546    4.6918    9.2441 H   0  0  0  0  0  0  0  0  0  0  0  0
    1.9222    3.9803    9.8517 H   0  0  0  0  0  0  0  0  0  0  0  0
    3.6519    5.0756    7.0685 H   0  0  0  0  0  0  0  0  0  0  0  0
    3.5152    3.9158    5.8444 H   0  0  0  0  0  0  0  0  0  0  0  0
    4.5481    3.5885    7.1978 H   0  0  0  0  0  0  0  0  0  0  0  0
    0.8908    4.6942    6.8984 H   0  0  0  0  0  0  0  0  0  0  0  0
    1.7378    3.0675    3.2202 H   0  0  0  0  0  0  0  0  0  0  0  0
    0.5870    4.1153    2.4331 H   0  0  0  0  0  0  0  0  0  0  0  0
   -1.5898    3.5345    9.2303 H   0  0  0  0  0  0  0  0  0  0  0  0
   -0.0244    4.0402    9.4015 H   0  0  0  0  0  0  0  0  0  0  0  0
   -1.4091    5.7450    9.0204 H   0  0  0  0  0  0  0  0  0  0  0  0
  1  2  1  0
  1 52  1  0
  1 53  1  0
  1 54  1  0
  2  3  2  3
  2 55  1  0
  3  4  1  0
  3 56  1  0
  4  5  2  0
  4  6  1  0
  6  7  1  0
  7 26  1  0
  7  8  1  0
  7 57  1  6
  8  9  1  0
  8 13  1  0
  8 58  1  6
  9 10  1  0
 10 11  1  0
 10 12  2  0
 11 59  1  0
 11 60  1  0
 11 61  1  0
 13 31  1  0
 13 14  1  0
 13 62  1  1
 14 21  1  1
 14 15  1  0
 14 22  1  0
 15 16  1  0
 15 63  1  0
 15 64  1  0
 16 17  1  0
 16 18  1  0
 16 65  1  6
 17 66  1  0
 17 67  1  0
 17 68  1  0
 18 19  1  0
 18 20  1  0
 18 21  1  0
 19 69  1  0
 19 70  1  0
 19 71  1  0
 20 72  1  0
 20 73  1  0
 20 74  1  0
 22 23  1  0
 23 39  1  0
 23 24  1  0
 23 75  1  1
 24 25  1  0
 24 26  1  0
 24 76  1  1
 25 77  1  0
 26 27  1  0
 26 78  1  6
 27 31  1  0
 27 28  1  0
 27 79  1  0
 28 36  1  0
 28 29  1  0
 28 80  1  6
 29 30  1  0
 29 33  1  0
 29 81  1  6
 30 31  1  0
 30 82  1  0
 30 83  1  0
 31 32  1  1
 32 84  1  0
 32 85  1  0
 32 86  1  0
 33 34  1  0
 34 49  1  0
 34 35  1  6
 34 36  1  0
 35 87  1  0
 35 88  1  0
 35 89  1  0
 36 49  1  0
 36 37  1  1
 37 38  1  0
 37 90  1  0
 37 91  1  0
 38 39  1  0
 38 92  1  0
 38 93  1  0
 39 40  1  1
 39 41  1  0
 40 94  1  0
 40 95  1  0
 40 96  1  0
 41 42  1  0
 41 43  1  0
 41 44  1  0
 42 97  1  0
 42 98  1  0
 42 99  1  0
 43100  1  0
 43101  1  0
 43102  1  0
 44 45  1  0
 44 49  1  0
 44103  1  6
 45 46  1  0
 46 47  1  0
 46 48  2  0
 47104  1  0
 47105  1  0
 49 50  1  1
 50 51  1  0
 50106  1  0
 50107  1  0
 51108  1  0
M  END
>  <i_m_ct_stereo_status>  (244) 
1

>  <s_m_source_file>  (244) 
/var/tmp/pbs.5076255.sched01/tmpbaygurib/766rrai79r.sdf

>  <i_m_source_file_index>  (244) 
30

>  <i_lp_mmshare_version>  (244) 
48012

>  <i_f3d_flags>  (244) 
0

>  <s_epik_input>  (244) 
W0NIM11DKE8xKShbQ0gzXSlbQ0BIXShbQ0gzXSlbQ0gyXVtDQEBdMTJbQ0BIXTNbQ0BAXTQoW0NIM10pW0NAQEhdNVtDQEhdKFtDQEBIXShbQ0BIXTNPQyg9TylbQ0gzXSlPQyg9TylcW0NIXT1bQ0hdXFtDSDNdKVtDQEhdKFtPSF0pW0NASF0oTzIpW0NAXTYoW0NIM10pW0NIMl1bQ0gyXVtDQEBdNzhbQ0BASF01W0NAQEhdKFtDSDJdNClPW0NAXTcoW0NIM10pQzgoW0NIMl1bT0hdKVtDQEBIXShDNihbQ0gzXSlbQ0gzXSlPQyg9TylbTkgyXQ==

>  <s_epik_cmdline>  (244) 
J2VwaWtfcHl0aG9uJywgJy1waHQnLCAnMi4wJywgJy1waCcsICc3LjAnLCAnLXRuJywgJzgnLCAnLW1hJywgJzIwMCcsICctaW1hZScsICc8aW5maWxlLm1hZT4nLCAnLW9tYWUnLCAnPG91dGZpbGUubWFlPic=

>  <r_lp_tautomer_probability>  (244) 
1

>  <r_epik_Ionization_Penalty>  (244) 
3.69954e-06

>  <r_epik_Ionization_Penalty_Charging>  (244) 
0

>  <r_epik_Ionization_Penalty_Neutral>  (244) 
3.69954e-06

>  <r_epik_State_Penalty>  (244) 
-0

>  <r_epik_Charging_Adjusted_Penalty>  (244) 
0

>  <i_epik_Tot_Q>  (244) 
0

>  <i_epik_Tot_abs_Q>  (244) 
0

>  <s_epik_Chemistry_Notes>  (244) 
This compound has an ester and may undergo hydrolysis at high or low pH.

>  <s_lp_Force_Field>  (244) 
OPLS3e

>  <r_lp_Energy>  (244) 
284.671

>  <b_lp_Chiralities_Consistent>  (244) 
1

>  <s_lp_Variant>  (244) 
74:0-2

>  <s_i_glide_gridfile>  (244) 
pfpi4k_grid

>  <i_i_glide_lignum>  (244) 
30

>  <i_i_glide_rotatable_bonds>  (244) 
10

>  <r_i_docking_score>  (244) 
-3.11116

>  <r_i_glide_ligand_efficiency>  (244) 
-0.0610031

>  <r_i_glide_ligand_efficiency_sa>  (244) 
-0.226226

>  <r_i_glide_ligand_efficiency_ln>  (244) 
-0.630833

>  <r_i_glide_gscore>  (244) 
-3.11116

>  <r_i_glide_lipo>  (244) 
-0.324112

>  <r_i_glide_hbond>  (244) 
-0.32

>  <r_i_glide_metal>  (244) 
-0

>  <r_i_glide_rewards>  (244) 
0

>  <r_i_glide_evdw>  (244) 
-22.1919

>  <r_i_glide_ecoul>  (244) 
-8.64409

>  <r_i_glide_erotb>  (244) 
0.0705817

>  <r_i_glide_esite>  (244) 
-0.131415

>  <r_i_glide_emodel>  (244) 
-32.5717

>  <r_i_glide_energy>  (244) 
-30.836

>  <r_i_glide_einternal>  (244) 
4.6446

>  <r_i_glide_intrahb_reward>  (244) 
-0

>  <i_i_glide_confnum>  (244) 
5

>  <i_i_glide_posenum>  (244) 
8

>  <r_i_glide_eff_state_penalty>  (244) 
0

>  <ligand_id>  (244) 
74

>  <original_smiles>  (244) 
CC=CC(=O)OC1C(OC(C)=O)C2C3(CC(C)C(C)(C)O3)OC3C(O)C1C1C4C(CC12C)OC1(C)C42CCC3(C)C(C)(C)C(OC(N)=O)C12CO

>  <smiles>  (244) 
[H]OC([H])([H])C12C([H])(OC(=O)N([H])[H])C(C([H])([H])[H])(C([H])([H])[H])C3(C([H])([H])[H])C([H])([H])C([H])([H])C14C1([H])C([H])(OC24C([H])([H])[H])C([H])([H])C2(C([H])([H])[H])C4([H])C([H])(OC(=O)C([H])([H])[H])C([H])(OC(=O)C([H])=C([H])C([H])([H])[H])C([H])(C([H])(O[H])C3([H])OC43OC(C([H])([H])[H])(C([H])([H])[H])C([H])(C([H])([H])[H])C3([H])[H])C12[H]

$$$$
74:1:1
     RDKit          3D

108115  0  0  1  0  0  0  0  0999 V2000
    6.2667   -2.4613   -0.6031 C   0  0  0  0  0  0  0  0  0  0  0  0
    5.9987   -2.5106    0.8989 C   0  0  0  0  0  0  0  0  0  0  0  0
    5.0491   -1.9291    1.6414 C   0  0  0  0  0  0  0  0  0  0  0  0
    3.9360   -1.0352    1.1505 C   0  0  0  0  0  0  0  0  0  0  0  0
    3.8267   -0.6616   -0.0144 O   0  0  0  0  0  0  0  0  0  0  0  0
    3.0364   -0.6102    2.0858 O   0  0  0  0  0  0  0  0  0  0  0  0
    3.1236   -0.9630    3.4744 C   0  0  2  0  0  0  0  0  0  0  0  0
    2.3683   -2.3030    3.7154 C   0  0  1  0  0  0  0  0  0  0  0  0
    3.1523   -3.4136    3.2895 O   0  0  0  0  0  0  0  0  0  0  0  0
    2.6322   -4.5712    2.8641 C   0  0  0  0  0  0  0  0  0  0  0  0
    3.6987   -5.5555    2.3738 C   0  0  0  0  0  0  0  0  0  0  0  0
    1.4395   -4.8846    2.8683 O   0  0  0  0  0  0  0  0  0  0  0  0
    1.9630   -2.4745    5.1934 C   0  0  1  0  0  0  0  0  0  0  0  0
    3.1972   -2.2331    6.2728 C   0  0  2  0  0  0  0  0  0  0  0  0
    4.6448   -2.4954    5.7238 C   0  0  0  0  0  0  0  0  0  0  0  0
    5.3830   -3.0661    6.9088 C   0  0  1  0  0  0  0  0  0  0  0  0
    6.0218   -1.9254    7.7412 C   0  0  0  0  0  0  0  0  0  0  0  0
    4.2859   -3.8933    7.5885 C   0  0  0  0  0  0  0  0  0  0  0  0
    4.2040   -5.3434    7.0393 C   0  0  0  0  0  0  0  0  0  0  0  0
    4.4532   -3.9612    9.1169 C   0  0  0  0  0  0  0  0  0  0  0  0
    3.0409   -3.2591    7.2139 O   0  0  0  0  0  0  0  0  0  0  0  0
    3.0735   -0.9992    6.9983 O   0  0  0  0  0  0  0  0  0  0  0  0
    3.5789    0.3707    6.7757 C   0  0  1  0  0  0  0  0  0  0  0  0
    3.6564    0.7962    5.3064 C   0  0  1  0  0  0  0  0  0  0  0  0
    4.9992    0.7933    4.8255 O   0  0  0  0  0  0  0  0  0  0  0  0
    2.6198    0.2067    4.3684 C   0  0  2  0  0  0  0  0  0  0  0  0
    1.2733   -0.1177    5.0940 C   0  0  0  0  0  0  0  0  0  0  0  0
    0.2526    0.8997    5.3901 C   0  0  1  0  0  0  0  0  0  0  0  0
   -1.0224    0.1819    5.0512 C   0  0  1  0  0  0  0  0  0  0  0  0
   -0.6413   -1.3751    4.9391 C   0  0  0  0  0  0  0  0  0  0  0  0
    0.8028   -1.5174    5.5886 C   0  0  1  0  0  0  0  0  0  0  0  0
    0.3753   -1.9647    7.0137 C   0  0  0  0  0  0  0  0  0  0  0  0
   -1.6716    0.8320    6.1497 O   0  0  0  0  0  0  0  0  0  0  0  0
   -1.2570    2.2557    6.2674 C   0  0  2  0  0  0  0  0  0  0  0  0
   -2.5885    2.7571    6.7833 C   0  0  0  0  0  0  0  0  0  0  0  0
    0.0206    1.6047    6.7408 C   0  0  1  0  0  0  0  0  0  0  0  0
    0.2827    0.9161    8.0860 C   0  0  0  0  0  0  0  0  0  0  0  0
    1.7423    0.9055    8.6178 C   0  0  0  0  0  0  0  0  0  0  0  0
    2.9803    1.4760    7.8172 C   0  0  1  0  0  0  0  0  0  0  0  0
    4.0763    1.4267    8.9547 C   0  0  0  0  0  0  0  0  0  0  0  0
    2.7663    3.0617    7.3821 C   0  0  0  0  0  0  0  0  0  0  0  0
    2.7596    3.9285    8.6907 C   0  0  0  0  0  0  0  0  0  0  0  0
    4.0522    3.6734    6.7104 C   0  0  0  0  0  0  0  0  0  0  0  0
    1.4648    3.5305    6.4855 C   0  0  1  0  0  0  0  0  0  0  0  0
    1.7124    3.4179    5.0637 O   0  0  0  0  0  0  0  0  0  0  0  0
    0.9808    4.0985    4.1431 C   0  0  0  0  0  0  0  0  0  0  0  0
    1.4238    3.7998    2.8797 N   0  0  0  0  0  0  0  0  0  0  0  0
    0.0198    4.8370    4.4245 O   0  0  0  0  0  0  0  0  0  0  0  0
    0.0305    3.0308    6.9192 C   0  0  1  0  0  0  0  0  0  0  0  0
   -0.3795    3.8343    8.1943 C   0  0  0  0  0  0  0  0  0  0  0  0
   -0.6452    5.1931    7.9246 O   0  0  0  0  0  0  0  0  0  0  0  0
    6.4474   -3.4803   -0.9503 H   0  0  0  0  0  0  0  0  0  0  0  0
    7.1578   -1.8684   -0.7721 H   0  0  0  0  0  0  0  0  0  0  0  0
    5.4361   -2.0545   -1.1631 H   0  0  0  0  0  0  0  0  0  0  0  0
    6.7165   -3.1151    1.4294 H   0  0  0  0  0  0  0  0  0  0  0  0
    5.1438   -2.1621    2.6718 H   0  0  0  0  0  0  0  0  0  0  0  0
    4.1703   -1.0429    3.6742 H   0  0  0  0  0  0  0  0  0  0  0  0
    1.4408   -2.2947    3.1152 H   0  0  0  0  0  0  0  0  0  0  0  0
    4.3451   -5.0940    1.6332 H   0  0  0  0  0  0  0  0  0  0  0  0
    3.2506   -6.4420    1.9318 H   0  0  0  0  0  0  0  0  0  0  0  0
    4.3253   -5.8689    3.2032 H   0  0  0  0  0  0  0  0  0  0  0  0
    1.6225   -3.5015    5.3167 H   0  0  0  0  0  0  0  0  0  0  0  0
    4.6186   -3.3056    5.0280 H   0  0  0  0  0  0  0  0  0  0  0  0
    5.1472   -1.6172    5.3126 H   0  0  0  0  0  0  0  0  0  0  0  0
    6.1765   -3.7080    6.5139 H   0  0  0  0  0  0  0  0  0  0  0  0
    5.2134   -1.3287    8.1507 H   0  0  0  0  0  0  0  0  0  0  0  0
    6.6250   -1.2773    7.1091 H   0  0  0  0  0  0  0  0  0  0  0  0
    6.6356   -2.3173    8.5691 H   0  0  0  0  0  0  0  0  0  0  0  0
    5.1009   -5.9112    7.2940 H   0  0  0  0  0  0  0  0  0  0  0  0
    4.0823   -5.3944    5.9601 H   0  0  0  0  0  0  0  0  0  0  0  0
    3.3578   -5.8753    7.4787 H   0  0  0  0  0  0  0  0  0  0  0  0
    5.4073   -4.4453    9.3428 H   0  0  0  0  0  0  0  0  0  0  0  0
    3.6655   -4.5223    9.6155 H   0  0  0  0  0  0  0  0  0  0  0  0
    4.4957   -2.9696    9.5814 H   0  0  0  0  0  0  0  0  0  0  0  0
    4.6312    0.3007    7.0303 H   0  0  0  0  0  0  0  0  0  0  0  0
    3.4464    1.8327    5.2565 H   0  0  0  0  0  0  0  0  0  0  0  0
    5.0394    1.2245    3.9941 H   0  0  0  0  0  0  0  0  0  0  0  0
    2.4486    1.0384    3.6674 H   0  0  0  0  0  0  0  0  0  0  0  0
    0.9711   -0.1938    4.0457 H   0  0  0  0  0  0  0  0  0  0  0  0
    0.3140    1.6391    4.5961 H   0  0  0  0  0  0  0  0  0  0  0  0
   -1.4456    0.5432    4.1107 H   0  0  0  0  0  0  0  0  0  0  0  0
   -1.4103   -2.0384    5.3268 H   0  0  0  0  0  0  0  0  0  0  0  0
   -0.5557   -1.6354    3.8853 H   0  0  0  0  0  0  0  0  0  0  0  0
   -0.6333   -1.6741    7.2781 H   0  0  0  0  0  0  0  0  0  0  0  0
    1.0351   -1.6766    7.8254 H   0  0  0  0  0  0  0  0  0  0  0  0
    0.3379   -3.0507    7.0619 H   0  0  0  0  0  0  0  0  0  0  0  0
   -2.5876    3.8471    6.8368 H   0  0  0  0  0  0  0  0  0  0  0  0
   -2.8624    2.3337    7.7516 H   0  0  0  0  0  0  0  0  0  0  0  0
   -3.3705    2.5162    6.0772 H   0  0  0  0  0  0  0  0  0  0  0  0
   -0.2698    1.4612    8.8400 H   0  0  0  0  0  0  0  0  0  0  0  0
   -0.2537    0.0010    8.2201 H   0  0  0  0  0  0  0  0  0  0  0  0
    1.6784    1.4283    9.5743 H   0  0  0  0  0  0  0  0  0  0  0  0
    1.9707   -0.0993    8.9672 H   0  0  0  0  0  0  0  0  0  0  0  0
    3.8179    1.9586    9.8689 H   0  0  0  0  0  0  0  0  0  0  0  0
    5.0430    1.8140    8.6435 H   0  0  0  0  0  0  0  0  0  0  0  0
    4.2555    0.4064    9.2907 H   0  0  0  0  0  0  0  0  0  0  0  0
    2.3255    4.9144    8.5222 H   0  0  0  0  0  0  0  0  0  0  0  0
    3.7658    4.1156    9.0767 H   0  0  0  0  0  0  0  0  0  0  0  0
    2.2422    3.4778    9.5333 H   0  0  0  0  0  0  0  0  0  0  0  0
    4.2048    4.7196    6.9823 H   0  0  0  0  0  0  0  0  0  0  0  0
    4.0463    3.7123    5.6244 H   0  0  0  0  0  0  0  0  0  0  0  0
    4.9656    3.1476    6.9896 H   0  0  0  0  0  0  0  0  0  0  0  0
    1.4238    4.6093    6.6086 H   0  0  0  0  0  0  0  0  0  0  0  0
    2.2082    3.1713    2.7947 H   0  0  0  0  0  0  0  0  0  0  0  0
    0.9083    4.1393    2.0370 H   0  0  0  0  0  0  0  0  0  0  0  0
   -1.2506    3.4060    8.6850 H   0  0  0  0  0  0  0  0  0  0  0  0
    0.3407    3.7755    8.9865 H   0  0  0  0  0  0  0  0  0  0  0  0
   -0.8657    5.6130    8.7303 H   0  0  0  0  0  0  0  0  0  0  0  0
  1  2  1  0
  1 52  1  0
  1 53  1  0
  1 54  1  0
  2  3  2  3
  2 55  1  0
  3  4  1  0
  3 56  1  0
  4  5  2  0
  4  6  1  0
  6  7  1  0
  7 26  1  0
  7  8  1  0
  7 57  1  1
  8  9  1  0
  8 13  1  0
  8 58  1  6
  9 10  1  0
 10 11  1  0
 10 12  2  0
 11 59  1  0
 11 60  1  0
 11 61  1  0
 13 31  1  0
 13 14  1  0
 13 62  1  6
 14 21  1  1
 14 15  1  0
 14 22  1  0
 15 16  1  0
 15 63  1  0
 15 64  1  0
 16 17  1  0
 16 18  1  0
 16 65  1  6
 17 66  1  0
 17 67  1  0
 17 68  1  0
 18 19  1  0
 18 20  1  0
 18 21  1  0
 19 69  1  0
 19 70  1  0
 19 71  1  0
 20 72  1  0
 20 73  1  0
 20 74  1  0
 22 23  1  0
 23 39  1  0
 23 24  1  0
 23 75  1  1
 24 25  1  0
 24 26  1  0
 24 76  1  1
 25 77  1  0
 26 27  1  0
 26 78  1  6
 27 31  1  0
 27 28  1  0
 27 79  1  0
 28 36  1  0
 28 29  1  0
 28 80  1  6
 29 30  1  0
 29 33  1  0
 29 81  1  6
 30 31  1  0
 30 82  1  0
 30 83  1  0
 31 32  1  1
 32 84  1  0
 32 85  1  0
 32 86  1  0
 33 34  1  0
 34 49  1  0
 34 35  1  6
 34 36  1  0
 35 87  1  0
 35 88  1  0
 35 89  1  0
 36 49  1  0
 36 37  1  1
 37 38  1  0
 37 90  1  0
 37 91  1  0
 38 39  1  0
 38 92  1  0
 38 93  1  0
 39 40  1  1
 39 41  1  0
 40 94  1  0
 40 95  1  0
 40 96  1  0
 41 42  1  0
 41 43  1  0
 41 44  1  0
 42 97  1  0
 42 98  1  0
 42 99  1  0
 43100  1  0
 43101  1  0
 43102  1  0
 44 45  1  0
 44 49  1  0
 44103  1  6
 45 46  1  0
 46 47  1  0
 46 48  2  0
 47104  1  0
 47105  1  0
 49 50  1  1
 50 51  1  0
 50106  1  0
 50107  1  0
 51108  1  0
M  END
>  <i_m_ct_stereo_status>  (245) 
1

>  <s_m_source_file>  (245) 
/var/tmp/pbs.5076255.sched01/tmpbaygurib/766rrai79r.sdf

>  <i_m_source_file_index>  (245) 
30

>  <i_lp_mmshare_version>  (245) 
48012

>  <i_f3d_flags>  (245) 
0

>  <s_epik_input>  (245) 
W0NIM11DKE8xKShbQ0gzXSlbQ0BIXShbQ0gzXSlbQ0gyXVtDQEBdMTJbQ0BIXTNbQ0BAXTQoW0NIM10pW0NAQEhdNVtDQEhdKFtDQEBIXShbQ0BIXTNPQyg9TylbQ0gzXSlPQyg9TylcW0NIXT1bQ0hdXFtDSDNdKVtDQEhdKFtPSF0pW0NASF0oTzIpW0NAXTYoW0NIM10pW0NIMl1bQ0gyXVtDQEBdNzhbQ0BASF01W0NAQEhdKFtDSDJdNClPW0NAXTcoW0NIM10pQzgoW0NIMl1bT0hdKVtDQEBIXShDNihbQ0gzXSlbQ0gzXSlPQyg9TylbTkgyXQ==

>  <s_epik_cmdline>  (245) 
J2VwaWtfcHl0aG9uJywgJy1waHQnLCAnMi4wJywgJy1waCcsICc3LjAnLCAnLXRuJywgJzgnLCAnLW1hJywgJzIwMCcsICctaW1hZScsICc8aW5maWxlLm1hZT4nLCAnLW9tYWUnLCAnPG91dGZpbGUubWFlPic=

>  <r_lp_tautomer_probability>  (245) 
1

>  <r_epik_Ionization_Penalty>  (245) 
3.69954e-06

>  <r_epik_Ionization_Penalty_Charging>  (245) 
0

>  <r_epik_Ionization_Penalty_Neutral>  (245) 
3.69954e-06

>  <r_epik_State_Penalty>  (245) 
-0

>  <r_epik_Charging_Adjusted_Penalty>  (245) 
0

>  <i_epik_Tot_Q>  (245) 
0

>  <i_epik_Tot_abs_Q>  (245) 
0

>  <s_epik_Chemistry_Notes>  (245) 
This compound has an ester and may undergo hydrolysis at high or low pH.

>  <s_lp_Force_Field>  (245) 
OPLS3e

>  <r_lp_Energy>  (245) 
284.671

>  <b_lp_Chiralities_Consistent>  (245) 
1

>  <s_lp_Variant>  (245) 
74:0-2

>  <s_i_glide_gridfile>  (245) 
pfpi4k_grid

>  <i_i_glide_lignum>  (245) 
30

>  <i_i_glide_rotatable_bonds>  (245) 
10

>  <r_i_docking_score>  (245) 
-3.08936

>  <r_i_glide_ligand_efficiency>  (245) 
-0.0605756

>  <r_i_glide_ligand_efficiency_sa>  (245) 
-0.22464

>  <r_i_glide_ligand_efficiency_ln>  (245) 
-0.626413

>  <r_i_glide_gscore>  (245) 
-3.08936

>  <r_i_glide_lipo>  (245) 
-0.322448

>  <r_i_glide_hbond>  (245) 
-0.173091

>  <r_i_glide_metal>  (245) 
-0

>  <r_i_glide_rewards>  (245) 
0

>  <r_i_glide_evdw>  (245) 
-24.1702

>  <r_i_glide_ecoul>  (245) 
-8.67021

>  <r_i_glide_erotb>  (245) 
0.0705817

>  <r_i_glide_esite>  (245) 
-0.155359

>  <r_i_glide_emodel>  (245) 
-34.126

>  <r_i_glide_energy>  (245) 
-32.8404

>  <r_i_glide_einternal>  (245) 
5.24874

>  <r_i_glide_intrahb_reward>  (245) 
-0

>  <i_i_glide_confnum>  (245) 
5

>  <i_i_glide_posenum>  (245) 
2

>  <r_i_glide_eff_state_penalty>  (245) 
0

>  <ligand_id>  (245) 
74

>  <original_smiles>  (245) 
CC=CC(=O)OC1C(OC(C)=O)C2C3(CC(C)C(C)(C)O3)OC3C(O)C1C1C4C(CC12C)OC1(C)C42CCC3(C)C(C)(C)C(OC(N)=O)C12CO

>  <smiles>  (245) 
[H]OC([H])([H])C12C([H])(OC(=O)N([H])[H])C(C([H])([H])[H])(C([H])([H])[H])C3(C([H])([H])[H])C([H])([H])C([H])([H])C14C1([H])C([H])(OC24C([H])([H])[H])C([H])([H])C2(C([H])([H])[H])C4([H])C([H])(OC(=O)C([H])([H])[H])C([H])(OC(=O)C([H])=C([H])C([H])([H])[H])C([H])(C([H])(O[H])C3([H])OC43OC(C([H])([H])[H])(C([H])([H])[H])C([H])(C([H])([H])[H])C3([H])[H])C12[H]

$$$$
74:1:2
     RDKit          3D

108115  0  0  1  0  0  0  0  0999 V2000
    6.0057   -2.3704    0.1148 C   0  0  0  0  0  0  0  0  0  0  0  0
    6.0192   -1.6096    1.4360 C   0  0  0  0  0  0  0  0  0  0  0  0
    5.4006   -1.8478    2.6285 C   0  0  0  0  0  0  0  0  0  0  0  0
    4.3801   -2.9280    2.9233 C   0  0  0  0  0  0  0  0  0  0  0  0
    4.0193   -3.8046    2.1400 O   0  0  0  0  0  0  0  0  0  0  0  0
    3.8448   -2.8301    4.1523 O   0  0  0  0  0  0  0  0  0  0  0  0
    4.2489   -1.8740    5.1415 C   0  0  2  0  0  0  0  0  0  0  0  0
    4.2087   -2.5762    6.5238 C   0  0  1  0  0  0  0  0  0  0  0  0
    5.4302   -3.2813    6.6991 O   0  0  0  0  0  0  0  0  0  0  0  0
    5.4963   -4.4150    7.4163 C   0  0  0  0  0  0  0  0  0  0  0  0
    6.8689   -5.0733    7.4281 C   0  0  0  0  0  0  0  0  0  0  0  0
    4.5712   -4.8948    8.0780 O   0  0  0  0  0  0  0  0  0  0  0  0
    4.0179   -1.5743    7.7007 C   0  0  1  0  0  0  0  0  0  0  0  0
    5.0088   -0.2992    7.6800 C   0  0  2  0  0  0  0  0  0  0  0  0
    6.3685   -0.5024    6.9531 C   0  0  0  0  0  0  0  0  0  0  0  0
    7.3586    0.3391    7.7597 C   0  0  1  0  0  0  0  0  0  0  0  0
    7.4148    1.7915    7.2096 C   0  0  0  0  0  0  0  0  0  0  0  0
    6.8104    0.1560    9.1743 C   0  0  0  0  0  0  0  0  0  0  0  0
    7.4070   -1.0800    9.8890 C   0  0  0  0  0  0  0  0  0  0  0  0
    7.0438    1.3905   10.0525 C   0  0  0  0  0  0  0  0  0  0  0  0
    5.3961   -0.1176    9.0292 O   0  0  0  0  0  0  0  0  0  0  0  0
    4.3458    0.9574    7.3446 O   0  0  0  0  0  0  0  0  0  0  0  0
    4.1103    1.6582    6.0666 C   0  0  1  0  0  0  0  0  0  0  0  0
    3.9634    0.7252    4.8571 C   0  0  1  0  0  0  0  0  0  0  0  0
    5.1167    0.7436    4.0677 O   0  0  0  0  0  0  0  0  0  0  0  0
    3.3186   -0.6145    5.1087 C   0  0  2  0  0  0  0  0  0  0  0  0
    2.2836   -0.5666    6.2737 C   0  0  0  0  0  0  0  0  0  0  0  0
    0.9124   -0.0131    6.1229 C   0  0  1  0  0  0  0  0  0  0  0  0
    0.1134   -0.9939    6.9458 C   0  0  1  0  0  0  0  0  0  0  0  0
    1.1624   -1.8359    7.8249 C   0  0  0  0  0  0  0  0  0  0  0  0
    2.5372   -1.0467    7.7406 C   0  0  1  0  0  0  0  0  0  0  0  0
    2.4269   -0.2443    9.0763 C   0  0  0  0  0  0  0  0  0  0  0  0
   -0.7148    0.0719    7.3914 O   0  0  0  0  0  0  0  0  0  0  0  0
   -1.0265    1.0258    6.3194 C   0  0  2  0  0  0  0  0  0  0  0  0
   -2.4098    1.3856    6.8501 C   0  0  0  0  0  0  0  0  0  0  0  0
    0.4249    1.3962    6.5612 C   0  0  1  0  0  0  0  0  0  0  0  0
    1.0311    2.1514    7.7453 C   0  0  0  0  0  0  0  0  0  0  0  0
    2.3336    2.9507    7.4943 C   0  0  0  0  0  0  0  0  0  0  0  0
    3.1160    2.9379    6.1277 C   0  0  1  0  0  0  0  0  0  0  0  0
    4.1566    4.0994    6.3913 C   0  0  0  0  0  0  0  0  0  0  0  0
    2.1638    3.3886    4.8473 C   0  0  0  0  0  0  0  0  0  0  0  0
    1.7983    4.9054    5.0243 C   0  0  0  0  0  0  0  0  0  0  0  0
    2.9694    3.5067    3.5090 C   0  0  0  0  0  0  0  0  0  0  0  0
    0.7793    2.5984    4.4963 C   0  0  1  0  0  0  0  0  0  0  0  0
    0.9986    1.4941    3.6138 O   0  0  0  0  0  0  0  0  0  0  0  0
    0.1705    1.2096    2.6035 C   0  0  0  0  0  0  0  0  0  0  0  0
    0.7970    0.4015    1.7019 N   0  0  0  0  0  0  0  0  0  0  0  0
   -0.9970    1.6375    2.5109 O   0  0  0  0  0  0  0  0  0  0  0  0
   -0.2469    2.3122    5.6584 C   0  0  1  0  0  0  0  0  0  0  0  0
   -0.9262    3.6617    6.0364 C   0  0  0  0  0  0  0  0  0  0  0  0
   -1.7853    4.1179    5.0104 O   0  0  0  0  0  0  0  0  0  0  0  0
    7.0491   -2.5139   -0.2090 H   0  0  0  0  0  0  0  0  0  0  0  0
    5.4619   -1.8054   -0.6508 H   0  0  0  0  0  0  0  0  0  0  0  0
    5.5551   -3.3527    0.2396 H   0  0  0  0  0  0  0  0  0  0  0  0
    6.6558   -0.7320    1.3816 H   0  0  0  0  0  0  0  0  0  0  0  0
    5.7274   -1.1473    3.3754 H   0  0  0  0  0  0  0  0  0  0  0  0
    5.2756   -1.5967    4.9574 H   0  0  0  0  0  0  0  0  0  0  0  0
    3.3538   -3.3042    6.5438 H   0  0  0  0  0  0  0  0  0  0  0  0
    7.2382   -5.2220    6.4169 H   0  0  0  0  0  0  0  0  0  0  0  0
    6.8469   -6.0400    7.9344 H   0  0  0  0  0  0  0  0  0  0  0  0
    7.5685   -4.4329    7.9571 H   0  0  0  0  0  0  0  0  0  0  0  0
    4.1836   -2.1404    8.6308 H   0  0  0  0  0  0  0  0  0  0  0  0
    6.6505   -1.5429    7.0782 H   0  0  0  0  0  0  0  0  0  0  0  0
    6.3995   -0.1998    5.9006 H   0  0  0  0  0  0  0  0  0  0  0  0
    8.3448   -0.1220    7.6509 H   0  0  0  0  0  0  0  0  0  0  0  0
    6.4205    2.2384    7.3186 H   0  0  0  0  0  0  0  0  0  0  0  0
    7.6214    1.7872    6.1257 H   0  0  0  0  0  0  0  0  0  0  0  0
    8.1798    2.4022    7.7221 H   0  0  0  0  0  0  0  0  0  0  0  0
    8.4745   -0.9676   10.0737 H   0  0  0  0  0  0  0  0  0  0  0  0
    7.2716   -2.0088    9.3306 H   0  0  0  0  0  0  0  0  0  0  0  0
    6.9320   -1.2366   10.8624 H   0  0  0  0  0  0  0  0  0  0  0  0
    8.1230    1.5552   10.0867 H   0  0  0  0  0  0  0  0  0  0  0  0
    6.6433    1.2830   11.0789 H   0  0  0  0  0  0  0  0  0  0  0  0
    6.6349    2.3134    9.6286 H   0  0  0  0  0  0  0  0  0  0  0  0
    5.0910    2.1141    5.9325 H   0  0  0  0  0  0  0  0  0  0  0  0
    3.2682    1.1741    4.1770 H   0  0  0  0  0  0  0  0  0  0  0  0
    5.0370    1.5416    3.5992 H   0  0  0  0  0  0  0  0  0  0  0  0
    2.7571   -0.7713    4.1837 H   0  0  0  0  0  0  0  0  0  0  0  0
    2.0074   -1.5174    5.8191 H   0  0  0  0  0  0  0  0  0  0  0  0
    0.5837   -0.2115    5.1048 H   0  0  0  0  0  0  0  0  0  0  0  0
   -0.4727   -1.6659    6.3182 H   0  0  0  0  0  0  0  0  0  0  0  0
    0.8211   -2.0708    8.8275 H   0  0  0  0  0  0  0  0  0  0  0  0
    1.3229   -2.8011    7.3566 H   0  0  0  0  0  0  0  0  0  0  0  0
    1.4125   -0.1315    9.4471 H   0  0  0  0  0  0  0  0  0  0  0  0
    2.9024    0.7279    9.1008 H   0  0  0  0  0  0  0  0  0  0  0  0
    2.9126   -0.8035    9.8727 H   0  0  0  0  0  0  0  0  0  0  0  0
   -2.9251    2.0465    6.1597 H   0  0  0  0  0  0  0  0  0  0  0  0
   -2.4020    1.8382    7.8502 H   0  0  0  0  0  0  0  0  0  0  0  0
   -3.0243    0.4937    6.8736 H   0  0  0  0  0  0  0  0  0  0  0  0
    0.3128    2.9004    8.0281 H   0  0  0  0  0  0  0  0  0  0  0  0
    0.9889    1.6191    8.6677 H   0  0  0  0  0  0  0  0  0  0  0  0
    2.0699    3.9867    7.7312 H   0  0  0  0  0  0  0  0  0  0  0  0
    3.0283    2.7348    8.3021 H   0  0  0  0  0  0  0  0  0  0  0  0
    3.7202    5.0580    6.6673 H   0  0  0  0  0  0  0  0  0  0  0  0
    4.8127    4.2909    5.5457 H   0  0  0  0  0  0  0  0  0  0  0  0
    4.8132    3.8525    7.2234 H   0  0  0  0  0  0  0  0  0  0  0  0
    0.9481    5.1905    4.4069 H   0  0  0  0  0  0  0  0  0  0  0  0
    2.6190    5.5613    4.7166 H   0  0  0  0  0  0  0  0  0  0  0  0
    1.5944    5.2018    6.0474 H   0  0  0  0  0  0  0  0  0  0  0  0
    2.6241    4.3261    2.8738 H   0  0  0  0  0  0  0  0  0  0  0  0
    2.9295    2.6600    2.8307 H   0  0  0  0  0  0  0  0  0  0  0  0
    4.0197    3.6861    3.7079 H   0  0  0  0  0  0  0  0  0  0  0  0
    0.2344    3.3016    3.8612 H   0  0  0  0  0  0  0  0  0  0  0  0
    1.7577    0.1292    1.8805 H   0  0  0  0  0  0  0  0  0  0  0  0
    0.3651    0.1933    0.8031 H   0  0  0  0  0  0  0  0  0  0  0  0
   -1.4962    3.5835    6.9479 H   0  0  0  0  0  0  0  0  0  0  0  0
   -0.2233    4.4196    6.3197 H   0  0  0  0  0  0  0  0  0  0  0  0
   -2.2931    3.3827    4.6769 H   0  0  0  0  0  0  0  0  0  0  0  0
  1  2  1  0
  1 52  1  0
  1 53  1  0
  1 54  1  0
  2  3  2  3
  2 55  1  0
  3  4  1  0
  3 56  1  0
  4  5  2  0
  4  6  1  0
  6  7  1  0
  7 26  1  0
  7  8  1  0
  7 57  1  6
  8  9  1  0
  8 13  1  0
  8 58  1  6
  9 10  1  0
 10 11  1  0
 10 12  2  0
 11 59  1  0
 11 60  1  0
 11 61  1  0
 13 31  1  0
 13 14  1  0
 13 62  1  1
 14 21  1  1
 14 15  1  0
 14 22  1  0
 15 16  1  0
 15 63  1  0
 15 64  1  0
 16 17  1  0
 16 18  1  0
 16 65  1  1
 17 66  1  0
 17 67  1  0
 17 68  1  0
 18 19  1  0
 18 20  1  0
 18 21  1  0
 19 69  1  0
 19 70  1  0
 19 71  1  0
 20 72  1  0
 20 73  1  0
 20 74  1  0
 22 23  1  0
 23 39  1  0
 23 24  1  0
 23 75  1  6
 24 25  1  0
 24 26  1  0
 24 76  1  6
 25 77  1  0
 26 27  1  0
 26 78  1  6
 27 31  1  0
 27 28  1  0
 27 79  1  0
 28 36  1  0
 28 29  1  0
 28 80  1  6
 29 30  1  0
 29 33  1  0
 29 81  1  6
 30 31  1  0
 30 82  1  0
 30 83  1  0
 31 32  1  1
 32 84  1  0
 32 85  1  0
 32 86  1  0
 33 34  1  0
 34 49  1  0
 34 35  1  6
 34 36  1  0
 35 87  1  0
 35 88  1  0
 35 89  1  0
 36 49  1  0
 36 37  1  1
 37 38  1  0
 37 90  1  0
 37 91  1  0
 38 39  1  0
 38 92  1  0
 38 93  1  0
 39 40  1  1
 39 41  1  0
 40 94  1  0
 40 95  1  0
 40 96  1  0
 41 42  1  0
 41 43  1  0
 41 44  1  0
 42 97  1  0
 42 98  1  0
 42 99  1  0
 43100  1  0
 43101  1  0
 43102  1  0
 44 45  1  0
 44 49  1  0
 44103  1  6
 45 46  1  0
 46 47  1  0
 46 48  2  0
 47104  1  0
 47105  1  0
 49 50  1  1
 50 51  1  0
 50106  1  0
 50107  1  0
 51108  1  0
M  END
>  <i_m_ct_stereo_status>  (246) 
1

>  <s_m_source_file>  (246) 
/var/tmp/pbs.5076255.sched01/tmpbaygurib/766rrai79r.sdf

>  <i_m_source_file_index>  (246) 
30

>  <i_lp_mmshare_version>  (246) 
48012

>  <i_f3d_flags>  (246) 
0

>  <s_epik_input>  (246) 
W0NIM11DKE8xKShbQ0gzXSlbQ0BIXShbQ0gzXSlbQ0gyXVtDQEBdMTJbQ0BIXTNbQ0BAXTQoW0NIM10pW0NAQEhdNVtDQEhdKFtDQEBIXShbQ0BIXTNPQyg9TylbQ0gzXSlPQyg9TylcW0NIXT1bQ0hdXFtDSDNdKVtDQEhdKFtPSF0pW0NASF0oTzIpW0NAXTYoW0NIM10pW0NIMl1bQ0gyXVtDQEBdNzhbQ0BASF01W0NAQEhdKFtDSDJdNClPW0NAXTcoW0NIM10pQzgoW0NIMl1bT0hdKVtDQEBIXShDNihbQ0gzXSlbQ0gzXSlPQyg9TylbTkgyXQ==

>  <s_epik_cmdline>  (246) 
J2VwaWtfcHl0aG9uJywgJy1waHQnLCAnMi4wJywgJy1waCcsICc3LjAnLCAnLXRuJywgJzgnLCAnLW1hJywgJzIwMCcsICctaW1hZScsICc8aW5maWxlLm1hZT4nLCAnLW9tYWUnLCAnPG91dGZpbGUubWFlPic=

>  <r_lp_tautomer_probability>  (246) 
1

>  <r_epik_Ionization_Penalty>  (246) 
3.69954e-06

>  <r_epik_Ionization_Penalty_Charging>  (246) 
0

>  <r_epik_Ionization_Penalty_Neutral>  (246) 
3.69954e-06

>  <r_epik_State_Penalty>  (246) 
-0

>  <r_epik_Charging_Adjusted_Penalty>  (246) 
0

>  <i_epik_Tot_Q>  (246) 
0

>  <i_epik_Tot_abs_Q>  (246) 
0

>  <s_epik_Chemistry_Notes>  (246) 
This compound has an ester and may undergo hydrolysis at high or low pH.

>  <s_lp_Force_Field>  (246) 
OPLS3e

>  <r_lp_Energy>  (246) 
284.671

>  <b_lp_Chiralities_Consistent>  (246) 
1

>  <s_lp_Variant>  (246) 
74:0-2

>  <s_i_glide_gridfile>  (246) 
pfpi4k_grid

>  <i_i_glide_lignum>  (246) 
30

>  <i_i_glide_rotatable_bonds>  (246) 
10

>  <r_i_docking_score>  (246) 
-2.32157

>  <r_i_glide_ligand_efficiency>  (246) 
-0.045521

>  <r_i_glide_ligand_efficiency_sa>  (246) 
-0.168811

>  <r_i_glide_ligand_efficiency_ln>  (246) 
-0.470733

>  <r_i_glide_gscore>  (246) 
-2.32157

>  <r_i_glide_lipo>  (246) 
-0.42523

>  <r_i_glide_hbond>  (246) 
-0.292128

>  <r_i_glide_metal>  (246) 
-0

>  <r_i_glide_rewards>  (246) 
-0.0208106

>  <r_i_glide_evdw>  (246) 
-23.3866

>  <r_i_glide_ecoul>  (246) 
-5.49902

>  <r_i_glide_erotb>  (246) 
0.0705817

>  <r_i_glide_esite>  (246) 
-0.145168

>  <r_i_glide_emodel>  (246) 
-26.9056

>  <r_i_glide_energy>  (246) 
-28.8856

>  <r_i_glide_einternal>  (246) 
5.25544

>  <r_i_glide_intrahb_reward>  (246) 
-0

>  <i_i_glide_confnum>  (246) 
5

>  <i_i_glide_posenum>  (246) 
23

>  <r_i_glide_eff_state_penalty>  (246) 
0

>  <ligand_id>  (246) 
74

>  <original_smiles>  (246) 
CC=CC(=O)OC1C(OC(C)=O)C2C3(CC(C)C(C)(C)O3)OC3C(O)C1C1C4C(CC12C)OC1(C)C42CCC3(C)C(C)(C)C(OC(N)=O)C12CO

>  <smiles>  (246) 
[H]OC([H])([H])C12C([H])(OC(=O)N([H])[H])C(C([H])([H])[H])(C([H])([H])[H])C3(C([H])([H])[H])C([H])([H])C([H])([H])C14C1([H])C([H])(OC24C([H])([H])[H])C([H])([H])C2(C([H])([H])[H])C4([H])C([H])(OC(=O)C([H])([H])[H])C([H])(OC(=O)C([H])=C([H])C([H])([H])[H])C([H])(C([H])(O[H])C3([H])OC43OC(C([H])([H])[H])(C([H])([H])[H])C([H])(C([H])([H])[H])C3([H])[H])C12[H]

$$$$
75:0:0
     RDKit          3D

 34 37  0  0  1  0  0  0  0  0999 V2000
   -8.8893  -12.9675   -9.7225 C   0  0  0  0  0  0  0  0  0  0  0  0
   -7.5442  -12.2374   -9.8213 C   0  0  0  0  0  0  0  0  0  0  0  0
   -7.6601  -10.8602   -9.3635 N   0  0  0  0  0  0  0  0  0  0  0  0
   -8.3515   -9.9529  -10.1157 N   0  0  0  0  0  0  0  0  0  0  0  0
   -8.2861   -8.8909   -9.3593 C   0  0  0  0  0  0  0  0  0  0  0  0
   -8.8500   -7.6101   -9.5971 N   0  0  0  0  0  0  0  0  0  0  0  0
   -8.7020   -6.5997   -8.7076 C   0  0  0  0  0  0  0  0  0  0  0  0
   -9.1791   -5.4821   -8.9146 O   0  0  0  0  0  0  0  0  0  0  0  0
   -7.9243   -6.8750   -7.4471 C   0  0  0  0  0  0  0  0  0  0  0  0
   -7.5765   -6.0565   -6.3377 C   0  0  0  0  0  0  0  0  0  0  0  0
   -6.8471   -6.8113   -5.4562 C   0  0  0  0  0  0  0  0  0  0  0  0
   -6.7218   -8.0918   -5.9933 N   0  0  0  0  0  0  0  0  0  0  0  0
   -7.3844   -8.1065   -7.2073 C   0  0  0  0  0  0  0  0  0  0  0  0
   -7.5594   -9.1531   -8.1889 C   0  0  0  0  0  0  0  0  0  0  0  0
   -7.1507  -10.3970   -8.1692 N   0  0  0  0  0  0  0  0  0  0  0  0
   -6.2585   -6.3269   -4.1661 C   0  0  0  0  0  0  0  0  0  0  0  0
   -6.8099   -4.9207   -3.8051 C   0  0  0  0  0  0  0  0  0  0  0  0
   -7.0060   -4.0079   -5.0302 C   0  0  0  0  0  0  0  0  0  0  0  0
   -7.9028   -4.6095   -6.1230 C   0  0  0  0  0  0  0  0  0  0  0  0
   -6.2491   -8.8778   -5.5706 H   0  0  0  0  0  0  0  0  0  0  0  0
   -8.8236  -13.9970  -10.0793 H   0  0  0  0  0  0  0  0  0  0  0  0
   -9.6603  -12.4661  -10.3123 H   0  0  0  0  0  0  0  0  0  0  0  0
   -9.2259  -12.9792   -8.6881 H   0  0  0  0  0  0  0  0  0  0  0  0
   -6.7635  -12.7654   -9.2719 H   0  0  0  0  0  0  0  0  0  0  0  0
   -7.2403  -12.2317  -10.8656 H   0  0  0  0  0  0  0  0  0  0  0  0
   -6.4638   -7.0291   -3.3543 H   0  0  0  0  0  0  0  0  0  0  0  0
   -5.1726   -6.2661   -4.2803 H   0  0  0  0  0  0  0  0  0  0  0  0
   -7.7910   -5.0133   -3.3457 H   0  0  0  0  0  0  0  0  0  0  0  0
   -6.1971   -4.4088   -3.0658 H   0  0  0  0  0  0  0  0  0  0  0  0
   -7.4424   -3.0614   -4.7262 H   0  0  0  0  0  0  0  0  0  0  0  0
   -6.0184   -3.8087   -5.4556 H   0  0  0  0  0  0  0  0  0  0  0  0
   -7.7643   -4.0496   -7.0467 H   0  0  0  0  0  0  0  0  0  0  0  0
   -8.9593   -4.5187   -5.8599 H   0  0  0  0  0  0  0  0  0  0  0  0
   -9.3728   -7.4767  -10.4501 H   0  0  0  0  0  0  0  0  0  0  0  0
  1  2  1  0
  1 21  1  0
  1 22  1  0
  1 23  1  0
  2  3  1  0
  2 24  1  0
  2 25  1  0
  3 15  1  0
  3  4  1  0
  4  5  2  0
  5 14  1  0
  5  6  1  0
  6  7  1  0
  6 34  1  0
  7  8  2  0
  7  9  1  0
  9 13  2  0
  9 10  1  0
 10 19  1  0
 10 11  2  0
 11 12  1  0
 11 16  1  0
 12 20  1  0
 12 13  1  0
 13 14  1  0
 14 15  2  0
 16 17  1  0
 16 26  1  0
 16 27  1  0
 17 18  1  0
 17 28  1  0
 17 29  1  0
 18 19  1  0
 18 30  1  0
 18 31  1  0
 19 32  1  0
 19 33  1  0
M  END
>  <i_m_ct_stereo_status>  (247) 
1

>  <s_m_source_file>  (247) 
/var/tmp/pbs.5076255.sched01/tmpbaygurib/766rrai79r.sdf

>  <i_m_source_file_index>  (247) 
33

>  <i_lp_mmshare_version>  (247) 
48012

>  <i_f3d_flags>  (247) 
0

>  <s_epik_input>  (247) 
W0NIM11bQ0gyXW4objEpbmMoYzEyKWMzYyhjKG4yKVtPSF0pYzRjKFtuSF0zKVtDSDJdW0NIMl1bQ0gyXVtDSDJdNA==

>  <s_epik_cmdline>  (247) 
J2VwaWtfcHl0aG9uJywgJy1waHQnLCAnMi4wJywgJy1waCcsICc3LjAnLCAnLXRuJywgJzgnLCAnLW1hJywgJzIwMCcsICctaW1hZScsICc8aW5maWxlLm1hZT4nLCAnLW9tYWUnLCAnPG91dGZpbGUubWFlPic=

>  <r_lp_tautomer_probability>  (247) 
1

>  <r_epik_Ionization_Penalty>  (247) 
0.000219274

>  <r_epik_Ionization_Penalty_Charging>  (247) 
7.0853e-09

>  <r_epik_Ionization_Penalty_Neutral>  (247) 
0.000219267

>  <r_epik_State_Penalty>  (247) 
-0

>  <r_epik_Charging_Adjusted_Penalty>  (247) 
7.0853e-09

>  <i_epik_Tot_Q>  (247) 
0

>  <i_epik_Tot_abs_Q>  (247) 
0

>  <s_lp_Force_Field>  (247) 
OPLS3e

>  <r_lp_Energy>  (247) 
23.4358

>  <b_lp_Chiralities_Consistent>  (247) 
1

>  <s_lp_Variant>  (247) 
75:0-1

>  <s_i_glide_gridfile>  (247) 
pfpi4k_grid

>  <i_i_glide_lignum>  (247) 
33

>  <i_i_glide_rotatable_bonds>  (247) 
1

>  <r_i_docking_score>  (247) 
-5.76774

>  <r_i_glide_ligand_efficiency>  (247) 
-0.303565

>  <r_i_glide_ligand_efficiency_sa>  (247) 
-0.810035

>  <r_i_glide_ligand_efficiency_ln>  (247) 
-1.46225

>  <r_i_glide_gscore>  (247) 
-5.76774

>  <r_i_glide_lipo>  (247) 
-2.31524

>  <r_i_glide_hbond>  (247) 
0

>  <r_i_glide_metal>  (247) 
-0

>  <r_i_glide_rewards>  (247) 
-2.17431

>  <r_i_glide_evdw>  (247) 
-23.3127

>  <r_i_glide_ecoul>  (247) 
-0.75043

>  <r_i_glide_erotb>  (247) 
0

>  <r_i_glide_esite>  (247) 
0

>  <r_i_glide_emodel>  (247) 
-32.6327

>  <r_i_glide_energy>  (247) 
-24.0631

>  <r_i_glide_einternal>  (247) 
0.194517

>  <r_i_glide_intrahb_reward>  (247) 
-0

>  <i_i_glide_confnum>  (247) 
1

>  <i_i_glide_posenum>  (247) 
10

>  <r_i_glide_eff_state_penalty>  (247) 
0

>  <ligand_id>  (247) 
75

>  <original_smiles>  (247) 
CCn1nc2nc(O)c3c4c([nH]c3c2n1)CCCC4

>  <smiles>  (247) 
[H]n1c2c(c3c(=O)n([H])c4nn(C([H])([H])C([H])([H])[H])nc4c31)C([H])([H])C([H])([H])C([H])([H])C2([H])[H]

$$$$
75:0:1
     RDKit          3D

 34 37  0  0  1  0  0  0  0  0999 V2000
    8.7579   -7.0462    3.2612 C   0  0  0  0  0  0  0  0  0  0  0  0
    8.0190   -8.1170    2.4398 C   0  0  0  0  0  0  0  0  0  0  0  0
    6.6129   -7.8058    2.2519 N   0  0  0  0  0  0  0  0  0  0  0  0
    6.2458   -6.6858    1.5581 N   0  0  0  0  0  0  0  0  0  0  0  0
    4.9481   -6.7953    1.5683 C   0  0  0  0  0  0  0  0  0  0  0  0
    3.9892   -5.9181    0.9985 N   0  0  0  0  0  0  0  0  0  0  0  0
    2.6586   -6.1603    1.0808 C   0  0  0  0  0  0  0  0  0  0  0  0
    1.8252   -5.4161    0.5704 O   0  0  0  0  0  0  0  0  0  0  0  0
    2.2134   -7.3869    1.8068 C   0  0  0  0  0  0  0  0  0  0  0  0
    0.9208   -7.9113    2.0830 C   0  0  0  0  0  0  0  0  0  0  0  0
    1.0842   -9.0796    2.7750 C   0  0  0  0  0  0  0  0  0  0  0  0
    2.4471   -9.2977    2.9473 N   0  0  0  0  0  0  0  0  0  0  0  0
    3.1252   -8.2481    2.3524 C   0  0  0  0  0  0  0  0  0  0  0  0
    4.5395   -7.9570    2.2430 C   0  0  0  0  0  0  0  0  0  0  0  0
    5.5822   -8.6173    2.6833 N   0  0  0  0  0  0  0  0  0  0  0  0
   -0.0274   -9.9442    3.2733 C   0  0  0  0  0  0  0  0  0  0  0  0
   -1.3897   -9.5037    2.6710 C   0  0  0  0  0  0  0  0  0  0  0  0
   -1.5492   -7.9777    2.5196 C   0  0  0  0  0  0  0  0  0  0  0  0
   -0.4128   -7.3327    1.7047 C   0  0  0  0  0  0  0  0  0  0  0  0
    2.8681  -10.0890    3.4200 H   0  0  0  0  0  0  0  0  0  0  0  0
    9.8118   -7.2962    3.3628 H   0  0  0  0  0  0  0  0  0  0  0  0
    8.3374   -6.9573    4.2607 H   0  0  0  0  0  0  0  0  0  0  0  0
    8.7134   -6.0639    2.7902 H   0  0  0  0  0  0  0  0  0  0  0  0
    8.4756   -8.1728    1.4491 H   0  0  0  0  0  0  0  0  0  0  0  0
    8.1297   -9.0995    2.9038 H   0  0  0  0  0  0  0  0  0  0  0  0
    0.1745  -10.9937    3.0497 H   0  0  0  0  0  0  0  0  0  0  0  0
   -0.0820   -9.8544    4.3592 H   0  0  0  0  0  0  0  0  0  0  0  0
   -1.4929   -9.9525    1.6806 H   0  0  0  0  0  0  0  0  0  0  0  0
   -2.2120   -9.8622    3.2804 H   0  0  0  0  0  0  0  0  0  0  0  0
   -2.5181   -7.7401    2.0868 H   0  0  0  0  0  0  0  0  0  0  0  0
   -1.5383   -7.5451    3.5217 H   0  0  0  0  0  0  0  0  0  0  0  0
   -0.3941   -6.2595    1.8827 H   0  0  0  0  0  0  0  0  0  0  0  0
   -0.5704   -7.4779    0.6340 H   0  0  0  0  0  0  0  0  0  0  0  0
    4.3243   -5.0976    0.5111 H   0  0  0  0  0  0  0  0  0  0  0  0
  1  2  1  0
  1 21  1  0
  1 22  1  0
  1 23  1  0
  2  3  1  0
  2 24  1  0
  2 25  1  0
  3 15  1  0
  3  4  1  0
  4  5  2  0
  5 14  1  0
  5  6  1  0
  6  7  1  0
  6 34  1  0
  7  8  2  0
  7  9  1  0
  9 13  2  0
  9 10  1  0
 10 19  1  0
 10 11  2  0
 11 12  1  0
 11 16  1  0
 12 20  1  0
 12 13  1  0
 13 14  1  0
 14 15  2  0
 16 17  1  0
 16 26  1  0
 16 27  1  0
 17 18  1  0
 17 28  1  0
 17 29  1  0
 18 19  1  0
 18 30  1  0
 18 31  1  0
 19 32  1  0
 19 33  1  0
M  END
>  <i_m_ct_stereo_status>  (248) 
1

>  <s_m_source_file>  (248) 
/var/tmp/pbs.5076255.sched01/tmpbaygurib/766rrai79r.sdf

>  <i_m_source_file_index>  (248) 
33

>  <i_lp_mmshare_version>  (248) 
48012

>  <i_f3d_flags>  (248) 
0

>  <s_epik_input>  (248) 
W0NIM11bQ0gyXW4objEpbmMoYzEyKWMzYyhjKG4yKVtPSF0pYzRjKFtuSF0zKVtDSDJdW0NIMl1bQ0gyXVtDSDJdNA==

>  <s_epik_cmdline>  (248) 
J2VwaWtfcHl0aG9uJywgJy1waHQnLCAnMi4wJywgJy1waCcsICc3LjAnLCAnLXRuJywgJzgnLCAnLW1hJywgJzIwMCcsICctaW1hZScsICc8aW5maWxlLm1hZT4nLCAnLW9tYWUnLCAnPG91dGZpbGUubWFlPic=

>  <r_lp_tautomer_probability>  (248) 
1

>  <r_epik_Ionization_Penalty>  (248) 
0.000219274

>  <r_epik_Ionization_Penalty_Charging>  (248) 
7.0853e-09

>  <r_epik_Ionization_Penalty_Neutral>  (248) 
0.000219267

>  <r_epik_State_Penalty>  (248) 
-0

>  <r_epik_Charging_Adjusted_Penalty>  (248) 
7.0853e-09

>  <i_epik_Tot_Q>  (248) 
0

>  <i_epik_Tot_abs_Q>  (248) 
0

>  <s_lp_Force_Field>  (248) 
OPLS3e

>  <r_lp_Energy>  (248) 
23.4358

>  <b_lp_Chiralities_Consistent>  (248) 
1

>  <s_lp_Variant>  (248) 
75:0-1

>  <s_i_glide_gridfile>  (248) 
pfpi4k_grid

>  <i_i_glide_lignum>  (248) 
33

>  <i_i_glide_rotatable_bonds>  (248) 
1

>  <r_i_docking_score>  (248) 
-3.32086

>  <r_i_glide_ligand_efficiency>  (248) 
-0.174782

>  <r_i_glide_ligand_efficiency_sa>  (248) 
-0.466388

>  <r_i_glide_ligand_efficiency_ln>  (248) 
-0.841908

>  <r_i_glide_gscore>  (248) 
-3.32086

>  <r_i_glide_lipo>  (248) 
-0.0944465

>  <r_i_glide_hbond>  (248) 
-0.100971

>  <r_i_glide_metal>  (248) 
-0

>  <r_i_glide_rewards>  (248) 
-1.81922

>  <r_i_glide_evdw>  (248) 
-22.4246

>  <r_i_glide_ecoul>  (248) 
-1.21264

>  <r_i_glide_erotb>  (248) 
0

>  <r_i_glide_esite>  (248) 
-0.0030957

>  <r_i_glide_emodel>  (248) 
-28.3663

>  <r_i_glide_energy>  (248) 
-23.6372

>  <r_i_glide_einternal>  (248) 
0.16602

>  <r_i_glide_intrahb_reward>  (248) 
-0

>  <i_i_glide_confnum>  (248) 
3

>  <i_i_glide_posenum>  (248) 
5

>  <r_i_glide_eff_state_penalty>  (248) 
0

>  <ligand_id>  (248) 
75

>  <original_smiles>  (248) 
CCn1nc2nc(O)c3c4c([nH]c3c2n1)CCCC4

>  <smiles>  (248) 
[H]n1c2c(c3c(=O)n([H])c4nn(C([H])([H])C([H])([H])[H])nc4c31)C([H])([H])C([H])([H])C([H])([H])C2([H])[H]

$$$$
75:0:2
     RDKit          3D

 34 37  0  0  1  0  0  0  0  0999 V2000
    8.6147   -6.6879    2.6641 C   0  0  0  0  0  0  0  0  0  0  0  0
    7.9254   -7.1271    1.3645 C   0  0  0  0  0  0  0  0  0  0  0  0
    6.6595   -7.7781    1.6398 N   0  0  0  0  0  0  0  0  0  0  0  0
    6.6314   -9.0862    2.0390 N   0  0  0  0  0  0  0  0  0  0  0  0
    5.3610   -9.2550    2.2603 C   0  0  0  0  0  0  0  0  0  0  0  0
    4.7039  -10.4132    2.7436 N   0  0  0  0  0  0  0  0  0  0  0  0
    3.3607  -10.4604    2.9117 C   0  0  0  0  0  0  0  0  0  0  0  0
    2.7954  -11.4778    3.2973 O   0  0  0  0  0  0  0  0  0  0  0  0
    2.5753   -9.2226    2.6070 C   0  0  0  0  0  0  0  0  0  0  0  0
    1.1803   -8.9343    2.6665 C   0  0  0  0  0  0  0  0  0  0  0  0
    1.0089   -7.6327    2.2855 C   0  0  0  0  0  0  0  0  0  0  0  0
    2.2548   -7.0987    1.9715 N   0  0  0  0  0  0  0  0  0  0  0  0
    3.1993   -8.0877    2.1638 C   0  0  0  0  0  0  0  0  0  0  0  0
    4.6337   -8.0867    1.9756 C   0  0  0  0  0  0  0  0  0  0  0  0
    5.4407   -7.1304    1.5866 N   0  0  0  0  0  0  0  0  0  0  0  0
   -0.3030   -6.9329    2.1995 C   0  0  0  0  0  0  0  0  0  0  0  0
   -1.4442   -7.7629    2.8569 C   0  0  0  0  0  0  0  0  0  0  0  0
   -1.3087   -9.2881    2.6278 C   0  0  0  0  0  0  0  0  0  0  0  0
    0.0583   -9.8542    3.0634 C   0  0  0  0  0  0  0  0  0  0  0  0
    2.4521   -6.1556    1.6610 H   0  0  0  0  0  0  0  0  0  0  0  0
    9.5791   -6.2225    2.4738 H   0  0  0  0  0  0  0  0  0  0  0  0
    8.7907   -7.5422    3.3199 H   0  0  0  0  0  0  0  0  0  0  0  0
    7.9893   -5.9775    3.2019 H   0  0  0  0  0  0  0  0  0  0  0  0
    7.7852   -6.2857    0.6833 H   0  0  0  0  0  0  0  0  0  0  0  0
    8.5629   -7.8417    0.8451 H   0  0  0  0  0  0  0  0  0  0  0  0
   -0.1997   -5.9539    2.6721 H   0  0  0  0  0  0  0  0  0  0  0  0
   -0.5464   -6.7863    1.1444 H   0  0  0  0  0  0  0  0  0  0  0  0
   -1.4271   -7.5973    3.9348 H   0  0  0  0  0  0  0  0  0  0  0  0
   -2.4227   -7.4255    2.5102 H   0  0  0  0  0  0  0  0  0  0  0  0
   -2.1121   -9.8373    3.1227 H   0  0  0  0  0  0  0  0  0  0  0  0
   -1.4192   -9.4769    1.5613 H   0  0  0  0  0  0  0  0  0  0  0  0
    0.2116  -10.8327    2.6093 H   0  0  0  0  0  0  0  0  0  0  0  0
    0.0887  -10.0036    4.1439 H   0  0  0  0  0  0  0  0  0  0  0  0
    5.2526  -11.2457    2.9049 H   0  0  0  0  0  0  0  0  0  0  0  0
  1  2  1  0
  1 21  1  0
  1 22  1  0
  1 23  1  0
  2  3  1  0
  2 24  1  0
  2 25  1  0
  3 15  1  0
  3  4  1  0
  4  5  2  0
  5 14  1  0
  5  6  1  0
  6  7  1  0
  6 34  1  0
  7  8  2  0
  7  9  1  0
  9 13  2  0
  9 10  1  0
 10 19  1  0
 10 11  2  0
 11 12  1  0
 11 16  1  0
 12 20  1  0
 12 13  1  0
 13 14  1  0
 14 15  2  0
 16 17  1  0
 16 26  1  0
 16 27  1  0
 17 18  1  0
 17 28  1  0
 17 29  1  0
 18 19  1  0
 18 30  1  0
 18 31  1  0
 19 32  1  0
 19 33  1  0
M  END
>  <i_m_ct_stereo_status>  (249) 
1

>  <s_m_source_file>  (249) 
/var/tmp/pbs.5076255.sched01/tmpbaygurib/766rrai79r.sdf

>  <i_m_source_file_index>  (249) 
33

>  <i_lp_mmshare_version>  (249) 
48012

>  <i_f3d_flags>  (249) 
0

>  <s_epik_input>  (249) 
W0NIM11bQ0gyXW4objEpbmMoYzEyKWMzYyhjKG4yKVtPSF0pYzRjKFtuSF0zKVtDSDJdW0NIMl1bQ0gyXVtDSDJdNA==

>  <s_epik_cmdline>  (249) 
J2VwaWtfcHl0aG9uJywgJy1waHQnLCAnMi4wJywgJy1waCcsICc3LjAnLCAnLXRuJywgJzgnLCAnLW1hJywgJzIwMCcsICctaW1hZScsICc8aW5maWxlLm1hZT4nLCAnLW9tYWUnLCAnPG91dGZpbGUubWFlPic=

>  <r_lp_tautomer_probability>  (249) 
1

>  <r_epik_Ionization_Penalty>  (249) 
0.000219274

>  <r_epik_Ionization_Penalty_Charging>  (249) 
7.0853e-09

>  <r_epik_Ionization_Penalty_Neutral>  (249) 
0.000219267

>  <r_epik_State_Penalty>  (249) 
-0

>  <r_epik_Charging_Adjusted_Penalty>  (249) 
7.0853e-09

>  <i_epik_Tot_Q>  (249) 
0

>  <i_epik_Tot_abs_Q>  (249) 
0

>  <s_lp_Force_Field>  (249) 
OPLS3e

>  <r_lp_Energy>  (249) 
23.4358

>  <b_lp_Chiralities_Consistent>  (249) 
1

>  <s_lp_Variant>  (249) 
75:0-1

>  <s_i_glide_gridfile>  (249) 
pfpi4k_grid

>  <i_i_glide_lignum>  (249) 
33

>  <i_i_glide_rotatable_bonds>  (249) 
1

>  <r_i_docking_score>  (249) 
-3.01318

>  <r_i_glide_ligand_efficiency>  (249) 
-0.158588

>  <r_i_glide_ligand_efficiency_sa>  (249) 
-0.423177

>  <r_i_glide_ligand_efficiency_ln>  (249) 
-0.763905

>  <r_i_glide_gscore>  (249) 
-3.01318

>  <r_i_glide_lipo>  (249) 
-0.139978

>  <r_i_glide_hbond>  (249) 
0

>  <r_i_glide_metal>  (249) 
-0

>  <r_i_glide_rewards>  (249) 
-1.79797

>  <r_i_glide_evdw>  (249) 
-24.327

>  <r_i_glide_ecoul>  (249) 
1.54327

>  <r_i_glide_erotb>  (249) 
0

>  <r_i_glide_esite>  (249) 
-0.0903706

>  <r_i_glide_emodel>  (249) 
-27.1113

>  <r_i_glide_energy>  (249) 
-22.7837

>  <r_i_glide_einternal>  (249) 
0.0488964

>  <r_i_glide_intrahb_reward>  (249) 
-0

>  <i_i_glide_confnum>  (249) 
3

>  <i_i_glide_posenum>  (249) 
14

>  <r_i_glide_eff_state_penalty>  (249) 
0

>  <ligand_id>  (249) 
75

>  <original_smiles>  (249) 
CCn1nc2nc(O)c3c4c([nH]c3c2n1)CCCC4

>  <smiles>  (249) 
[H]n1c2c(c3c(=O)n([H])c4nn(C([H])([H])C([H])([H])[H])nc4c31)C([H])([H])C([H])([H])C([H])([H])C2([H])[H]

$$$$
77:0:0
     RDKit          3D

 65 70  0  0  1  0  0  0  0  0999 V2000
    3.0613   -1.4557   -3.1639 C   0  0  0  0  0  0  0  0  0  0  0  0
    3.5379   -2.1617   -1.9094 C   0  0  0  0  0  0  0  0  0  0  0  0
    3.0727   -3.3364   -1.4604 C   0  0  0  0  0  0  0  0  0  0  0  0
    3.6166   -3.9146   -0.2609 C   0  0  0  0  0  0  0  0  0  0  0  0
    4.5942   -3.2534    0.4979 C   0  0  0  0  0  0  0  0  0  0  0  0
    5.0863   -1.9165   -0.0739 C   0  0  0  0  0  0  0  0  0  0  0  0
    5.9762   -1.2613    0.4703 O   0  0  0  0  0  0  0  0  0  0  0  0
    4.5198   -1.4686   -1.2447 O   0  0  0  0  0  0  0  0  0  0  0  0
    5.3604   -3.7459    1.9262 C   0  0  1  0  0  0  0  0  0  0  0  0
    6.2245   -4.4680    0.8014 C   0  0  1  0  0  0  0  0  0  0  0  0
    7.7405   -4.7071    1.0765 C   0  0  0  0  0  0  0  0  0  0  0  0
    5.3404   -5.6750    0.4433 C   0  0  0  0  0  0  0  0  0  0  0  0
    3.8597   -5.7192    1.2145 C   0  0  1  0  0  0  0  0  0  0  0  0
    3.1438   -5.1928    0.0993 O   0  0  0  0  0  0  0  0  0  0  0  0
    4.0395   -7.1033    1.7989 C   0  0  1  0  0  0  0  0  0  0  0  0
    4.2646   -8.1676    0.8828 O   0  0  0  0  0  0  0  0  0  0  0  0
    5.2665   -6.8241    2.7829 C   0  0  0  0  0  0  0  0  0  0  0  0
    4.8722   -7.7549    3.9922 C   0  0  0  0  0  0  0  0  0  0  0  0
    6.6258   -7.5628    2.4702 C   0  0  0  0  0  0  0  0  0  0  0  0
    5.5358   -5.1537    3.0304 C   0  0  2  0  0  0  0  0  0  0  0  0
    4.8617   -4.9100    4.3606 C   0  0  1  0  0  0  0  0  0  0  0  0
    5.6893   -4.3087    5.3432 O   0  0  0  0  0  0  0  0  0  0  0  0
    3.4821   -4.4043    3.9962 C   0  0  1  0  0  0  0  0  0  0  0  0
    2.5182   -4.8176    5.1494 C   0  0  0  0  0  0  0  0  0  0  0  0
    3.6004   -2.8498    3.8561 C   0  0  0  0  0  0  0  0  0  0  0  0
    2.2416   -2.1110    4.1108 C   0  0  0  0  0  0  0  0  0  0  0  0
    4.6137   -1.9523    4.6209 C   0  0  0  0  0  0  0  0  0  0  0  0
    3.9937   -2.9145    2.4022 C   0  0  2  0  0  0  0  0  0  0  0  0
    2.7873   -3.6012    2.0869 O   0  0  0  0  0  0  0  0  0  0  0  0
    2.9989   -4.9165    2.4866 C   0  0  1  0  0  0  0  0  0  0  0  0
    1.5420   -5.4567    2.4978 C   0  0  0  0  0  0  0  0  0  0  0  0
    2.2789   -2.0137   -3.6815 H   0  0  0  0  0  0  0  0  0  0  0  0
    3.8938   -1.3110   -3.8523 H   0  0  0  0  0  0  0  0  0  0  0  0
    2.6614   -0.4728   -2.9081 H   0  0  0  0  0  0  0  0  0  0  0  0
    2.2946   -3.8553   -1.9998 H   0  0  0  0  0  0  0  0  0  0  0  0
    6.4865   -3.9905   -0.1574 H   0  0  0  0  0  0  0  0  0  0  0  0
    8.0284   -5.2320    1.9810 H   0  0  0  0  0  0  0  0  0  0  0  0
    8.2641   -3.7509    1.1195 H   0  0  0  0  0  0  0  0  0  0  0  0
    8.1932   -5.2673    0.2549 H   0  0  0  0  0  0  0  0  0  0  0  0
    5.1973   -5.6717   -0.6392 H   0  0  0  0  0  0  0  0  0  0  0  0
    5.9170   -6.5775    0.3643 H   0  0  0  0  0  0  0  0  0  0  0  0
    3.1463   -7.4120    2.3338 H   0  0  0  0  0  0  0  0  0  0  0  0
    4.2239   -8.9905    1.3511 H   0  0  0  0  0  0  0  0  0  0  0  0
    5.5869   -7.7053    4.8177 H   0  0  0  0  0  0  0  0  0  0  0  0
    4.8227   -8.8075    3.7004 H   0  0  0  0  0  0  0  0  0  0  0  0
    3.8793   -7.5463    4.3965 H   0  0  0  0  0  0  0  0  0  0  0  0
    7.2853   -7.5359    3.3383 H   0  0  0  0  0  0  0  0  0  0  0  0
    7.2467   -7.1828    1.6713 H   0  0  0  0  0  0  0  0  0  0  0  0
    6.4787   -8.6168    2.2294 H   0  0  0  0  0  0  0  0  0  0  0  0
    6.5719   -5.1248    3.3460 H   0  0  0  0  0  0  0  0  0  0  0  0
    4.7071   -5.7500    5.0026 H   0  0  0  0  0  0  0  0  0  0  0  0
    6.3940   -4.9015    5.5592 H   0  0  0  0  0  0  0  0  0  0  0  0
    1.4990   -4.4607    5.0189 H   0  0  0  0  0  0  0  0  0  0  0  0
    2.8663   -4.4292    6.1072 H   0  0  0  0  0  0  0  0  0  0  0  0
    2.4505   -5.9014    5.2503 H   0  0  0  0  0  0  0  0  0  0  0  0
    2.2555   -1.0988    3.7050 H   0  0  0  0  0  0  0  0  0  0  0  0
    2.0478   -2.0147    5.1808 H   0  0  0  0  0  0  0  0  0  0  0  0
    1.3681   -2.6024    3.6825 H   0  0  0  0  0  0  0  0  0  0  0  0
    4.4470   -0.8960    4.4060 H   0  0  0  0  0  0  0  0  0  0  0  0
    5.6459   -2.1327    4.3231 H   0  0  0  0  0  0  0  0  0  0  0  0
    4.5251   -2.0674    5.7031 H   0  0  0  0  0  0  0  0  0  0  0  0
    3.9399   -1.8525    2.1341 H   0  0  0  0  0  0  0  0  0  0  0  0
    1.4289   -6.3690    3.0821 H   0  0  0  0  0  0  0  0  0  0  0  0
    1.1970   -5.6826    1.4891 H   0  0  0  0  0  0  0  0  0  0  0  0
    0.8417   -4.7270    2.9019 H   0  0  0  0  0  0  0  0  0  0  0  0
  1  2  1  0
  1 32  1  0
  1 33  1  0
  1 34  1  0
  2  8  1  0
  2  3  2  0
  3  4  1  0
  3 35  1  0
  4 14  1  0
  4  5  2  0
  5  6  1  0
  9  5  1  6
  6  7  2  0
  6  8  1  0
  9 20  1  0
  9 28  1  0
  9 10  1  0
 10 11  1  0
 10 12  1  0
 10 36  1  6
 11 37  1  0
 11 38  1  0
 11 39  1  0
 12 13  1  0
 12 40  1  0
 12 41  1  0
 13 30  1  0
 13 14  1  6
 13 15  1  0
 15 16  1  0
 15 17  1  0
 15 42  1  1
 16 43  1  0
 17 18  1  0
 17 19  1  0
 17 20  1  0
 18 44  1  0
 18 45  1  0
 18 46  1  0
 19 47  1  0
 19 48  1  0
 19 49  1  0
 20 21  1  0
 20 50  1  1
 21 22  1  0
 21 23  1  0
 21 51  1  1
 22 52  1  0
 23 30  1  0
 23 24  1  1
 23 25  1  0
 24 53  1  0
 24 54  1  0
 24 55  1  0
 25 26  1  0
 25 27  1  0
 25 28  1  0
 26 56  1  0
 26 57  1  0
 26 58  1  0
 27 59  1  0
 27 60  1  0
 27 61  1  0
 28 29  1  0
 28 62  1  6
 29 30  1  0
 30 31  1  1
 31 63  1  0
 31 64  1  0
 31 65  1  0
M  END
>  <i_m_ct_stereo_status>  (250) 
1

>  <s_m_source_file>  (250) 
/var/tmp/pbs.5076255.sched01/tmpbaygurib/766rrai79r.sdf

>  <i_m_source_file_index>  (250) 
35

>  <i_lp_mmshare_version>  (250) 
48012

>  <i_f3d_flags>  (250) 
0

>  <s_epik_input>  (250) 
Tz1jMW9jKFtDSDNdKVtjSF1jKGMxQzIzNClPW0NAQF01KFtDSDJdW0NAQEhdMltDSDNdKVtDQEBdNihbQ0gzXSlbQ0BdKFtDSDNdKShDKFtDSDNdKShbQ0gzXSlbQ0BASF00TzYpW0NASF0oW09IXSlbQ0BIXTNDKFtDSDNdKShbQ0gzXSlbQ0BASF01W09IXQ==

>  <s_epik_cmdline>  (250) 
J2VwaWtfcHl0aG9uJywgJy1waHQnLCAnMi4wJywgJy1waCcsICc3LjAnLCAnLXRuJywgJzgnLCAnLW1hJywgJzIwMCcsICctaW1hZScsICc8aW5maWxlLm1hZT4nLCAnLW9tYWUnLCAnPG91dGZpbGUubWFlPic=

>  <r_lp_tautomer_probability>  (250) 
1

>  <r_epik_Ionization_Penalty>  (250) 
1.77142e-07

>  <r_epik_Ionization_Penalty_Charging>  (250) 
0

>  <r_epik_Ionization_Penalty_Neutral>  (250) 
1.77142e-07

>  <r_epik_State_Penalty>  (250) 
-0

>  <r_epik_Charging_Adjusted_Penalty>  (250) 
0

>  <i_epik_Tot_Q>  (250) 
0

>  <i_epik_Tot_abs_Q>  (250) 
0

>  <s_lp_Force_Field>  (250) 
OPLS3e

>  <r_lp_Energy>  (250) 
445.258

>  <b_lp_Chiralities_Consistent>  (250) 
1

>  <s_lp_Variant>  (250) 
77:0-1

>  <s_i_glide_gridfile>  (250) 
pfpi4k_grid

>  <i_i_glide_lignum>  (250) 
35

>  <i_i_glide_rotatable_bonds>  (250) 
2

>  <r_i_docking_score>  (250) 
-2.71314

>  <r_i_glide_ligand_efficiency>  (250) 
-0.0875207

>  <r_i_glide_ligand_efficiency_sa>  (250) 
-0.274936

>  <r_i_glide_ligand_efficiency_ln>  (250) 
-0.611896

>  <r_i_glide_gscore>  (250) 
-2.71314

>  <r_i_glide_lipo>  (250) 
-0.687325

>  <r_i_glide_hbond>  (250) 
0

>  <r_i_glide_metal>  (250) 
-0

>  <r_i_glide_rewards>  (250) 
-0.473633

>  <r_i_glide_evdw>  (250) 
-29.8777

>  <r_i_glide_ecoul>  (250) 
-0.38866

>  <r_i_glide_erotb>  (250) 
0

>  <r_i_glide_esite>  (250) 
0

>  <r_i_glide_emodel>  (250) 
-35.2056

>  <r_i_glide_energy>  (250) 
-30.2663

>  <r_i_glide_einternal>  (250) 
0.694607

>  <r_i_glide_intrahb_reward>  (250) 
-0

>  <i_i_glide_confnum>  (250) 
1

>  <i_i_glide_posenum>  (250) 
38

>  <r_i_glide_eff_state_penalty>  (250) 
0

>  <ligand_id>  (250) 
77

>  <original_smiles>  (250) 
Cc1cc2c(c(=O)o1)C13C(C)CC4(O2)C(O)C(C)(C)C1C(O)C1(C)C(C)(C)C3OC41C

>  <smiles>  (250) 
[H]OC1([H])C23Oc4c([H])c(C([H])([H])[H])oc(=O)c4C4(C5([H])OC2(C([H])([H])[H])C(C([H])([H])[H])(C([H])(O[H])C4([H])C1(C([H])([H])[H])C([H])([H])[H])C5(C([H])([H])[H])C([H])([H])[H])C([H])(C([H])([H])[H])C3([H])[H]

$$$$
77:0:1
     RDKit          3D

 65 70  0  0  1  0  0  0  0  0999 V2000
    3.2553   -1.4243   -3.1352 C   0  0  0  0  0  0  0  0  0  0  0  0
    3.7084   -2.1451   -1.8791 C   0  0  0  0  0  0  0  0  0  0  0  0
    3.2294   -3.3172   -1.4443 C   0  0  0  0  0  0  0  0  0  0  0  0
    3.7500   -3.9082   -0.2400 C   0  0  0  0  0  0  0  0  0  0  0  0
    4.7242   -3.2611    0.5335 C   0  0  0  0  0  0  0  0  0  0  0  0
    5.2375   -1.9256   -0.0227 C   0  0  0  0  0  0  0  0  0  0  0  0
    6.1247   -1.2830    0.5379 O   0  0  0  0  0  0  0  0  0  0  0  0
    4.6902   -1.4652   -1.1979 O   0  0  0  0  0  0  0  0  0  0  0  0
    5.4691   -3.7700    1.9681 C   0  0  1  0  0  0  0  0  0  0  0  0
    6.3388   -4.4938    0.8487 C   0  0  1  0  0  0  0  0  0  0  0  0
    7.8493   -4.7511    1.1395 C   0  0  0  0  0  0  0  0  0  0  0  0
    5.4468   -5.6892    0.4746 C   0  0  0  0  0  0  0  0  0  0  0  0
    3.9574   -5.7245    1.2267 C   0  0  1  0  0  0  0  0  0  0  0  0
    3.2605   -5.1838    0.1054 O   0  0  0  0  0  0  0  0  0  0  0  0
    4.1183   -7.1144    1.8034 C   0  0  1  0  0  0  0  0  0  0  0  0
    4.3446   -8.1742    0.8822 O   0  0  0  0  0  0  0  0  0  0  0  0
    5.3363   -6.8522    2.8038 C   0  0  0  0  0  0  0  0  0  0  0  0
    4.9180   -7.7884    4.0013 C   0  0  0  0  0  0  0  0  0  0  0  0
    6.6920   -7.6023    2.5019 C   0  0  0  0  0  0  0  0  0  0  0  0
    5.6167   -5.1853    3.0656 C   0  0  2  0  0  0  0  0  0  0  0  0
    4.9259   -4.9450    4.3868 C   0  0  1  0  0  0  0  0  0  0  0  0
    5.7385   -4.3723    5.3951 O   0  0  0  0  0  0  0  0  0  0  0  0
    3.5579   -4.4235    4.0116 C   0  0  1  0  0  0  0  0  0  0  0  0
    2.5788   -4.8354    5.1521 C   0  0  0  0  0  0  0  0  0  0  0  0
    3.6954   -2.8697    3.8831 C   0  0  0  0  0  0  0  0  0  0  0  0
    2.3408   -2.1187    4.1260 C   0  0  0  0  0  0  0  0  0  0  0  0
    4.7080   -1.9884    4.6657 C   0  0  0  0  0  0  0  0  0  0  0  0
    4.1039   -2.9283    2.4328 C   0  0  2  0  0  0  0  0  0  0  0  0
    2.8947   -3.6022    2.0992 O   0  0  0  0  0  0  0  0  0  0  0  0
    3.0886   -4.9220    2.4931 C   0  0  1  0  0  0  0  0  0  0  0  0
    1.6286   -5.4498    2.4852 C   0  0  0  0  0  0  0  0  0  0  0  0
    2.4728   -1.9712   -3.6637 H   0  0  0  0  0  0  0  0  0  0  0  0
    4.0968   -1.2852   -3.8134 H   0  0  0  0  0  0  0  0  0  0  0  0
    2.8610   -0.4397   -2.8790 H   0  0  0  0  0  0  0  0  0  0  0  0
    2.4547   -3.8316   -1.9953 H   0  0  0  0  0  0  0  0  0  0  0  0
    6.6160   -4.0136   -0.1046 H   0  0  0  0  0  0  0  0  0  0  0  0
    8.1211   -5.2818    2.0460 H   0  0  0  0  0  0  0  0  0  0  0  0
    8.3830   -3.8009    1.1921 H   0  0  0  0  0  0  0  0  0  0  0  0
    8.3044   -5.3133    0.3199 H   0  0  0  0  0  0  0  0  0  0  0  0
    5.3178   -5.6797   -0.6093 H   0  0  0  0  0  0  0  0  0  0  0  0
    6.0178   -6.5958    0.3999 H   0  0  0  0  0  0  0  0  0  0  0  0
    3.2157   -7.4186    2.3251 H   0  0  0  0  0  0  0  0  0  0  0  0
    4.3165   -8.9984    1.3498 H   0  0  0  0  0  0  0  0  0  0  0  0
    5.6250   -7.7498    4.8344 H   0  0  0  0  0  0  0  0  0  0  0  0
    4.8613   -8.8377    3.7019 H   0  0  0  0  0  0  0  0  0  0  0  0
    3.9225   -7.5721    4.3954 H   0  0  0  0  0  0  0  0  0  0  0  0
    7.3410   -7.5866    3.3781 H   0  0  0  0  0  0  0  0  0  0  0  0
    7.3266   -7.2232    1.7133 H   0  0  0  0  0  0  0  0  0  0  0  0
    6.5375   -8.6531    2.2521 H   0  0  0  0  0  0  0  0  0  0  0  0
    6.6474   -5.1680    3.4003 H   0  0  0  0  0  0  0  0  0  0  0  0
    4.7624   -5.7902    5.0177 H   0  0  0  0  0  0  0  0  0  0  0  0
    5.2484   -4.3731    6.2033 H   0  0  0  0  0  0  0  0  0  0  0  0
    1.5641   -4.4686    5.0099 H   0  0  0  0  0  0  0  0  0  0  0  0
    2.9158   -4.4560    6.1175 H   0  0  0  0  0  0  0  0  0  0  0  0
    2.5004   -5.9194    5.2431 H   0  0  0  0  0  0  0  0  0  0  0  0
    2.3717   -1.1028    3.7297 H   0  0  0  0  0  0  0  0  0  0  0  0
    2.1347   -2.0285    5.1944 H   0  0  0  0  0  0  0  0  0  0  0  0
    1.4676   -2.5975    3.6825 H   0  0  0  0  0  0  0  0  0  0  0  0
    4.5547   -0.9293    4.4537 H   0  0  0  0  0  0  0  0  0  0  0  0
    5.7415   -2.1791    4.3786 H   0  0  0  0  0  0  0  0  0  0  0  0
    4.6063   -2.1041    5.7460 H   0  0  0  0  0  0  0  0  0  0  0  0
    4.0643   -1.8645    2.1697 H   0  0  0  0  0  0  0  0  0  0  0  0
    1.4995   -6.3654    3.0619 H   0  0  0  0  0  0  0  0  0  0  0  0
    1.2932   -5.6618    1.4701 H   0  0  0  0  0  0  0  0  0  0  0  0
    0.9324   -4.7155    2.8873 H   0  0  0  0  0  0  0  0  0  0  0  0
  1  2  1  0
  1 32  1  0
  1 33  1  0
  1 34  1  0
  2  8  1  0
  2  3  2  0
  3  4  1  0
  3 35  1  0
  4 14  1  0
  4  5  2  0
  5  6  1  0
  9  5  1  6
  6  7  2  0
  6  8  1  0
  9 20  1  0
  9 28  1  0
  9 10  1  0
 10 11  1  0
 10 12  1  0
 10 36  1  6
 11 37  1  0
 11 38  1  0
 11 39  1  0
 12 13  1  0
 12 40  1  0
 12 41  1  0
 13 30  1  0
 13 14  1  6
 13 15  1  0
 15 16  1  0
 15 17  1  0
 15 42  1  1
 16 43  1  0
 17 18  1  0
 17 19  1  0
 17 20  1  0
 18 44  1  0
 18 45  1  0
 18 46  1  0
 19 47  1  0
 19 48  1  0
 19 49  1  0
 20 21  1  0
 20 50  1  1
 21 22  1  0
 21 23  1  0
 21 51  1  1
 22 52  1  0
 23 30  1  0
 23 24  1  1
 23 25  1  0
 24 53  1  0
 24 54  1  0
 24 55  1  0
 25 26  1  0
 25 27  1  0
 25 28  1  0
 26 56  1  0
 26 57  1  0
 26 58  1  0
 27 59  1  0
 27 60  1  0
 27 61  1  0
 28 29  1  0
 28 62  1  6
 29 30  1  0
 30 31  1  1
 31 63  1  0
 31 64  1  0
 31 65  1  0
M  END
>  <i_m_ct_stereo_status>  (251) 
1

>  <s_m_source_file>  (251) 
/var/tmp/pbs.5076255.sched01/tmpbaygurib/766rrai79r.sdf

>  <i_m_source_file_index>  (251) 
35

>  <i_lp_mmshare_version>  (251) 
48012

>  <i_f3d_flags>  (251) 
0

>  <s_epik_input>  (251) 
Tz1jMW9jKFtDSDNdKVtjSF1jKGMxQzIzNClPW0NAQF01KFtDSDJdW0NAQEhdMltDSDNdKVtDQEBdNihbQ0gzXSlbQ0BdKFtDSDNdKShDKFtDSDNdKShbQ0gzXSlbQ0BASF00TzYpW0NASF0oW09IXSlbQ0BIXTNDKFtDSDNdKShbQ0gzXSlbQ0BASF01W09IXQ==

>  <s_epik_cmdline>  (251) 
J2VwaWtfcHl0aG9uJywgJy1waHQnLCAnMi4wJywgJy1waCcsICc3LjAnLCAnLXRuJywgJzgnLCAnLW1hJywgJzIwMCcsICctaW1hZScsICc8aW5maWxlLm1hZT4nLCAnLW9tYWUnLCAnPG91dGZpbGUubWFlPic=

>  <r_lp_tautomer_probability>  (251) 
1

>  <r_epik_Ionization_Penalty>  (251) 
1.77142e-07

>  <r_epik_Ionization_Penalty_Charging>  (251) 
0

>  <r_epik_Ionization_Penalty_Neutral>  (251) 
1.77142e-07

>  <r_epik_State_Penalty>  (251) 
-0

>  <r_epik_Charging_Adjusted_Penalty>  (251) 
0

>  <i_epik_Tot_Q>  (251) 
0

>  <i_epik_Tot_abs_Q>  (251) 
0

>  <s_lp_Force_Field>  (251) 
OPLS3e

>  <r_lp_Energy>  (251) 
445.258

>  <b_lp_Chiralities_Consistent>  (251) 
1

>  <s_lp_Variant>  (251) 
77:0-1

>  <s_i_glide_gridfile>  (251) 
pfpi4k_grid

>  <i_i_glide_lignum>  (251) 
35

>  <i_i_glide_rotatable_bonds>  (251) 
2

>  <r_i_docking_score>  (251) 
-2.70937

>  <r_i_glide_ligand_efficiency>  (251) 
-0.0873991

>  <r_i_glide_ligand_efficiency_sa>  (251) 
-0.274554

>  <r_i_glide_ligand_efficiency_ln>  (251) 
-0.611046

>  <r_i_glide_gscore>  (251) 
-2.70937

>  <r_i_glide_lipo>  (251) 
-0.672139

>  <r_i_glide_hbond>  (251) 
0

>  <r_i_glide_metal>  (251) 
-0

>  <r_i_glide_rewards>  (251) 
-0.473633

>  <r_i_glide_evdw>  (251) 
-29.9569

>  <r_i_glide_ecoul>  (251) 
-0.43836

>  <r_i_glide_erotb>  (251) 
0

>  <r_i_glide_esite>  (251) 
0

>  <r_i_glide_emodel>  (251) 
-35.3434

>  <r_i_glide_energy>  (251) 
-30.3953

>  <r_i_glide_einternal>  (251) 
0.689335

>  <r_i_glide_intrahb_reward>  (251) 
-0

>  <i_i_glide_confnum>  (251) 
2

>  <i_i_glide_posenum>  (251) 
5

>  <r_i_glide_eff_state_penalty>  (251) 
0

>  <ligand_id>  (251) 
77

>  <original_smiles>  (251) 
Cc1cc2c(c(=O)o1)C13C(C)CC4(O2)C(O)C(C)(C)C1C(O)C1(C)C(C)(C)C3OC41C

>  <smiles>  (251) 
[H]OC1([H])C23Oc4c([H])c(C([H])([H])[H])oc(=O)c4C4(C5([H])OC2(C([H])([H])[H])C(C([H])([H])[H])(C([H])(O[H])C4([H])C1(C([H])([H])[H])C([H])([H])[H])C5(C([H])([H])[H])C([H])([H])[H])C([H])(C([H])([H])[H])C3([H])[H]

$$$$
77:0:2
     RDKit          3D

 65 70  0  0  1  0  0  0  0  0999 V2000
    3.0333   -1.4487   -3.1674 C   0  0  0  0  0  0  0  0  0  0  0  0
    3.5137   -2.1512   -1.9120 C   0  0  0  0  0  0  0  0  0  0  0  0
    3.0569   -3.3281   -1.4625 C   0  0  0  0  0  0  0  0  0  0  0  0
    3.6030   -3.9016   -0.2618 C   0  0  0  0  0  0  0  0  0  0  0  0
    4.5755   -3.2329    0.4968 C   0  0  0  0  0  0  0  0  0  0  0  0
    5.0590   -1.8932   -0.0753 C   0  0  0  0  0  0  0  0  0  0  0  0
    5.9430   -1.2319    0.4709 O   0  0  0  0  0  0  0  0  0  0  0  0
    4.4905   -1.4504   -1.2469 O   0  0  0  0  0  0  0  0  0  0  0  0
    5.3441   -3.7187    1.9259 C   0  0  1  0  0  0  0  0  0  0  0  0
    6.2138   -4.4361    0.8024 C   0  0  1  0  0  0  0  0  0  0  0  0
    7.7311   -4.6649    1.0797 C   0  0  0  0  0  0  0  0  0  0  0  0
    5.3383   -5.6495    0.4450 C   0  0  0  0  0  0  0  0  0  0  0  0
    3.8574   -5.7030    1.2154 C   0  0  1  0  0  0  0  0  0  0  0  0
    3.1386   -5.1823    0.0991 O   0  0  0  0  0  0  0  0  0  0  0  0
    4.0461   -7.0854    1.8011 C   0  0  1  0  0  0  0  0  0  0  0  0
    4.2792   -8.1486    0.8853 O   0  0  0  0  0  0  0  0  0  0  0  0
    5.2705   -6.7962    2.7855 C   0  0  0  0  0  0  0  0  0  0  0  0
    4.8810   -7.7288    3.9953 C   0  0  0  0  0  0  0  0  0  0  0  0
    6.6346   -7.5268    2.4746 C   0  0  0  0  0  0  0  0  0  0  0  0
    5.5282   -5.1238    3.0314 C   0  0  2  0  0  0  0  0  0  0  0  0
    4.8511   -4.8833    4.3592 C   0  0  1  0  0  0  0  0  0  0  0  0
    5.6747   -4.2930    5.3499 O   0  0  0  0  0  0  0  0  0  0  0  0
    3.4684   -4.3882    3.9959 C   0  0  1  0  0  0  0  0  0  0  0  0
    2.5067   -4.8068    5.1490 C   0  0  0  0  0  0  0  0  0  0  0  0
    3.5784   -2.8337    3.8549 C   0  0  0  0  0  0  0  0  0  0  0  0
    2.2138   -2.1032    4.1080 C   0  0  0  0  0  0  0  0  0  0  0  0
    4.5877   -1.9317    4.6201 C   0  0  0  0  0  0  0  0  0  0  0  0
    3.9712   -2.8963    2.4002 C   0  0  2  0  0  0  0  0  0  0  0  0
    2.7700   -3.5915    2.0855 O   0  0  0  0  0  0  0  0  0  0  0  0
    2.9899   -4.9050    2.4864 C   0  0  1  0  0  0  0  0  0  0  0  0
    1.5369   -5.4567    2.4968 C   0  0  0  0  0  0  0  0  0  0  0  0
    2.2551   -2.0124   -3.6849 H   0  0  0  0  0  0  0  0  0  0  0  0
    3.8655   -1.2988   -3.8550 H   0  0  0  0  0  0  0  0  0  0  0  0
    2.6269   -0.4683   -2.9124 H   0  0  0  0  0  0  0  0  0  0  0  0
    2.2829   -3.8543   -2.0018 H   0  0  0  0  0  0  0  0  0  0  0  0
    6.4735   -3.9575   -0.1564 H   0  0  0  0  0  0  0  0  0  0  0  0
    8.0211   -5.1870    1.9854 H   0  0  0  0  0  0  0  0  0  0  0  0
    8.2486   -3.7053    1.1217 H   0  0  0  0  0  0  0  0  0  0  0  0
    8.1883   -5.2231    0.2590 H   0  0  0  0  0  0  0  0  0  0  0  0
    5.1964   -5.6479   -0.6376 H   0  0  0  0  0  0  0  0  0  0  0  0
    5.9218   -6.5480    0.3669 H   0  0  0  0  0  0  0  0  0  0  0  0
    3.1546   -7.3998    2.3356 H   0  0  0  0  0  0  0  0  0  0  0  0
    4.2483   -8.9709    1.3555 H   0  0  0  0  0  0  0  0  0  0  0  0
    5.5953   -7.6722    4.8214 H   0  0  0  0  0  0  0  0  0  0  0  0
    4.8393   -8.7822    3.7053 H   0  0  0  0  0  0  0  0  0  0  0  0
    3.8869   -7.5256    4.3999 H   0  0  0  0  0  0  0  0  0  0  0  0
    7.2924   -7.4940    3.3438 H   0  0  0  0  0  0  0  0  0  0  0  0
    7.2537   -7.1433    1.6762 H   0  0  0  0  0  0  0  0  0  0  0  0
    6.4948   -8.5819    2.2353 H   0  0  0  0  0  0  0  0  0  0  0  0
    6.5634   -5.0902    3.3508 H   0  0  0  0  0  0  0  0  0  0  0  0
    4.7057   -5.7245    4.9999 H   0  0  0  0  0  0  0  0  0  0  0  0
    5.8374   -3.3925    5.1127 H   0  0  0  0  0  0  0  0  0  0  0  0
    1.4848   -4.4575    5.0177 H   0  0  0  0  0  0  0  0  0  0  0  0
    2.8516   -4.4162    6.1070 H   0  0  0  0  0  0  0  0  0  0  0  0
    2.4471   -5.8913    5.2504 H   0  0  0  0  0  0  0  0  0  0  0  0
    2.2204   -1.0912    3.7011 H   0  0  0  0  0  0  0  0  0  0  0  0
    2.0176   -2.0072    5.1777 H   0  0  0  0  0  0  0  0  0  0  0  0
    1.3437   -2.6008    3.6794 H   0  0  0  0  0  0  0  0  0  0  0  0
    4.4062   -0.8774    4.4050 H   0  0  0  0  0  0  0  0  0  0  0  0
    5.6208   -2.0897    4.3135 H   0  0  0  0  0  0  0  0  0  0  0  0
    4.4962   -2.0401    5.7032 H   0  0  0  0  0  0  0  0  0  0  0  0
    3.9103   -1.8351    2.1310 H   0  0  0  0  0  0  0  0  0  0  0  0
    1.4296   -6.3690    3.0821 H   0  0  0  0  0  0  0  0  0  0  0  0
    1.1937   -5.6855    1.4880 H   0  0  0  0  0  0  0  0  0  0  0  0
    0.8316   -4.7312    2.8998 H   0  0  0  0  0  0  0  0  0  0  0  0
  1  2  1  0
  1 32  1  0
  1 33  1  0
  1 34  1  0
  2  8  1  0
  2  3  2  0
  3  4  1  0
  3 35  1  0
  4 14  1  0
  4  5  2  0
  5  6  1  0
  9  5  1  6
  6  7  2  0
  6  8  1  0
  9 20  1  0
  9 28  1  0
  9 10  1  0
 10 11  1  0
 10 12  1  0
 10 36  1  6
 11 37  1  0
 11 38  1  0
 11 39  1  0
 12 13  1  0
 12 40  1  0
 12 41  1  0
 13 30  1  0
 13 14  1  6
 13 15  1  0
 15 16  1  0
 15 17  1  0
 15 42  1  1
 16 43  1  0
 17 18  1  0
 17 19  1  0
 17 20  1  0
 18 44  1  0
 18 45  1  0
 18 46  1  0
 19 47  1  0
 19 48  1  0
 19 49  1  0
 20 21  1  0
 20 50  1  1
 21 22  1  0
 21 23  1  0
 21 51  1  1
 22 52  1  0
 23 30  1  0
 23 24  1  1
 23 25  1  0
 24 53  1  0
 24 54  1  0
 24 55  1  0
 25 26  1  0
 25 27  1  0
 25 28  1  0
 26 56  1  0
 26 57  1  0
 26 58  1  0
 27 59  1  0
 27 60  1  0
 27 61  1  0
 28 29  1  0
 28 62  1  6
 29 30  1  0
 30 31  1  1
 31 63  1  0
 31 64  1  0
 31 65  1  0
M  END
>  <i_m_ct_stereo_status>  (252) 
1

>  <s_m_source_file>  (252) 
/var/tmp/pbs.5076255.sched01/tmpbaygurib/766rrai79r.sdf

>  <i_m_source_file_index>  (252) 
35

>  <i_lp_mmshare_version>  (252) 
48012

>  <i_f3d_flags>  (252) 
0

>  <s_epik_input>  (252) 
Tz1jMW9jKFtDSDNdKVtjSF1jKGMxQzIzNClPW0NAQF01KFtDSDJdW0NAQEhdMltDSDNdKVtDQEBdNihbQ0gzXSlbQ0BdKFtDSDNdKShDKFtDSDNdKShbQ0gzXSlbQ0BASF00TzYpW0NASF0oW09IXSlbQ0BIXTNDKFtDSDNdKShbQ0gzXSlbQ0BASF01W09IXQ==

>  <s_epik_cmdline>  (252) 
J2VwaWtfcHl0aG9uJywgJy1waHQnLCAnMi4wJywgJy1waCcsICc3LjAnLCAnLXRuJywgJzgnLCAnLW1hJywgJzIwMCcsICctaW1hZScsICc8aW5maWxlLm1hZT4nLCAnLW9tYWUnLCAnPG91dGZpbGUubWFlPic=

>  <r_lp_tautomer_probability>  (252) 
1

>  <r_epik_Ionization_Penalty>  (252) 
1.77142e-07

>  <r_epik_Ionization_Penalty_Charging>  (252) 
0

>  <r_epik_Ionization_Penalty_Neutral>  (252) 
1.77142e-07

>  <r_epik_State_Penalty>  (252) 
-0

>  <r_epik_Charging_Adjusted_Penalty>  (252) 
0

>  <i_epik_Tot_Q>  (252) 
0

>  <i_epik_Tot_abs_Q>  (252) 
0

>  <s_lp_Force_Field>  (252) 
OPLS3e

>  <r_lp_Energy>  (252) 
445.258

>  <b_lp_Chiralities_Consistent>  (252) 
1

>  <s_lp_Variant>  (252) 
77:0-1

>  <s_i_glide_gridfile>  (252) 
pfpi4k_grid

>  <i_i_glide_lignum>  (252) 
35

>  <i_i_glide_rotatable_bonds>  (252) 
2

>  <r_i_docking_score>  (252) 
-2.67657

>  <r_i_glide_ligand_efficiency>  (252) 
-0.086341

>  <r_i_glide_ligand_efficiency_sa>  (252) 
-0.27123

>  <r_i_glide_ligand_efficiency_ln>  (252) 
-0.603649

>  <r_i_glide_gscore>  (252) 
-2.67657

>  <r_i_glide_lipo>  (252) 
-0.676125

>  <r_i_glide_hbond>  (252) 
0

>  <r_i_glide_metal>  (252) 
-0

>  <r_i_glide_rewards>  (252) 
-0.473633

>  <r_i_glide_evdw>  (252) 
-29.8937

>  <r_i_glide_ecoul>  (252) 
-0.214179

>  <r_i_glide_erotb>  (252) 
0

>  <r_i_glide_esite>  (252) 
0

>  <r_i_glide_emodel>  (252) 
-35.1466

>  <r_i_glide_energy>  (252) 
-30.1079

>  <r_i_glide_einternal>  (252) 
0.358333

>  <r_i_glide_intrahb_reward>  (252) 
-0

>  <i_i_glide_confnum>  (252) 
1

>  <i_i_glide_posenum>  (252) 
15

>  <r_i_glide_eff_state_penalty>  (252) 
0

>  <ligand_id>  (252) 
77

>  <original_smiles>  (252) 
Cc1cc2c(c(=O)o1)C13C(C)CC4(O2)C(O)C(C)(C)C1C(O)C1(C)C(C)(C)C3OC41C

>  <smiles>  (252) 
[H]OC1([H])C23Oc4c([H])c(C([H])([H])[H])oc(=O)c4C4(C5([H])OC2(C([H])([H])[H])C(C([H])([H])[H])(C([H])(O[H])C4([H])C1(C([H])([H])[H])C([H])([H])[H])C5(C([H])([H])[H])C([H])([H])[H])C([H])(C([H])([H])[H])C3([H])[H]

$$$$
78:0:0
     RDKit          3D

 64 68  0  0  1  0  0  0  0  0999 V2000
    0.9562    1.4350    2.9391 C   0  0  0  0  0  0  0  0  0  0  0  0
    2.2168    1.8777    2.1329 C   0  0  0  0  0  0  0  0  0  0  0  0
    3.0476    0.7142    1.4959 C   0  0  0  0  0  0  0  0  0  0  0  0
    3.7182   -0.5569    2.7186 S   0  0  0  0  0  0  0  0  0  0  0  0
    5.1926   -0.3780    2.7846 O   0  0  0  0  0  0  0  0  0  0  0  0
    2.9341   -0.5704    3.9205 O   0  0  0  0  0  0  0  0  0  0  0  0
    3.4720   -2.1043    1.9475 N   0  0  0  0  0  0  0  0  0  0  0  0
    2.2619   -2.3404    1.1373 C   0  0  0  0  0  0  0  0  0  0  0  0
    2.6356   -3.0042   -0.2234 C   0  0  2  0  0  0  0  0  0  0  0  0
    3.2035   -4.4079   -0.0157 C   0  0  0  0  0  0  0  0  0  0  0  0
    4.7228   -4.1938    0.0366 C   0  0  2  0  0  0  0  0  0  0  0  0
    5.2040   -3.7602    1.4606 C   0  0  1  0  0  0  0  0  0  0  0  0
    6.2617   -2.6942    1.4379 C   0  0  0  0  0  0  0  0  0  0  0  0
    6.7668   -2.1009    0.3564 C   0  0  0  0  0  0  0  0  0  0  0  0
    7.8301   -1.0449    0.4422 C   0  0  0  0  0  0  0  0  0  0  0  0
    6.3333   -2.4548   -1.0347 C   0  0  0  0  0  0  0  0  0  0  0  0
    4.9630   -3.1661   -1.0969 C   0  0  1  0  0  0  0  0  0  0  0  0
    4.8909   -3.7901   -2.4992 C   0  0  0  0  0  0  0  0  0  0  0  0
    4.2808   -2.7148   -3.3552 C   0  0  0  0  0  0  0  0  0  0  0  0
    3.2858   -2.0340   -2.4863 N   0  0  2  0  0  0  0  0  0  0  0  0
    3.0430   -0.6112   -2.8721 C   0  0  0  0  0  0  0  0  0  0  0  0
    2.7028   -0.3985   -4.3397 C   0  0  0  0  0  0  0  0  0  0  0  0
    3.8094   -0.1893   -5.3229 C   0  0  0  0  0  0  0  0  0  0  0  0
    2.9440    0.9701   -4.9586 C   0  0  0  0  0  0  0  0  0  0  0  0
    3.7131   -2.2455   -1.0559 C   0  0  1  0  0  0  0  0  0  0  0  0
    4.1124   -3.3337    2.4612 C   0  0  1  0  0  0  0  0  0  0  0  0
    4.5643   -3.2770    3.9439 C   0  0  0  0  0  0  0  0  0  0  0  0
    0.3872    2.3541    3.2160 H   0  0  0  0  0  0  0  0  0  0  0  0
    1.2041    0.8719    3.8156 H   0  0  0  0  0  0  0  0  0  0  0  0
    0.2874    0.8479    2.2745 H   0  0  0  0  0  0  0  0  0  0  0  0
    1.8797    2.5123    1.3058 H   0  0  0  0  0  0  0  0  0  0  0  0
    2.8720    2.5083    2.7375 H   0  0  0  0  0  0  0  0  0  0  0  0
    2.4500    0.2898    0.7154 H   0  0  0  0  0  0  0  0  0  0  0  0
    3.9380    1.1115    0.9926 H   0  0  0  0  0  0  0  0  0  0  0  0
    1.5945   -2.9879    1.7349 H   0  0  0  0  0  0  0  0  0  0  0  0
    1.7331   -1.4390    0.9572 H   0  0  0  0  0  0  0  0  0  0  0  0
    1.7238   -3.0892   -0.8191 H   0  0  0  0  0  0  0  0  0  0  0  0
    2.7661   -4.9635    0.8103 H   0  0  0  0  0  0  0  0  0  0  0  0
    2.9264   -5.0067   -0.8605 H   0  0  0  0  0  0  0  0  0  0  0  0
    5.2359   -5.1152   -0.2118 H   0  0  0  0  0  0  0  0  0  0  0  0
    5.7024   -4.6185    1.8999 H   0  0  0  0  0  0  0  0  0  0  0  0
    6.5735   -2.3636    2.4137 H   0  0  0  0  0  0  0  0  0  0  0  0
    8.7231   -1.3082   -0.1296 H   0  0  0  0  0  0  0  0  0  0  0  0
    8.1337   -0.8293    1.4612 H   0  0  0  0  0  0  0  0  0  0  0  0
    7.3896   -0.1296    0.0542 H   0  0  0  0  0  0  0  0  0  0  0  0
    6.3245   -1.5681   -1.6690 H   0  0  0  0  0  0  0  0  0  0  0  0
    7.1186   -3.1141   -1.4052 H   0  0  0  0  0  0  0  0  0  0  0  0
    5.8457   -4.1085   -2.9238 H   0  0  0  0  0  0  0  0  0  0  0  0
    4.2303   -4.6386   -2.5306 H   0  0  0  0  0  0  0  0  0  0  0  0
    5.0715   -2.0130   -3.6030 H   0  0  0  0  0  0  0  0  0  0  0  0
    3.8299   -3.0691   -4.2761 H   0  0  0  0  0  0  0  0  0  0  0  0
    2.2111   -0.2315   -2.3075 H   0  0  0  0  0  0  0  0  0  0  0  0
    3.9107   -0.0041   -2.6067 H   0  0  0  0  0  0  0  0  0  0  0  0
    1.8415   -0.9281   -4.7325 H   0  0  0  0  0  0  0  0  0  0  0  0
    4.7869   -0.2377   -4.8795 H   0  0  0  0  0  0  0  0  0  0  0  0
    3.6828   -0.6038   -6.3245 H   0  0  0  0  0  0  0  0  0  0  0  0
    2.2847    1.3169   -5.7520 H   0  0  0  0  0  0  0  0  0  0  0  0
    3.4394    1.7526   -4.3813 H   0  0  0  0  0  0  0  0  0  0  0  0
    3.9605   -1.2892   -0.5866 H   0  0  0  0  0  0  0  0  0  0  0  0
    3.3476   -4.1042    2.5480 H   0  0  0  0  0  0  0  0  0  0  0  0
    4.8172   -4.2832    4.2878 H   0  0  0  0  0  0  0  0  0  0  0  0
    3.7738   -2.9451    4.6144 H   0  0  0  0  0  0  0  0  0  0  0  0
    5.4315   -2.6506    4.1396 H   0  0  0  0  0  0  0  0  0  0  0  0
    2.4053   -2.5275   -2.5995 H   0  0  0  0  0  0  0  0  0  0  0  0
  1  2  1  0
  1 28  1  0
  1 29  1  0
  1 30  1  0
  2  3  1  0
  2 31  1  0
  2 32  1  0
  3  4  1  0
  3 33  1  0
  3 34  1  0
  4  5  2  0
  4  6  2  0
  4  7  1  0
  7 26  1  0
  7  8  1  0
  8  9  1  0
  8 35  1  0
  8 36  1  0
  9 25  1  0
  9 10  1  0
  9 37  1  6
 10 11  1  0
 10 38  1  0
 10 39  1  0
 11 17  1  0
 11 12  1  0
 11 40  1  6
 12 13  1  0
 12 26  1  0
 12 41  1  1
 13 14  2  0
 13 42  1  0
 14 15  1  0
 14 16  1  0
 15 43  1  0
 15 44  1  0
 15 45  1  0
 17 16  1  1
 16 46  1  0
 16 47  1  0
 17 25  1  0
 17 18  1  0
 18 19  1  0
 18 48  1  0
 18 49  1  0
 19 20  1  0
 19 50  1  0
 19 51  1  0
 20 21  1  0
 20 25  1  0
 20 64  1  1
 21 22  1  0
 21 52  1  0
 21 53  1  0
 22 24  1  0
 22 23  1  0
 22 54  1  0
 23 24  1  0
 23 55  1  0
 23 56  1  0
 24 57  1  0
 24 58  1  0
 25 59  1  1
 26 27  1  0
 26 60  1  1
 27 61  1  0
 27 62  1  0
 27 63  1  0
M  CHG  1  20   1
M  END
>  <i_m_ct_stereo_status>  (253) 
1

>  <s_m_source_file>  (253) 
/var/tmp/pbs.5076255.sched01/tmpbaygurib/766rrai79r.sdf

>  <i_m_source_file_index>  (253) 
36

>  <i_lp_mmshare_version>  (253) 
48012

>  <i_f3d_flags>  (253) 
0

>  <s_epik_input>  (253) 
W0NIM11DKFtDSDJdMSk9W0NIXVtDQEhdKFtDQEBIXTJbQ0BAXTEzNClbQ0BASF0oW0NIM10pTihTKD1PKSg9TylbQ0gyXVtDSDJdW0NIM10pW0NIMl1bQ0BIXShbQ0gyXTIpW0NAQEhdNE4oW0NIMl1bQ0gyXTMpW0NIMl1bQ0hdNVtDSDJdW0NIMl01

>  <s_epik_cmdline>  (253) 
J2VwaWtfcHl0aG9uJywgJy1waHQnLCAnMi4wJywgJy1waCcsICc3LjAnLCAnLXRuJywgJzgnLCAnLW1hJywgJzIwMCcsICctaW1hZScsICc8aW5maWxlLm1hZT4nLCAnLW9tYWUnLCAnPG91dGZpbGUubWFlPic=

>  <r_epik_Ionization_Penalty>  (253) 
0.000358997

>  <r_epik_Ionization_Penalty_Charging>  (253) 
0.000358995

>  <r_epik_Ionization_Penalty_Neutral>  (253) 
1.55482e-09

>  <r_epik_State_Penalty>  (253) 
0.00021843

>  <r_epik_Charging_Adjusted_Penalty>  (253) 
0.000577425

>  <i_epik_Tot_Q>  (253) 
1

>  <i_epik_Tot_abs_Q>  (253) 
1

>  <s_lp_Force_Field>  (253) 
OPLS3e

>  <r_lp_Energy>  (253) 
46.5973

>  <b_lp_Chiralities_Consistent>  (253) 
1

>  <s_lp_Variant>  (253) 
78:0-1

>  <s_i_glide_gridfile>  (253) 
pfpi4k_grid

>  <i_i_glide_lignum>  (253) 
36

>  <i_i_glide_rotatable_bonds>  (253) 
5

>  <r_i_docking_score>  (253) 
-2.83009

>  <r_i_glide_ligand_efficiency>  (253) 
-0.104818

>  <r_i_glide_ligand_efficiency_sa>  (253) 
-0.314454

>  <r_i_glide_ligand_efficiency_ln>  (253) 
-0.658798

>  <r_i_glide_gscore>  (253) 
-2.83009

>  <r_i_glide_lipo>  (253) 
-0.853265

>  <r_i_glide_hbond>  (253) 
0

>  <r_i_glide_metal>  (253) 
-0

>  <r_i_glide_rewards>  (253) 
-0.750906

>  <r_i_glide_evdw>  (253) 
-17.3977

>  <r_i_glide_ecoul>  (253) 
-5.39257

>  <r_i_glide_erotb>  (253) 
0.504407

>  <r_i_glide_esite>  (253) 
-0.0515539

>  <r_i_glide_emodel>  (253) 
-19.9482

>  <r_i_glide_energy>  (253) 
-22.7903

>  <r_i_glide_einternal>  (253) 
9.46781

>  <r_i_glide_intrahb_reward>  (253) 
-0

>  <i_i_glide_confnum>  (253) 
5

>  <i_i_glide_posenum>  (253) 
34

>  <r_i_glide_eff_state_penalty>  (253) 
0

>  <ligand_id>  (253) 
78

>  <original_smiles>  (253) 
CCCS(=O)(=O)N1CC2CC3C(C=C(C)CC34CCN(CC3CC3)C24)C1C

>  <smiles>  (253) 
[H]C1=C(C([H])([H])[H])C([H])([H])C23C([H])([H])C([H])([H])[N+]([H])(C([H])([H])C4([H])C([H])([H])C4([H])[H])C2([H])C2([H])C([H])([H])N(S(=O)(=O)C([H])([H])C([H])([H])C([H])([H])[H])C([H])(C([H])([H])[H])C1([H])C3([H])C2([H])[H]

$$$$
78:0:1
     RDKit          3D

 64 68  0  0  1  0  0  0  0  0999 V2000
    5.4527    0.7500    4.8278 C   0  0  0  0  0  0  0  0  0  0  0  0
    3.9349    0.5183    4.6879 C   0  0  0  0  0  0  0  0  0  0  0  0
    3.5524   -0.7849    3.9619 C   0  0  0  0  0  0  0  0  0  0  0  0
    4.4104   -0.9796    2.3228 S   0  0  0  0  0  0  0  0  0  0  0  0
    4.0586    0.1486    1.4556 O   0  0  0  0  0  0  0  0  0  0  0  0
    5.8522   -1.2662    2.5664 O   0  0  0  0  0  0  0  0  0  0  0  0
    3.7082   -2.3855    1.6209 N   0  0  0  0  0  0  0  0  0  0  0  0
    2.5137   -2.2025    0.7812 C   0  0  0  0  0  0  0  0  0  0  0  0
    2.6449   -2.8085   -0.6440 C   0  0  2  0  0  0  0  0  0  0  0  0
    2.8074   -4.3112   -0.6525 C   0  0  0  0  0  0  0  0  0  0  0  0
    4.3294   -4.4806   -0.7408 C   0  0  2  0  0  0  0  0  0  0  0  0
    5.0340   -4.2985    0.6734 C   0  0  1  0  0  0  0  0  0  0  0  0
    6.3462   -3.5398    0.6203 C   0  0  0  0  0  0  0  0  0  0  0  0
    6.8741   -2.9758   -0.4616 C   0  0  0  0  0  0  0  0  0  0  0  0
    8.1726   -2.2024   -0.3748 C   0  0  0  0  0  0  0  0  0  0  0  0
    6.2212   -3.0694   -1.8258 C   0  0  0  0  0  0  0  0  0  0  0  0
    4.7177   -3.4363   -1.8258 C   0  0  1  0  0  0  0  0  0  0  0  0
    4.3920   -3.8417   -3.3184 C   0  0  0  0  0  0  0  0  0  0  0  0
    4.0011   -2.5511   -3.9594 C   0  0  0  0  0  0  0  0  0  0  0  0
    3.2413   -1.8292   -2.9053 N   0  0  2  0  0  0  0  0  0  0  0  0
    3.2337   -0.3723   -3.1352 C   0  0  0  0  0  0  0  0  0  0  0  0
    2.7176    0.0405   -4.4933 C   0  0  0  0  0  0  0  0  0  0  0  0
    3.7287    0.3880   -5.5391 C   0  0  0  0  0  0  0  0  0  0  0  0
    2.9105    1.4693   -4.9552 C   0  0  0  0  0  0  0  0  0  0  0  0
    3.7664   -2.2428   -1.5549 C   0  0  1  0  0  0  0  0  0  0  0  0
    4.1568   -3.7822    1.8552 C   0  0  1  0  0  0  0  0  0  0  0  0
    4.7788   -4.0127    3.2475 C   0  0  0  0  0  0  0  0  0  0  0  0
    5.6619    1.6650    5.3881 H   0  0  0  0  0  0  0  0  0  0  0  0
    5.9289    0.8670    3.8538 H   0  0  0  0  0  0  0  0  0  0  0  0
    5.9318   -0.0861    5.3424 H   0  0  0  0  0  0  0  0  0  0  0  0
    3.4920    0.4955    5.6845 H   0  0  0  0  0  0  0  0  0  0  0  0
    3.4879    1.3720    4.1732 H   0  0  0  0  0  0  0  0  0  0  0  0
    3.8011   -1.6241    4.6077 H   0  0  0  0  0  0  0  0  0  0  0  0
    2.4748   -0.8180    3.7808 H   0  0  0  0  0  0  0  0  0  0  0  0
    1.6765   -2.6402    1.3155 H   0  0  0  0  0  0  0  0  0  0  0  0
    2.2729   -1.1421    0.6797 H   0  0  0  0  0  0  0  0  0  0  0  0
    1.7173   -2.6797   -1.1760 H   0  0  0  0  0  0  0  0  0  0  0  0
    2.3272   -4.8367    0.1751 H   0  0  0  0  0  0  0  0  0  0  0  0
    2.2736   -4.6133   -1.5439 H   0  0  0  0  0  0  0  0  0  0  0  0
    4.6077   -5.4677   -1.1013 H   0  0  0  0  0  0  0  0  0  0  0  0
    5.3567   -5.2950    0.9667 H   0  0  0  0  0  0  0  0  0  0  0  0
    6.8856   -3.4382    1.5488 H   0  0  0  0  0  0  0  0  0  0  0  0
    8.8683   -2.5043   -1.1686 H   0  0  0  0  0  0  0  0  0  0  0  0
    8.6469   -2.3023    0.6009 H   0  0  0  0  0  0  0  0  0  0  0  0
    7.9132   -1.1509   -0.3922 H   0  0  0  0  0  0  0  0  0  0  0  0
    6.3554   -2.1345   -2.3714 H   0  0  0  0  0  0  0  0  0  0  0  0
    6.7724   -3.8409   -2.3541 H   0  0  0  0  0  0  0  0  0  0  0  0
    5.2408   -4.3233   -3.8291 H   0  0  0  0  0  0  0  0  0  0  0  0
    3.4428   -4.3406   -3.5409 H   0  0  0  0  0  0  0  0  0  0  0  0
    4.8558   -1.9599   -4.2844 H   0  0  0  0  0  0  0  0  0  0  0  0
    3.3270   -2.7583   -4.7908 H   0  0  0  0  0  0  0  0  0  0  0  0
    2.4879   -0.0341   -2.4387 H   0  0  0  0  0  0  0  0  0  0  0  0
    4.2471    0.0282   -2.9673 H   0  0  0  0  0  0  0  0  0  0  0  0
    1.7896   -0.4392   -4.8193 H   0  0  0  0  0  0  0  0  0  0  0  0
    4.7503    0.4141   -5.1785 H   0  0  0  0  0  0  0  0  0  0  0  0
    3.5230    0.0782   -6.5686 H   0  0  0  0  0  0  0  0  0  0  0  0
    2.1314    1.8787   -5.5832 H   0  0  0  0  0  0  0  0  0  0  0  0
    3.4819    2.1603   -4.3241 H   0  0  0  0  0  0  0  0  0  0  0  0
    4.2672   -1.4166   -1.0493 H   0  0  0  0  0  0  0  0  0  0  0  0
    3.2640   -4.3867    1.9426 H   0  0  0  0  0  0  0  0  0  0  0  0
    4.8469   -5.0853    3.4365 H   0  0  0  0  0  0  0  0  0  0  0  0
    4.1348   -3.6114    4.0261 H   0  0  0  0  0  0  0  0  0  0  0  0
    5.7764   -3.5917    3.3644 H   0  0  0  0  0  0  0  0  0  0  0  0
    2.2577   -2.1306   -2.9418 H   0  0  0  0  0  0  0  0  0  0  0  0
  1  2  1  0
  1 28  1  0
  1 29  1  0
  1 30  1  0
  2  3  1  0
  2 31  1  0
  2 32  1  0
  3  4  1  0
  3 33  1  0
  3 34  1  0
  4  5  2  0
  4  6  2  0
  4  7  1  0
  7 26  1  0
  7  8  1  0
  8  9  1  0
  8 35  1  0
  8 36  1  0
  9 25  1  0
  9 10  1  0
  9 37  1  6
 10 11  1  0
 10 38  1  0
 10 39  1  0
 11 17  1  0
 11 12  1  0
 11 40  1  6
 12 13  1  0
 12 26  1  0
 12 41  1  1
 13 14  2  0
 13 42  1  0
 14 15  1  0
 14 16  1  0
 15 43  1  0
 15 44  1  0
 15 45  1  0
 17 16  1  6
 16 46  1  0
 16 47  1  0
 17 25  1  0
 17 18  1  0
 18 19  1  0
 18 48  1  0
 18 49  1  0
 19 20  1  0
 19 50  1  0
 19 51  1  0
 20 21  1  0
 20 25  1  0
 20 64  1  1
 21 22  1  0
 21 52  1  0
 21 53  1  0
 22 24  1  0
 22 23  1  0
 22 54  1  0
 23 24  1  0
 23 55  1  0
 23 56  1  0
 24 57  1  0
 24 58  1  0
 25 59  1  1
 26 27  1  0
 26 60  1  1
 27 61  1  0
 27 62  1  0
 27 63  1  0
M  CHG  1  20   1
M  END
>  <i_m_ct_stereo_status>  (254) 
1

>  <s_m_source_file>  (254) 
/var/tmp/pbs.5076255.sched01/tmpbaygurib/766rrai79r.sdf

>  <i_m_source_file_index>  (254) 
36

>  <i_lp_mmshare_version>  (254) 
48012

>  <i_f3d_flags>  (254) 
0

>  <s_epik_input>  (254) 
W0NIM11DKFtDSDJdMSk9W0NIXVtDQEhdKFtDQEBIXTJbQ0BAXTEzNClbQ0BASF0oW0NIM10pTihTKD1PKSg9TylbQ0gyXVtDSDJdW0NIM10pW0NIMl1bQ0BIXShbQ0gyXTIpW0NAQEhdNE4oW0NIMl1bQ0gyXTMpW0NIMl1bQ0hdNVtDSDJdW0NIMl01

>  <s_epik_cmdline>  (254) 
J2VwaWtfcHl0aG9uJywgJy1waHQnLCAnMi4wJywgJy1waCcsICc3LjAnLCAnLXRuJywgJzgnLCAnLW1hJywgJzIwMCcsICctaW1hZScsICc8aW5maWxlLm1hZT4nLCAnLW9tYWUnLCAnPG91dGZpbGUubWFlPic=

>  <r_epik_Ionization_Penalty>  (254) 
0.000358997

>  <r_epik_Ionization_Penalty_Charging>  (254) 
0.000358995

>  <r_epik_Ionization_Penalty_Neutral>  (254) 
1.55482e-09

>  <r_epik_State_Penalty>  (254) 
0.00021843

>  <r_epik_Charging_Adjusted_Penalty>  (254) 
0.000577425

>  <i_epik_Tot_Q>  (254) 
1

>  <i_epik_Tot_abs_Q>  (254) 
1

>  <s_lp_Force_Field>  (254) 
OPLS3e

>  <r_lp_Energy>  (254) 
46.5973

>  <b_lp_Chiralities_Consistent>  (254) 
1

>  <s_lp_Variant>  (254) 
78:0-1

>  <s_i_glide_gridfile>  (254) 
pfpi4k_grid

>  <i_i_glide_lignum>  (254) 
36

>  <i_i_glide_rotatable_bonds>  (254) 
5

>  <r_i_docking_score>  (254) 
-2.10013

>  <r_i_glide_ligand_efficiency>  (254) 
-0.0777827

>  <r_i_glide_ligand_efficiency_sa>  (254) 
-0.233348

>  <r_i_glide_ligand_efficiency_ln>  (254) 
-0.488876

>  <r_i_glide_gscore>  (254) 
-2.10013

>  <r_i_glide_lipo>  (254) 
-0.661302

>  <r_i_glide_hbond>  (254) 
0

>  <r_i_glide_metal>  (254) 
-0

>  <r_i_glide_rewards>  (254) 
-0.857568

>  <r_i_glide_evdw>  (254) 
-13.5018

>  <r_i_glide_ecoul>  (254) 
-2.60719

>  <r_i_glide_erotb>  (254) 
0.504407

>  <r_i_glide_esite>  (254) 
-0.0195011

>  <r_i_glide_emodel>  (254) 
-16.8646

>  <r_i_glide_energy>  (254) 
-16.109

>  <r_i_glide_einternal>  (254) 
0.525086

>  <r_i_glide_intrahb_reward>  (254) 
-0

>  <i_i_glide_confnum>  (254) 
5

>  <i_i_glide_posenum>  (254) 
32

>  <r_i_glide_eff_state_penalty>  (254) 
0

>  <ligand_id>  (254) 
78

>  <original_smiles>  (254) 
CCCS(=O)(=O)N1CC2CC3C(C=C(C)CC34CCN(CC3CC3)C24)C1C

>  <smiles>  (254) 
[H]C1=C(C([H])([H])[H])C([H])([H])C23C([H])([H])C([H])([H])[N+]([H])(C([H])([H])C4([H])C([H])([H])C4([H])[H])C2([H])C2([H])C([H])([H])N(S(=O)(=O)C([H])([H])C([H])([H])C([H])([H])[H])C([H])(C([H])([H])[H])C1([H])C3([H])C2([H])[H]

$$$$
81:0:0
     RDKit          3D

 68 71  0  0  1  0  0  0  0  0999 V2000
    1.5191   -5.8537    6.9588 C   0  0  0  0  0  0  0  0  0  0  0  0
    2.1409   -5.5348    5.5751 C   0  0  2  0  0  0  0  0  0  0  0  0
    3.1531   -6.6914    5.2702 C   0  0  0  0  0  0  0  0  0  0  0  0
    3.7094   -6.8921    3.8273 C   0  0  0  0  0  0  0  0  0  0  0  0
    4.3758   -5.6413    3.1683 C   0  0  2  0  0  0  0  0  0  0  0  0
    5.5188   -5.3149    4.1874 C   0  0  0  0  0  0  0  0  0  0  0  0
    3.1644   -4.6967    3.0676 C   0  0  0  0  0  0  0  0  0  0  0  0
    2.2489   -4.8955    2.1076 C   0  0  0  0  0  0  0  0  0  0  0  0
    2.5524   -5.7566    0.9188 C   0  0  0  0  0  0  0  0  0  0  0  0
    3.9934   -5.3881    0.5294 C   0  0  1  0  0  0  0  0  0  0  0  0
    4.1440   -3.8753    0.0223 C   0  0  0  0  0  0  0  0  0  0  0  0
    5.0207   -3.9105   -1.2763 C   0  0  0  0  0  0  0  0  0  0  0  0
    2.8364   -3.2877   -0.5711 C   0  0  0  0  0  0  0  0  0  0  0  0
    4.8765   -2.8990    1.0557 C   0  0  2  0  0  0  0  0  0  0  0  0
    6.2333   -3.5243    1.4666 C   0  0  0  0  0  0  0  0  0  0  0  0
    6.3164   -5.0753    1.4547 C   0  0  0  0  0  0  0  0  0  0  0  0
    4.9779   -5.8410    1.6882 C   0  0  1  0  0  0  0  0  0  0  0  0
    5.3303   -7.3346    1.4641 C   0  0  0  0  0  0  0  0  0  0  0  0
    4.2196   -1.9287    2.1938 C   0  0  0  0  0  0  0  0  0  0  0  0
    5.1989   -0.7058    2.2661 C   0  0  0  0  0  0  0  0  0  0  0  0
    2.8875   -1.2736    1.7524 C   0  0  0  0  0  0  0  0  0  0  0  0
    4.0624   -2.4648    3.6998 C   0  0  1  0  0  0  0  0  0  0  0  0
    3.7990   -1.3708    4.5580 O   0  0  0  0  0  0  0  0  0  0  0  0
    2.9722   -3.5542    4.0162 C   0  0  2  0  0  0  0  0  0  0  0  0
    2.7080   -4.0547    5.4847 C   0  0  1  0  0  0  0  0  0  0  0  0
    1.7523   -3.0705    6.2059 C   0  0  0  0  0  0  0  0  0  0  0  0
    2.2424   -5.6985    7.7600 H   0  0  0  0  0  0  0  0  0  0  0  0
    1.1831   -6.8884    7.0195 H   0  0  0  0  0  0  0  0  0  0  0  0
    0.6407   -5.2469    7.1702 H   0  0  0  0  0  0  0  0  0  0  0  0
    1.3189   -5.6228    4.8625 H   0  0  0  0  0  0  0  0  0  0  0  0
    3.9688   -6.6531    5.9928 H   0  0  0  0  0  0  0  0  0  0  0  0
    2.6511   -7.6325    5.4984 H   0  0  0  0  0  0  0  0  0  0  0  0
    4.4239   -7.7132    3.8864 H   0  0  0  0  0  0  0  0  0  0  0  0
    2.8964   -7.2795    3.2174 H   0  0  0  0  0  0  0  0  0  0  0  0
    6.1815   -6.1766    4.2872 H   0  0  0  0  0  0  0  0  0  0  0  0
    5.1840   -5.0841    5.1899 H   0  0  0  0  0  0  0  0  0  0  0  0
    6.1696   -4.4963    3.9282 H   0  0  0  0  0  0  0  0  0  0  0  0
    1.3792   -4.2703    2.0639 H   0  0  0  0  0  0  0  0  0  0  0  0
    2.4605   -6.8146    1.1512 H   0  0  0  0  0  0  0  0  0  0  0  0
    1.8488   -5.5711    0.1105 H   0  0  0  0  0  0  0  0  0  0  0  0
    4.2098   -6.0173   -0.3343 H   0  0  0  0  0  0  0  0  0  0  0  0
    5.0741   -2.9320   -1.7576 H   0  0  0  0  0  0  0  0  0  0  0  0
    4.6135   -4.5933   -2.0236 H   0  0  0  0  0  0  0  0  0  0  0  0
    6.0456   -4.2271   -1.1183 H   0  0  0  0  0  0  0  0  0  0  0  0
    2.9898   -2.2840   -0.9686 H   0  0  0  0  0  0  0  0  0  0  0  0
    2.0204   -3.2239    0.1378 H   0  0  0  0  0  0  0  0  0  0  0  0
    2.4640   -3.8909   -1.4004 H   0  0  0  0  0  0  0  0  0  0  0  0
    5.1823   -2.1319    0.3445 H   0  0  0  0  0  0  0  0  0  0  0  0
    7.0098   -3.1571    0.7971 H   0  0  0  0  0  0  0  0  0  0  0  0
    6.5348   -3.1321    2.4270 H   0  0  0  0  0  0  0  0  0  0  0  0
    6.7098   -5.3905    0.4897 H   0  0  0  0  0  0  0  0  0  0  0  0
    7.0972   -5.4105    2.1389 H   0  0  0  0  0  0  0  0  0  0  0  0
    5.7926   -7.4904    0.4939 H   0  0  0  0  0  0  0  0  0  0  0  0
    4.4553   -7.9833    1.4911 H   0  0  0  0  0  0  0  0  0  0  0  0
    6.0371   -7.6950    2.2104 H   0  0  0  0  0  0  0  0  0  0  0  0
    4.8171    0.1095    2.8808 H   0  0  0  0  0  0  0  0  0  0  0  0
    5.3725   -0.2477    1.2928 H   0  0  0  0  0  0  0  0  0  0  0  0
    6.1716   -0.9664    2.6803 H   0  0  0  0  0  0  0  0  0  0  0  0
    2.6158   -0.4374    2.3959 H   0  0  0  0  0  0  0  0  0  0  0  0
    2.0434   -1.9541    1.7958 H   0  0  0  0  0  0  0  0  0  0  0  0
    2.9493   -0.8566    0.7490 H   0  0  0  0  0  0  0  0  0  0  0  0
    5.0303   -2.7956    4.0480 H   0  0  0  0  0  0  0  0  0  0  0  0
    3.0013   -0.9580    4.2747 H   0  0  0  0  0  0  0  0  0  0  0  0
    2.0258   -3.0967    3.7318 H   0  0  0  0  0  0  0  0  0  0  0  0
    3.6360   -4.0097    6.0489 H   0  0  0  0  0  0  0  0  0  0  0  0
    0.7371   -3.1461    5.8143 H   0  0  0  0  0  0  0  0  0  0  0  0
    2.0578   -2.0333    6.1122 H   0  0  0  0  0  0  0  0  0  0  0  0
    1.7148   -3.2589    7.2782 H   0  0  0  0  0  0  0  0  0  0  0  0
  1  2  1  0
  1 27  1  0
  1 28  1  0
  1 29  1  0
  2 25  1  0
  2  3  1  0
  2 30  1  6
  3  4  1  0
  3 31  1  0
  3 32  1  0
  4  5  1  0
  4 33  1  0
  4 34  1  0
  5 17  1  0
  5  6  1  1
  5  7  1  0
  6 35  1  0
  6 36  1  0
  6 37  1  0
  7 24  1  0
  7  8  2  0
  8  9  1  0
  8 38  1  0
  9 10  1  0
  9 39  1  0
  9 40  1  0
 10 17  1  0
 10 11  1  0
 10 41  1  6
 11 12  1  0
 11 13  1  0
 11 14  1  0
 12 42  1  0
 12 43  1  0
 12 44  1  0
 13 45  1  0
 13 46  1  0
 13 47  1  0
 14 15  1  0
 14 19  1  0
 14 48  1  6
 15 16  1  0
 15 49  1  0
 15 50  1  0
 16 17  1  0
 16 51  1  0
 16 52  1  0
 17 18  1  6
 18 53  1  0
 18 54  1  0
 18 55  1  0
 19 20  1  0
 19 21  1  0
 19 22  1  0
 20 56  1  0
 20 57  1  0
 20 58  1  0
 21 59  1  0
 21 60  1  0
 21 61  1  0
 22 23  1  0
 22 24  1  0
 22 62  1  1
 23 63  1  0
 24 25  1  0
 24 64  1  6
 25 26  1  0
 25 65  1  1
 26 66  1  0
 26 67  1  0
 26 68  1  0
M  END
>  <i_m_ct_stereo_status>  (255) 
1

>  <s_m_source_file>  (255) 
/var/tmp/pbs.5076255.sched01/tmp4tnmxshi/11480k6dy83.sdf

>  <i_m_source_file_index>  (255) 
1

>  <i_lp_mmshare_version>  (255) 
48012

>  <i_f3d_flags>  (255) 
0

>  <s_epik_input>  (255) 
W0NIMl0xW0NIMl1bQ0BASF0oW0NIM10pW0NASF0oW0NIM10pW0NASF0oQz0yW0NAQF0xM1tDSDNdKVtDQEhdKFtPSF0pQyhbQ0gzXSkoW0NIM10pW0NAQEhdNEMoW0NIM10pKFtDSDNdKVtDSF0oW0NIMl1bQ0hdMilbQ0BAXTMoW0NIM10pW0NIMl1bQ0gyXTQ=

>  <s_epik_cmdline>  (255) 
J2VwaWtfcHl0aG9uJywgJy1waHQnLCAnMi4wJywgJy1waCcsICc3LjAnLCAnLXRuJywgJzgnLCAnLW1hJywgJzIwMCcsICctaW1hZScsICc8aW5maWxlLm1hZT4nLCAnLW9tYWUnLCAnPG91dGZpbGUubWFlPic=

>  <r_lp_tautomer_probability>  (255) 
1

>  <r_epik_Ionization_Penalty>  (255) 
1.97943e-06

>  <r_epik_Ionization_Penalty_Charging>  (255) 
0

>  <r_epik_Ionization_Penalty_Neutral>  (255) 
1.97943e-06

>  <r_epik_State_Penalty>  (255) 
-0

>  <r_epik_Charging_Adjusted_Penalty>  (255) 
0

>  <i_epik_Tot_Q>  (255) 
0

>  <i_epik_Tot_abs_Q>  (255) 
0

>  <s_lp_Force_Field>  (255) 
OPLS3e

>  <r_lp_Energy>  (255) 
135.482

>  <b_lp_Chiralities_Consistent>  (255) 
1

>  <s_lp_Variant>  (255) 
81:0-1

>  <s_i_glide_gridfile>  (255) 
pfpi4k_grid

>  <i_i_glide_lignum>  (255) 
1

>  <i_i_glide_rotatable_bonds>  (255) 
1

>  <r_i_docking_score>  (255) 
-2.60905

>  <r_i_glide_ligand_efficiency>  (255) 
-0.100348

>  <r_i_glide_ligand_efficiency_sa>  (255) 
-0.297281

>  <r_i_glide_ligand_efficiency_ln>  (255) 
-0.612727

>  <r_i_glide_gscore>  (255) 
-2.60905

>  <r_i_glide_lipo>  (255) 
-0.488742

>  <r_i_glide_hbond>  (255) 
0

>  <r_i_glide_metal>  (255) 
-0

>  <r_i_glide_rewards>  (255) 
-0.964088

>  <r_i_glide_evdw>  (255) 
-20.3118

>  <r_i_glide_ecoul>  (255) 
-0.937517

>  <r_i_glide_erotb>  (255) 
0

>  <r_i_glide_esite>  (255) 
0

>  <r_i_glide_emodel>  (255) 
-24.3368

>  <r_i_glide_energy>  (255) 
-21.2494

>  <r_i_glide_einternal>  (255) 
0.031078

>  <r_i_glide_intrahb_reward>  (255) 
-0

>  <i_i_glide_confnum>  (255) 
1

>  <i_i_glide_posenum>  (255) 
23

>  <r_i_glide_eff_state_penalty>  (255) 
0

>  <ligand_id>  (255) 
81

>  <original_smiles>  (255) 
CC1CCC2(C)C3=CCC4C(C)(C)C(CCC42C)C(C)(C)C(O)C3C1C

>  <smiles>  (255) 
[H]OC1([H])C2([H])C3=C([H])C([H])([H])C4([H])C(C([H])([H])[H])(C([H])([H])[H])C([H])(C([H])([H])C([H])([H])C4(C([H])([H])[H])C3(C([H])([H])[H])C([H])([H])C([H])([H])C([H])(C([H])([H])[H])C2([H])C([H])([H])[H])C1(C([H])([H])[H])C([H])([H])[H]

$$$$
81:0:1
     RDKit          3D

 68 71  0  0  1  0  0  0  0  0999 V2000
    0.4953   -4.8987    5.8757 C   0  0  0  0  0  0  0  0  0  0  0  0
    1.3966   -4.6459    4.6391 C   0  0  2  0  0  0  0  0  0  0  0  0
    2.2360   -5.9542    4.4353 C   0  0  0  0  0  0  0  0  0  0  0  0
    2.9972   -6.1995    3.0985 C   0  0  0  0  0  0  0  0  0  0  0  0
    3.9805   -5.0716    2.6462 C   0  0  2  0  0  0  0  0  0  0  0  0
    4.9660   -4.9979    3.8587 C   0  0  0  0  0  0  0  0  0  0  0  0
    2.9986   -3.9182    2.4241 C   0  0  0  0  0  0  0  0  0  0  0  0
    2.2926   -3.8733    1.2959 C   0  0  0  0  0  0  0  0  0  0  0  0
    2.6034   -4.7475    0.1277 C   0  0  0  0  0  0  0  0  0  0  0  0
    4.1183   -4.6480   -0.0017 C   0  0  1  0  0  0  0  0  0  0  0  0
    4.6077   -3.1758   -0.3797 C   0  0  0  0  0  0  0  0  0  0  0  0
    5.6653   -3.3220   -1.5253 C   0  0  0  0  0  0  0  0  0  0  0  0
    3.5496   -2.3382   -1.1466 C   0  0  0  0  0  0  0  0  0  0  0  0
    5.2889   -2.3855    0.8180 C   0  0  2  0  0  0  0  0  0  0  0  0
    6.4325   -3.2615    1.3677 C   0  0  0  0  0  0  0  0  0  0  0  0
    6.2477   -4.8019    1.3079 C   0  0  0  0  0  0  0  0  0  0  0  0
    4.7832   -5.3172    1.2715 C   0  0  1  0  0  0  0  0  0  0  0  0
    4.8851   -6.8376    1.0099 C   0  0  0  0  0  0  0  0  0  0  0  0
    4.6129   -1.3735    1.9109 C   0  0  0  0  0  0  0  0  0  0  0  0
    5.7439   -0.3665    2.2344 C   0  0  0  0  0  0  0  0  0  0  0  0
    3.5232   -0.4574    1.3035 C   0  0  0  0  0  0  0  0  0  0  0  0
    4.1193   -1.9187    3.3348 C   0  0  1  0  0  0  0  0  0  0  0  0
    3.8938   -0.8271    4.2063 O   0  0  0  0  0  0  0  0  0  0  0  0
    2.8278   -2.7991    3.3973 C   0  0  2  0  0  0  0  0  0  0  0  0
    2.2218   -3.2958    4.7581 C   0  0  1  0  0  0  0  0  0  0  0  0
    1.3353   -2.1821    5.3687 C   0  0  0  0  0  0  0  0  0  0  0  0
    1.0852   -4.9080    6.7923 H   0  0  0  0  0  0  0  0  0  0  0  0
   -0.0178   -5.8570    5.8087 H   0  0  0  0  0  0  0  0  0  0  0  0
   -0.2866   -4.1503    5.9795 H   0  0  0  0  0  0  0  0  0  0  0  0
    0.7129   -4.5526    3.7941 H   0  0  0  0  0  0  0  0  0  0  0  0
    2.9033   -6.0896    5.2863 H   0  0  0  0  0  0  0  0  0  0  0  0
    1.5449   -6.7963    4.5099 H   0  0  0  0  0  0  0  0  0  0  0  0
    3.5309   -7.1416    3.2192 H   0  0  0  0  0  0  0  0  0  0  0  0
    2.2492   -6.4031    2.3351 H   0  0  0  0  0  0  0  0  0  0  0  0
    5.4404   -5.9674    4.0077 H   0  0  0  0  0  0  0  0  0  0  0  0
    4.5037   -4.7443    4.8025 H   0  0  0  0  0  0  0  0  0  0  0  0
    5.7813   -4.2967    3.7616 H   0  0  0  0  0  0  0  0  0  0  0  0
    1.6483   -3.0315    1.1244 H   0  0  0  0  0  0  0  0  0  0  0  0
    2.2842   -5.7791    0.2751 H   0  0  0  0  0  0  0  0  0  0  0  0
    2.0807   -4.4064   -0.7648 H   0  0  0  0  0  0  0  0  0  0  0  0
    4.3677   -5.2794   -0.8560 H   0  0  0  0  0  0  0  0  0  0  0  0
    5.9780   -2.3518   -1.9147 H   0  0  0  0  0  0  0  0  0  0  0  0
    5.2613   -3.8801   -2.3746 H   0  0  0  0  0  0  0  0  0  0  0  0
    6.5746   -3.8354   -1.2282 H   0  0  0  0  0  0  0  0  0  0  0  0
    3.9384   -1.3627   -1.4390 H   0  0  0  0  0  0  0  0  0  0  0  0
    2.6491   -2.1534   -0.5753 H   0  0  0  0  0  0  0  0  0  0  0  0
    3.2161   -2.8304   -2.0606 H   0  0  0  0  0  0  0  0  0  0  0  0
    5.8297   -1.6534    0.2133 H   0  0  0  0  0  0  0  0  0  0  0  0
    7.3683   -3.0072    0.8774 H   0  0  0  0  0  0  0  0  0  0  0  0
    6.6042   -2.9633    2.3842 H   0  0  0  0  0  0  0  0  0  0  0  0
    6.7378   -5.1724    0.4042 H   0  0  0  0  0  0  0  0  0  0  0  0
    6.8266   -5.2798    2.0931 H   0  0  0  0  0  0  0  0  0  0  0  0
    5.4394   -7.0266    0.1021 H   0  0  0  0  0  0  0  0  0  0  0  0
    3.9190   -7.3167    0.8578 H   0  0  0  0  0  0  0  0  0  0  0  0
    5.3946   -7.3528    1.8247 H   0  0  0  0  0  0  0  0  0  0  0  0
    5.4180    0.4637    2.8597 H   0  0  0  0  0  0  0  0  0  0  0  0
    6.1084    0.1082    1.3262 H   0  0  0  0  0  0  0  0  0  0  0  0
    6.5933   -0.8053    2.7508 H   0  0  0  0  0  0  0  0  0  0  0  0
    3.2998    0.3906    1.9502 H   0  0  0  0  0  0  0  0  0  0  0  0
    2.5727   -0.9598    1.1478 H   0  0  0  0  0  0  0  0  0  0  0  0
    3.8471   -0.0206    0.3617 H   0  0  0  0  0  0  0  0  0  0  0  0
    4.9415   -2.4279    3.8151 H   0  0  0  0  0  0  0  0  0  0  0  0
    3.2351   -0.2761    3.8298 H   0  0  0  0  0  0  0  0  0  0  0  0
    2.0386   -2.1676    2.9919 H   0  0  0  0  0  0  0  0  0  0  0  0
    3.0278   -3.4436    5.4708 H   0  0  0  0  0  0  0  0  0  0  0  0
    0.4089   -2.0560    4.8064 H   0  0  0  0  0  0  0  0  0  0  0  0
    1.8272   -1.2149    5.3975 H   0  0  0  0  0  0  0  0  0  0  0  0
    1.0771   -2.3981    6.4043 H   0  0  0  0  0  0  0  0  0  0  0  0
  1  2  1  0
  1 27  1  0
  1 28  1  0
  1 29  1  0
  2 25  1  0
  2  3  1  0
  2 30  1  6
  3  4  1  0
  3 31  1  0
  3 32  1  0
  4  5  1  0
  4 33  1  0
  4 34  1  0
  5 17  1  0
  5  6  1  1
  5  7  1  0
  6 35  1  0
  6 36  1  0
  6 37  1  0
  7 24  1  0
  7  8  2  0
  8  9  1  0
  8 38  1  0
  9 10  1  0
  9 39  1  0
  9 40  1  0
 10 17  1  0
 10 11  1  0
 10 41  1  6
 11 12  1  0
 11 13  1  0
 11 14  1  0
 12 42  1  0
 12 43  1  0
 12 44  1  0
 13 45  1  0
 13 46  1  0
 13 47  1  0
 14 15  1  0
 14 19  1  0
 14 48  1  6
 15 16  1  0
 15 49  1  0
 15 50  1  0
 16 17  1  0
 16 51  1  0
 16 52  1  0
 17 18  1  6
 18 53  1  0
 18 54  1  0
 18 55  1  0
 19 20  1  0
 19 21  1  0
 19 22  1  0
 20 56  1  0
 20 57  1  0
 20 58  1  0
 21 59  1  0
 21 60  1  0
 21 61  1  0
 22 23  1  0
 22 24  1  0
 22 62  1  1
 23 63  1  0
 24 25  1  0
 24 64  1  6
 25 26  1  0
 25 65  1  1
 26 66  1  0
 26 67  1  0
 26 68  1  0
M  END
>  <i_m_ct_stereo_status>  (256) 
1

>  <s_m_source_file>  (256) 
/var/tmp/pbs.5076255.sched01/tmp4tnmxshi/11480k6dy83.sdf

>  <i_m_source_file_index>  (256) 
1

>  <i_lp_mmshare_version>  (256) 
48012

>  <i_f3d_flags>  (256) 
0

>  <s_epik_input>  (256) 
W0NIMl0xW0NIMl1bQ0BASF0oW0NIM10pW0NASF0oW0NIM10pW0NASF0oQz0yW0NAQF0xM1tDSDNdKVtDQEhdKFtPSF0pQyhbQ0gzXSkoW0NIM10pW0NAQEhdNEMoW0NIM10pKFtDSDNdKVtDSF0oW0NIMl1bQ0hdMilbQ0BAXTMoW0NIM10pW0NIMl1bQ0gyXTQ=

>  <s_epik_cmdline>  (256) 
J2VwaWtfcHl0aG9uJywgJy1waHQnLCAnMi4wJywgJy1waCcsICc3LjAnLCAnLXRuJywgJzgnLCAnLW1hJywgJzIwMCcsICctaW1hZScsICc8aW5maWxlLm1hZT4nLCAnLW9tYWUnLCAnPG91dGZpbGUubWFlPic=

>  <r_lp_tautomer_probability>  (256) 
1

>  <r_epik_Ionization_Penalty>  (256) 
1.97943e-06

>  <r_epik_Ionization_Penalty_Charging>  (256) 
0

>  <r_epik_Ionization_Penalty_Neutral>  (256) 
1.97943e-06

>  <r_epik_State_Penalty>  (256) 
-0

>  <r_epik_Charging_Adjusted_Penalty>  (256) 
0

>  <i_epik_Tot_Q>  (256) 
0

>  <i_epik_Tot_abs_Q>  (256) 
0

>  <s_lp_Force_Field>  (256) 
OPLS3e

>  <r_lp_Energy>  (256) 
135.482

>  <b_lp_Chiralities_Consistent>  (256) 
1

>  <s_lp_Variant>  (256) 
81:0-1

>  <s_i_glide_gridfile>  (256) 
pfpi4k_grid

>  <i_i_glide_lignum>  (256) 
1

>  <i_i_glide_rotatable_bonds>  (256) 
1

>  <r_i_docking_score>  (256) 
-2.53992

>  <r_i_glide_ligand_efficiency>  (256) 
-0.0976891

>  <r_i_glide_ligand_efficiency_sa>  (256) 
-0.289403

>  <r_i_glide_ligand_efficiency_ln>  (256) 
-0.596491

>  <r_i_glide_gscore>  (256) 
-2.53992

>  <r_i_glide_lipo>  (256) 
-0.56779

>  <r_i_glide_hbond>  (256) 
0

>  <r_i_glide_metal>  (256) 
-0

>  <r_i_glide_rewards>  (256) 
-0.964088

>  <r_i_glide_evdw>  (256) 
-17.4176

>  <r_i_glide_ecoul>  (256) 
-0.914372

>  <r_i_glide_erotb>  (256) 
0

>  <r_i_glide_esite>  (256) 
0

>  <r_i_glide_emodel>  (256) 
-21.2575

>  <r_i_glide_energy>  (256) 
-18.332

>  <r_i_glide_einternal>  (256) 
0.0166534

>  <r_i_glide_intrahb_reward>  (256) 
-0

>  <i_i_glide_confnum>  (256) 
1

>  <i_i_glide_posenum>  (256) 
22

>  <r_i_glide_eff_state_penalty>  (256) 
0

>  <ligand_id>  (256) 
81

>  <original_smiles>  (256) 
CC1CCC2(C)C3=CCC4C(C)(C)C(CCC42C)C(C)(C)C(O)C3C1C

>  <smiles>  (256) 
[H]OC1([H])C2([H])C3=C([H])C([H])([H])C4([H])C(C([H])([H])[H])(C([H])([H])[H])C([H])(C([H])([H])C([H])([H])C4(C([H])([H])[H])C3(C([H])([H])[H])C([H])([H])C([H])([H])C([H])(C([H])([H])[H])C2([H])C([H])([H])[H])C1(C([H])([H])[H])C([H])([H])[H]

$$$$
81:0:2
     RDKit          3D

 68 71  0  0  1  0  0  0  0  0999 V2000
    1.0702   -5.0094    6.3391 C   0  0  0  0  0  0  0  0  0  0  0  0
    1.8136   -4.8181    4.9944 C   0  0  2  0  0  0  0  0  0  0  0  0
    2.7104   -6.0882    4.8080 C   0  0  0  0  0  0  0  0  0  0  0  0
    3.3375   -6.4115    3.4219 C   0  0  0  0  0  0  0  0  0  0  0  0
    4.1899   -5.2699    2.7745 C   0  0  2  0  0  0  0  0  0  0  0  0
    5.2922   -5.0242    3.8548 C   0  0  0  0  0  0  0  0  0  0  0  0
    3.1058   -4.2055    2.5591 C   0  0  0  0  0  0  0  0  0  0  0  0
    2.2487   -4.3377    1.5443 C   0  0  0  0  0  0  0  0  0  0  0  0
    2.5206   -5.2761    0.4093 C   0  0  0  0  0  0  0  0  0  0  0  0
    4.0127   -5.0830    0.1016 C   0  0  1  0  0  0  0  0  0  0  0  0
    4.3479   -3.6204   -0.4506 C   0  0  0  0  0  0  0  0  0  0  0  0
    5.2779   -3.8017   -1.6922 C   0  0  0  0  0  0  0  0  0  0  0  0
    3.1501   -2.9224   -1.1588 C   0  0  0  0  0  0  0  0  0  0  0  0
    5.1220   -2.6906    0.5899 C   0  0  2  0  0  0  0  0  0  0  0  0
    6.3759   -3.4360    1.1143 C   0  0  0  0  0  0  0  0  0  0  0  0
    6.2837   -4.9879    1.1735 C   0  0  0  0  0  0  0  0  0  0  0  0
    4.8541   -5.5877    1.3463 C   0  0  1  0  0  0  0  0  0  0  0  0
    5.0265   -7.1168    1.2167 C   0  0  0  0  0  0  0  0  0  0  0  0
    4.4965   -1.6180    1.6473 C   0  0  0  0  0  0  0  0  0  0  0  0
    5.5914   -0.5126    1.7492 C   0  0  0  0  0  0  0  0  0  0  0  0
    3.2821   -0.8326    1.0931 C   0  0  0  0  0  0  0  0  0  0  0  0
    4.1874   -2.0599    3.1596 C   0  0  1  0  0  0  0  0  0  0  0  0
    3.9712   -0.9092    3.9472 O   0  0  0  0  0  0  0  0  0  0  0  0
    2.9705   -3.0068    3.4420 C   0  0  2  0  0  0  0  0  0  0  0  0
    2.5499   -3.4145    4.8999 C   0  0  1  0  0  0  0  0  0  0  0  0
    1.6591   -2.3034    5.5088 C   0  0  0  0  0  0  0  0  0  0  0  0
    1.7521   -4.8987    7.1821 H   0  0  0  0  0  0  0  0  0  0  0  0
    0.6193   -5.9990    6.4117 H   0  0  0  0  0  0  0  0  0  0  0  0
    0.2525   -4.3022    6.4654 H   0  0  0  0  0  0  0  0  0  0  0  0
    1.0396   -4.8456    4.2270 H   0  0  0  0  0  0  0  0  0  0  0  0
    3.4768   -6.1068    5.5817 H   0  0  0  0  0  0  0  0  0  0  0  0
    2.0947   -6.9609    5.0274 H   0  0  0  0  0  0  0  0  0  0  0  0
    3.9498   -7.3013    3.5585 H   0  0  0  0  0  0  0  0  0  0  0  0
    2.5344   -6.7286    2.7624 H   0  0  0  0  0  0  0  0  0  0  0  0
    5.8464   -5.9455    4.0242 H   0  0  0  0  0  0  0  0  0  0  0  0
    4.9145   -4.7134    4.8184 H   0  0  0  0  0  0  0  0  0  0  0  0
    6.0348   -4.2877    3.5994 H   0  0  0  0  0  0  0  0  0  0  0  0
    1.4936   -3.5928    1.4206 H   0  0  0  0  0  0  0  0  0  0  0  0
    2.2970   -6.3107    0.6638 H   0  0  0  0  0  0  0  0  0  0  0  0
    1.8930   -5.0430   -0.4534 H   0  0  0  0  0  0  0  0  0  0  0  0
    4.2164   -5.7677   -0.7164 H   0  0  0  0  0  0  0  0  0  0  0  0
    5.4850   -2.8552   -2.1994 H   0  0  0  0  0  0  0  0  0  0  0  0
    4.8309   -4.4605   -2.4394 H   0  0  0  0  0  0  0  0  0  0  0  0
    6.2367   -4.2303   -1.4398 H   0  0  0  0  0  0  0  0  0  0  0  0
    3.4418   -1.9566   -1.5805 H   0  0  0  0  0  0  0  0  0  0  0  0
    2.2956   -2.7443   -0.5118 H   0  0  0  0  0  0  0  0  0  0  0  0
    2.7752   -3.5221   -1.9921 H   0  0  0  0  0  0  0  0  0  0  0  0
    5.5499   -1.9890   -0.1255 H   0  0  0  0  0  0  0  0  0  0  0  0
    7.2304   -3.1826    0.4846 H   0  0  0  0  0  0  0  0  0  0  0  0
    6.6531   -3.0386    2.0816 H   0  0  0  0  0  0  0  0  0  0  0  0
    6.6937   -5.3870    0.2470 H   0  0  0  0  0  0  0  0  0  0  0  0
    6.9814   -5.3726    1.9191 H   0  0  0  0  0  0  0  0  0  0  0  0
    5.4777   -7.3521    0.2694 H   0  0  0  0  0  0  0  0  0  0  0  0
    4.0832   -7.6630    1.2161 H   0  0  0  0  0  0  0  0  0  0  0  0
    5.6589   -7.5269    2.0072 H   0  0  0  0  0  0  0  0  0  0  0  0
    5.2501    0.3558    2.3074 H   0  0  0  0  0  0  0  0  0  0  0  0
    5.8709   -0.1076    0.7758 H   0  0  0  0  0  0  0  0  0  0  0  0
    6.5050   -0.8529    2.2353 H   0  0  0  0  0  0  0  0  0  0  0  0
    3.0628    0.0515    1.6926 H   0  0  0  0  0  0  0  0  0  0  0  0
    2.3644   -1.4122    1.0964 H   0  0  0  0  0  0  0  0  0  0  0  0
    3.4623   -0.4648    0.0851 H   0  0  0  0  0  0  0  0  0  0  0  0
    5.0895   -2.4691    3.5859 H   0  0  0  0  0  0  0  0  0  0  0  0
    4.7289   -0.3497    3.8548 H   0  0  0  0  0  0  0  0  0  0  0  0
    2.1056   -2.4598    3.0724 H   0  0  0  0  0  0  0  0  0  0  0  0
    3.4348   -3.4457    5.5253 H   0  0  0  0  0  0  0  0  0  0  0  0
    0.6707   -2.2853    5.0460 H   0  0  0  0  0  0  0  0  0  0  0  0
    2.0817   -1.3089    5.3962 H   0  0  0  0  0  0  0  0  0  0  0  0
    1.5291   -2.4368    6.5820 H   0  0  0  0  0  0  0  0  0  0  0  0
  1  2  1  0
  1 27  1  0
  1 28  1  0
  1 29  1  0
  2 25  1  0
  2  3  1  0
  2 30  1  6
  3  4  1  0
  3 31  1  0
  3 32  1  0
  4  5  1  0
  4 33  1  0
  4 34  1  0
  5 17  1  0
  5  6  1  1
  5  7  1  0
  6 35  1  0
  6 36  1  0
  6 37  1  0
  7 24  1  0
  7  8  2  0
  8  9  1  0
  8 38  1  0
  9 10  1  0
  9 39  1  0
  9 40  1  0
 10 17  1  0
 10 11  1  0
 10 41  1  6
 11 12  1  0
 11 13  1  0
 11 14  1  0
 12 42  1  0
 12 43  1  0
 12 44  1  0
 13 45  1  0
 13 46  1  0
 13 47  1  0
 14 15  1  0
 14 19  1  0
 14 48  1  6
 15 16  1  0
 15 49  1  0
 15 50  1  0
 16 17  1  0
 16 51  1  0
 16 52  1  0
 17 18  1  6
 18 53  1  0
 18 54  1  0
 18 55  1  0
 19 20  1  0
 19 21  1  0
 19 22  1  0
 20 56  1  0
 20 57  1  0
 20 58  1  0
 21 59  1  0
 21 60  1  0
 21 61  1  0
 22 23  1  0
 22 24  1  0
 22 62  1  1
 23 63  1  0
 24 25  1  0
 24 64  1  6
 25 26  1  0
 25 65  1  1
 26 66  1  0
 26 67  1  0
 26 68  1  0
M  END
>  <i_m_ct_stereo_status>  (257) 
1

>  <s_m_source_file>  (257) 
/var/tmp/pbs.5076255.sched01/tmp4tnmxshi/11480k6dy83.sdf

>  <i_m_source_file_index>  (257) 
1

>  <i_lp_mmshare_version>  (257) 
48012

>  <i_f3d_flags>  (257) 
0

>  <s_epik_input>  (257) 
W0NIMl0xW0NIMl1bQ0BASF0oW0NIM10pW0NASF0oW0NIM10pW0NASF0oQz0yW0NAQF0xM1tDSDNdKVtDQEhdKFtPSF0pQyhbQ0gzXSkoW0NIM10pW0NAQEhdNEMoW0NIM10pKFtDSDNdKVtDSF0oW0NIMl1bQ0hdMilbQ0BAXTMoW0NIM10pW0NIMl1bQ0gyXTQ=

>  <s_epik_cmdline>  (257) 
J2VwaWtfcHl0aG9uJywgJy1waHQnLCAnMi4wJywgJy1waCcsICc3LjAnLCAnLXRuJywgJzgnLCAnLW1hJywgJzIwMCcsICctaW1hZScsICc8aW5maWxlLm1hZT4nLCAnLW9tYWUnLCAnPG91dGZpbGUubWFlPic=

>  <r_lp_tautomer_probability>  (257) 
1

>  <r_epik_Ionization_Penalty>  (257) 
1.97943e-06

>  <r_epik_Ionization_Penalty_Charging>  (257) 
0

>  <r_epik_Ionization_Penalty_Neutral>  (257) 
1.97943e-06

>  <r_epik_State_Penalty>  (257) 
-0

>  <r_epik_Charging_Adjusted_Penalty>  (257) 
0

>  <i_epik_Tot_Q>  (257) 
0

>  <i_epik_Tot_abs_Q>  (257) 
0

>  <s_lp_Force_Field>  (257) 
OPLS3e

>  <r_lp_Energy>  (257) 
135.482

>  <b_lp_Chiralities_Consistent>  (257) 
1

>  <s_lp_Variant>  (257) 
81:0-1

>  <s_i_glide_gridfile>  (257) 
pfpi4k_grid

>  <i_i_glide_lignum>  (257) 
1

>  <i_i_glide_rotatable_bonds>  (257) 
1

>  <r_i_docking_score>  (257) 
-2.40313

>  <r_i_glide_ligand_efficiency>  (257) 
-0.092428

>  <r_i_glide_ligand_efficiency_sa>  (257) 
-0.273818

>  <r_i_glide_ligand_efficiency_ln>  (257) 
-0.564367

>  <r_i_glide_gscore>  (257) 
-2.40313

>  <r_i_glide_lipo>  (257) 
-0.490366

>  <r_i_glide_hbond>  (257) 
0

>  <r_i_glide_metal>  (257) 
-0

>  <r_i_glide_rewards>  (257) 
-0.964088

>  <r_i_glide_evdw>  (257) 
-17.2923

>  <r_i_glide_ecoul>  (257) 
-0.560414

>  <r_i_glide_erotb>  (257) 
0

>  <r_i_glide_esite>  (257) 
0

>  <r_i_glide_emodel>  (257) 
-20.514

>  <r_i_glide_energy>  (257) 
-17.8527

>  <r_i_glide_einternal>  (257) 
0.339239

>  <r_i_glide_intrahb_reward>  (257) 
-0

>  <i_i_glide_confnum>  (257) 
1

>  <i_i_glide_posenum>  (257) 
1

>  <r_i_glide_eff_state_penalty>  (257) 
0

>  <ligand_id>  (257) 
81

>  <original_smiles>  (257) 
CC1CCC2(C)C3=CCC4C(C)(C)C(CCC42C)C(C)(C)C(O)C3C1C

>  <smiles>  (257) 
[H]OC1([H])C2([H])C3=C([H])C([H])([H])C4([H])C(C([H])([H])[H])(C([H])([H])[H])C([H])(C([H])([H])C([H])([H])C4(C([H])([H])[H])C3(C([H])([H])[H])C([H])([H])C([H])([H])C([H])(C([H])([H])[H])C2([H])C([H])([H])[H])C1(C([H])([H])[H])C([H])([H])[H]

$$$$
82:0:0
     RDKit          3D

 30 31  0  0  1  0  0  0  0  0999 V2000
    2.1856   -2.8666   -3.7826 C   0  0  0  0  0  0  0  0  0  0  0  0
    3.4835   -2.4427   -4.2062 O   0  0  0  0  0  0  0  0  0  0  0  0
    3.7280   -1.0464   -4.3967 C   0  0  0  0  0  0  0  0  0  0  0  0
    3.4387   -0.2025   -3.1526 C   0  0  0  0  0  0  0  0  0  0  0  0
    3.5243   -1.0236   -1.9430 N   0  0  0  0  0  0  0  0  0  0  0  0
    4.6227   -1.6111   -1.4448 C   0  0  0  0  0  0  0  0  0  0  0  0
    5.7519   -1.4814   -1.8975 O   0  0  0  0  0  0  0  0  0  0  0  0
    4.3469   -2.4646   -0.2346 C   0  0  0  0  0  0  0  0  0  0  0  0
    4.5364   -3.8177   -0.4563 N   0  0  0  0  0  0  0  0  0  0  0  0
    4.3465   -4.6418    0.5411 C   0  0  0  0  0  0  0  0  0  0  0  0
    4.5690   -6.1322    0.3029 C   0  0  0  0  0  0  0  0  0  0  0  0
    3.9872   -4.2207    1.7802 N   0  0  0  0  0  0  0  0  0  0  0  0
    3.7962   -4.9647    2.9182 N   0  0  0  0  0  0  0  0  0  0  0  0
    3.4920   -4.0217    3.8076 C   0  0  0  0  0  0  0  0  0  0  0  0
    3.4530   -2.7386    3.3619 N   0  0  0  0  0  0  0  0  0  0  0  0
    3.7720   -2.8617    2.0681 C   0  0  0  0  0  0  0  0  0  0  0  0
    3.9523   -1.9567    1.0001 C   0  0  0  0  0  0  0  0  0  0  0  0
    3.7403   -0.2526    1.2543 Cl  0  0  0  0  0  0  0  0  0  0  0  0
    2.1947   -3.9585   -3.7726 H   0  0  0  0  0  0  0  0  0  0  0  0
    1.4084   -2.5060   -4.4476 H   0  0  0  0  0  0  0  0  0  0  0  0
    1.9542   -2.5184   -2.7850 H   0  0  0  0  0  0  0  0  0  0  0  0
    4.7746   -0.8965   -4.6805 H   0  0  0  0  0  0  0  0  0  0  0  0
    3.1670   -0.6592   -5.2408 H   0  0  0  0  0  0  0  0  0  0  0  0
    4.0335    0.7294   -3.1314 H   0  0  0  0  0  0  0  0  0  0  0  0
    2.4114    0.1449   -3.2154 H   0  0  0  0  0  0  0  0  0  0  0  0
    2.6325   -1.1241   -1.4203 H   0  0  0  0  0  0  0  0  0  0  0  0
    4.8340   -6.3289   -0.7334 H   0  0  0  0  0  0  0  0  0  0  0  0
    3.6613   -6.6998    0.5376 H   0  0  0  0  0  0  0  0  0  0  0  0
    5.3772   -6.5054    0.9429 H   0  0  0  0  0  0  0  0  0  0  0  0
    3.2784   -4.2694    4.8296 H   0  0  0  0  0  0  0  0  0  0  0  0
  1  2  1  0
  1 19  1  0
  1 20  1  0
  1 21  1  0
  2  3  1  0
  3  4  1  0
  3 22  1  0
  3 23  1  0
  4  5  1  0
  4 24  1  0
  4 25  1  0
  5  6  1  0
  5 26  1  0
  6  7  2  0
  6  8  1  0
  8 17  2  0
  8  9  1  0
  9 10  2  0
 10 11  1  0
 10 12  1  0
 11 27  1  0
 11 28  1  0
 11 29  1  0
 12 16  1  0
 12 13  1  0
 13 14  2  0
 14 15  1  0
 14 30  1  0
 15 16  2  0
 16 17  1  0
 17 18  1  0
M  END
>  <i_m_ct_stereo_status>  (258) 
1

>  <s_m_source_file>  (258) 
/var/tmp/pbs.5076255.sched01/tmp4tnmxshi/11480k6dy83.sdf

>  <i_m_source_file_index>  (258) 
2

>  <i_lp_mmshare_version>  (258) 
48012

>  <i_f3d_flags>  (258) 
0

>  <s_epik_input>  (258) 
W0NIM11PW0NIMl1bQ0gyXVtOSF1DKD1PKWMobmMxW0NIM10pYyhDbCljKG4xMiluW2NIXW4y

>  <s_epik_cmdline>  (258) 
J2VwaWtfcHl0aG9uJywgJy1waHQnLCAnMi4wJywgJy1waCcsICc3LjAnLCAnLXRuJywgJzgnLCAnLW1hJywgJzIwMCcsICctaW1hZScsICc8aW5maWxlLm1hZT4nLCAnLW9tYWUnLCAnPG91dGZpbGUubWFlPic=

>  <r_lp_tautomer_probability>  (258) 
1

>  <r_epik_Ionization_Penalty>  (258) 
3.86651e-05

>  <r_epik_Ionization_Penalty_Charging>  (258) 
0

>  <r_epik_Ionization_Penalty_Neutral>  (258) 
3.86651e-05

>  <r_epik_State_Penalty>  (258) 
-0

>  <r_epik_Charging_Adjusted_Penalty>  (258) 
0

>  <i_epik_Tot_Q>  (258) 
0

>  <i_epik_Tot_abs_Q>  (258) 
0

>  <s_lp_Force_Field>  (258) 
OPLS3e

>  <r_lp_Energy>  (258) 
19.9127

>  <b_lp_Chiralities_Consistent>  (258) 
1

>  <s_lp_Variant>  (258) 
82:0-1

>  <s_i_glide_gridfile>  (258) 
pfpi4k_grid

>  <i_i_glide_lignum>  (258) 
2

>  <i_i_glide_rotatable_bonds>  (258) 
5

>  <r_i_docking_score>  (258) 
-3.68283

>  <r_i_glide_ligand_efficiency>  (258) 
-0.204602

>  <r_i_glide_ligand_efficiency_sa>  (258) 
-0.536208

>  <r_i_glide_ligand_efficiency_ln>  (258) 
-0.946652

>  <r_i_glide_gscore>  (258) 
-3.68283

>  <r_i_glide_lipo>  (258) 
-0.434973

>  <r_i_glide_hbond>  (258) 
-0.490762

>  <r_i_glide_metal>  (258) 
-0

>  <r_i_glide_rewards>  (258) 
-1.6339

>  <r_i_glide_evdw>  (258) 
-23.7915

>  <r_i_glide_ecoul>  (258) 
-5.43912

>  <r_i_glide_erotb>  (258) 
0.982949

>  <r_i_glide_esite>  (258) 
-0.100699

>  <r_i_glide_emodel>  (258) 
-31.6985

>  <r_i_glide_energy>  (258) 
-29.2306

>  <r_i_glide_einternal>  (258) 
7.85584

>  <r_i_glide_intrahb_reward>  (258) 
-0

>  <i_i_glide_confnum>  (258) 
2

>  <i_i_glide_posenum>  (258) 
30

>  <r_i_glide_eff_state_penalty>  (258) 
0

>  <ligand_id>  (258) 
82

>  <original_smiles>  (258) 
COCCNC(=O)c1nc(C)n2ncnc2c1Cl

>  <smiles>  (258) 
[H]c1nc2c(Cl)c(C(=O)N([H])C([H])([H])C([H])([H])OC([H])([H])[H])nc(C([H])([H])[H])n2n1

$$$$
82:0:1
     RDKit          3D

 30 31  0  0  1  0  0  0  0  0999 V2000
    2.8981   -3.3575   -3.3751 C   0  0  0  0  0  0  0  0  0  0  0  0
    3.3831   -2.3952   -4.3035 O   0  0  0  0  0  0  0  0  0  0  0  0
    4.3514   -1.4774   -3.8073 C   0  0  0  0  0  0  0  0  0  0  0  0
    3.7940   -0.4743   -2.7780 C   0  0  0  0  0  0  0  0  0  0  0  0
    3.4650   -1.1218   -1.5009 N   0  0  0  0  0  0  0  0  0  0  0  0
    4.3108   -1.8345   -0.7396 C   0  0  0  0  0  0  0  0  0  0  0  0
    5.5261   -1.9141   -0.9446 O   0  0  0  0  0  0  0  0  0  0  0  0
    3.6610   -2.5957    0.3835 C   0  0  0  0  0  0  0  0  0  0  0  0
    3.7108   -3.9717    0.2698 N   0  0  0  0  0  0  0  0  0  0  0  0
    3.1904   -4.6970    1.2171 C   0  0  0  0  0  0  0  0  0  0  0  0
    3.2517   -6.2152    1.1073 C   0  0  0  0  0  0  0  0  0  0  0  0
    2.5953   -4.1401    2.3192 N   0  0  0  0  0  0  0  0  0  0  0  0
    2.0197   -4.7728    3.3827 N   0  0  0  0  0  0  0  0  0  0  0  0
    1.6442   -3.7413    4.1339 C   0  0  0  0  0  0  0  0  0  0  0  0
    1.8975   -2.4986    3.6425 N   0  0  0  0  0  0  0  0  0  0  0  0
    2.5101   -2.7487    2.4881 C   0  0  0  0  0  0  0  0  0  0  0  0
    3.0683   -1.9479    1.4608 C   0  0  0  0  0  0  0  0  0  0  0  0
    3.0323   -0.2239    1.5982 Cl  0  0  0  0  0  0  0  0  0  0  0  0
    2.2757   -4.0973   -3.8912 H   0  0  0  0  0  0  0  0  0  0  0  0
    2.3057   -2.8871   -2.5961 H   0  0  0  0  0  0  0  0  0  0  0  0
    3.7454   -3.8640   -2.9111 H   0  0  0  0  0  0  0  0  0  0  0  0
    5.2448   -2.0023   -3.4616 H   0  0  0  0  0  0  0  0  0  0  0  0
    4.6760   -0.9047   -4.6699 H   0  0  0  0  0  0  0  0  0  0  0  0
    4.4834    0.3689   -2.6393 H   0  0  0  0  0  0  0  0  0  0  0  0
    2.8794   -0.0373   -3.1758 H   0  0  0  0  0  0  0  0  0  0  0  0
    2.4837   -1.0742   -1.1980 H   0  0  0  0  0  0  0  0  0  0  0  0
    3.7388   -6.5319    0.1819 H   0  0  0  0  0  0  0  0  0  0  0  0
    2.2486   -6.6508    1.1270 H   0  0  0  0  0  0  0  0  0  0  0  0
    3.8119   -6.6424    1.9441 H   0  0  0  0  0  0  0  0  0  0  0  0
    1.1510   -3.8824    5.0879 H   0  0  0  0  0  0  0  0  0  0  0  0
  1  2  1  0
  1 19  1  0
  1 20  1  0
  1 21  1  0
  2  3  1  0
  3  4  1  0
  3 22  1  0
  3 23  1  0
  4  5  1  0
  4 24  1  0
  4 25  1  0
  5  6  1  0
  5 26  1  0
  6  7  2  0
  6  8  1  0
  8 17  2  0
  8  9  1  0
  9 10  2  0
 10 11  1  0
 10 12  1  0
 11 27  1  0
 11 28  1  0
 11 29  1  0
 12 16  1  0
 12 13  1  0
 13 14  2  0
 14 15  1  0
 14 30  1  0
 15 16  2  0
 16 17  1  0
 17 18  1  0
M  END
>  <i_m_ct_stereo_status>  (259) 
1

>  <s_m_source_file>  (259) 
/var/tmp/pbs.5076255.sched01/tmp4tnmxshi/11480k6dy83.sdf

>  <i_m_source_file_index>  (259) 
2

>  <i_lp_mmshare_version>  (259) 
48012

>  <i_f3d_flags>  (259) 
0

>  <s_epik_input>  (259) 
W0NIM11PW0NIMl1bQ0gyXVtOSF1DKD1PKWMobmMxW0NIM10pYyhDbCljKG4xMiluW2NIXW4y

>  <s_epik_cmdline>  (259) 
J2VwaWtfcHl0aG9uJywgJy1waHQnLCAnMi4wJywgJy1waCcsICc3LjAnLCAnLXRuJywgJzgnLCAnLW1hJywgJzIwMCcsICctaW1hZScsICc8aW5maWxlLm1hZT4nLCAnLW9tYWUnLCAnPG91dGZpbGUubWFlPic=

>  <r_lp_tautomer_probability>  (259) 
1

>  <r_epik_Ionization_Penalty>  (259) 
3.86651e-05

>  <r_epik_Ionization_Penalty_Charging>  (259) 
0

>  <r_epik_Ionization_Penalty_Neutral>  (259) 
3.86651e-05

>  <r_epik_State_Penalty>  (259) 
-0

>  <r_epik_Charging_Adjusted_Penalty>  (259) 
0

>  <i_epik_Tot_Q>  (259) 
0

>  <i_epik_Tot_abs_Q>  (259) 
0

>  <s_lp_Force_Field>  (259) 
OPLS3e

>  <r_lp_Energy>  (259) 
19.9127

>  <b_lp_Chiralities_Consistent>  (259) 
1

>  <s_lp_Variant>  (259) 
82:0-1

>  <s_i_glide_gridfile>  (259) 
pfpi4k_grid

>  <i_i_glide_lignum>  (259) 
2

>  <i_i_glide_rotatable_bonds>  (259) 
5

>  <r_i_docking_score>  (259) 
-3.51706

>  <r_i_glide_ligand_efficiency>  (259) 
-0.195392

>  <r_i_glide_ligand_efficiency_sa>  (259) 
-0.512073

>  <r_i_glide_ligand_efficiency_ln>  (259) 
-0.904043

>  <r_i_glide_gscore>  (259) 
-3.51706

>  <r_i_glide_lipo>  (259) 
-0.382459

>  <r_i_glide_hbond>  (259) 
-0.456

>  <r_i_glide_metal>  (259) 
-0

>  <r_i_glide_rewards>  (259) 
-1.582

>  <r_i_glide_evdw>  (259) 
-22.8844

>  <r_i_glide_ecoul>  (259) 
-5.38803

>  <r_i_glide_erotb>  (259) 
0.982949

>  <r_i_glide_esite>  (259) 
-0.127131

>  <r_i_glide_emodel>  (259) 
-33.4965

>  <r_i_glide_energy>  (259) 
-28.2724

>  <r_i_glide_einternal>  (259) 
3.55851

>  <r_i_glide_intrahb_reward>  (259) 
-0

>  <i_i_glide_confnum>  (259) 
2

>  <i_i_glide_posenum>  (259) 
1

>  <r_i_glide_eff_state_penalty>  (259) 
0

>  <ligand_id>  (259) 
82

>  <original_smiles>  (259) 
COCCNC(=O)c1nc(C)n2ncnc2c1Cl

>  <smiles>  (259) 
[H]c1nc2c(Cl)c(C(=O)N([H])C([H])([H])C([H])([H])OC([H])([H])[H])nc(C([H])([H])[H])n2n1

$$$$
82:0:2
     RDKit          3D

 30 31  0  0  1  0  0  0  0  0999 V2000
   -2.0304   -4.6754    7.7854 C   0  0  0  0  0  0  0  0  0  0  0  0
   -0.9850   -3.7919    8.1499 O   0  0  0  0  0  0  0  0  0  0  0  0
    0.2706   -4.0947    7.5435 C   0  0  0  0  0  0  0  0  0  0  0  0
    0.2407   -3.7564    6.0364 C   0  0  0  0  0  0  0  0  0  0  0  0
   -0.1958   -2.3938    5.7192 N   0  0  0  0  0  0  0  0  0  0  0  0
   -0.1531   -1.2854    6.4733 C   0  0  0  0  0  0  0  0  0  0  0  0
    0.2567   -1.2510    7.6352 O   0  0  0  0  0  0  0  0  0  0  0  0
   -0.7293   -0.0485    5.8400 C   0  0  0  0  0  0  0  0  0  0  0  0
   -1.5362    0.6993    6.6824 N   0  0  0  0  0  0  0  0  0  0  0  0
   -1.9801    1.8501    6.2584 C   0  0  0  0  0  0  0  0  0  0  0  0
   -2.8325    2.6719    7.2214 C   0  0  0  0  0  0  0  0  0  0  0  0
   -1.7287    2.3101    5.0026 N   0  0  0  0  0  0  0  0  0  0  0  0
   -2.1443    3.4694    4.4335 N   0  0  0  0  0  0  0  0  0  0  0  0
   -1.6043    3.3739    3.2230 C   0  0  0  0  0  0  0  0  0  0  0  0
   -0.8784    2.2569    2.9537 N   0  0  0  0  0  0  0  0  0  0  0  0
   -0.9482    1.5839    4.0893 C   0  0  0  0  0  0  0  0  0  0  0  0
   -0.4144    0.3457    4.5461 C   0  0  0  0  0  0  0  0  0  0  0  0
    0.6357   -0.5403    3.4858 Cl  0  0  0  0  0  0  0  0  0  0  0  0
   -2.9559   -4.3978    8.2941 H   0  0  0  0  0  0  0  0  0  0  0  0
   -1.7593   -5.6870    8.0786 H   0  0  0  0  0  0  0  0  0  0  0  0
   -2.2343   -4.6712    6.7158 H   0  0  0  0  0  0  0  0  0  0  0  0
    1.0450   -3.4969    8.0220 H   0  0  0  0  0  0  0  0  0  0  0  0
    0.5497   -5.1378    7.7181 H   0  0  0  0  0  0  0  0  0  0  0  0
    1.2205   -3.9188    5.5869 H   0  0  0  0  0  0  0  0  0  0  0  0
   -0.4130   -4.4518    5.5028 H   0  0  0  0  0  0  0  0  0  0  0  0
   -0.5079   -2.2543    4.7638 H   0  0  0  0  0  0  0  0  0  0  0  0
   -2.9480    2.1682    8.1870 H   0  0  0  0  0  0  0  0  0  0  0  0
   -3.8166    2.8179    6.7850 H   0  0  0  0  0  0  0  0  0  0  0  0
   -2.3726    3.6431    7.3897 H   0  0  0  0  0  0  0  0  0  0  0  0
   -1.7197    4.1362    2.4785 H   0  0  0  0  0  0  0  0  0  0  0  0
  1  2  1  0
  1 19  1  0
  1 20  1  0
  1 21  1  0
  2  3  1  0
  3  4  1  0
  3 22  1  0
  3 23  1  0
  4  5  1  0
  4 24  1  0
  4 25  1  0
  5  6  1  0
  5 26  1  0
  6  7  2  0
  6  8  1  0
  8 17  2  0
  8  9  1  0
  9 10  2  0
 10 11  1  0
 10 12  1  0
 11 27  1  0
 11 28  1  0
 11 29  1  0
 12 16  1  0
 12 13  1  0
 13 14  2  0
 14 15  1  0
 14 30  1  0
 15 16  2  0
 16 17  1  0
 17 18  1  0
M  END
>  <i_m_ct_stereo_status>  (260) 
1

>  <s_m_source_file>  (260) 
/var/tmp/pbs.5076255.sched01/tmp4tnmxshi/11480k6dy83.sdf

>  <i_m_source_file_index>  (260) 
2

>  <i_lp_mmshare_version>  (260) 
48012

>  <i_f3d_flags>  (260) 
0

>  <s_epik_input>  (260) 
W0NIM11PW0NIMl1bQ0gyXVtOSF1DKD1PKWMobmMxW0NIM10pYyhDbCljKG4xMiluW2NIXW4y

>  <s_epik_cmdline>  (260) 
J2VwaWtfcHl0aG9uJywgJy1waHQnLCAnMi4wJywgJy1waCcsICc3LjAnLCAnLXRuJywgJzgnLCAnLW1hJywgJzIwMCcsICctaW1hZScsICc8aW5maWxlLm1hZT4nLCAnLW9tYWUnLCAnPG91dGZpbGUubWFlPic=

>  <r_lp_tautomer_probability>  (260) 
1

>  <r_epik_Ionization_Penalty>  (260) 
3.86651e-05

>  <r_epik_Ionization_Penalty_Charging>  (260) 
0

>  <r_epik_Ionization_Penalty_Neutral>  (260) 
3.86651e-05

>  <r_epik_State_Penalty>  (260) 
-0

>  <r_epik_Charging_Adjusted_Penalty>  (260) 
0

>  <i_epik_Tot_Q>  (260) 
0

>  <i_epik_Tot_abs_Q>  (260) 
0

>  <s_lp_Force_Field>  (260) 
OPLS3e

>  <r_lp_Energy>  (260) 
19.9127

>  <b_lp_Chiralities_Consistent>  (260) 
1

>  <s_lp_Variant>  (260) 
82:0-1

>  <s_i_glide_gridfile>  (260) 
pfpi4k_grid

>  <i_i_glide_lignum>  (260) 
2

>  <i_i_glide_rotatable_bonds>  (260) 
5

>  <r_i_docking_score>  (260) 
-2.89105

>  <r_i_glide_ligand_efficiency>  (260) 
-0.160614

>  <r_i_glide_ligand_efficiency_sa>  (260) 
-0.420927

>  <r_i_glide_ligand_efficiency_ln>  (260) 
-0.743129

>  <r_i_glide_gscore>  (260) 
-2.89105

>  <r_i_glide_lipo>  (260) 
-0.198133

>  <r_i_glide_hbond>  (260) 
-0.199256

>  <r_i_glide_metal>  (260) 
-0

>  <r_i_glide_rewards>  (260) 
-1.57031

>  <r_i_glide_evdw>  (260) 
-20.0783

>  <r_i_glide_ecoul>  (260) 
-4.79869

>  <r_i_glide_erotb>  (260) 
0.982949

>  <r_i_glide_esite>  (260) 
-0.182577

>  <r_i_glide_emodel>  (260) 
-28.634

>  <r_i_glide_energy>  (260) 
-24.8769

>  <r_i_glide_einternal>  (260) 
3.75258

>  <r_i_glide_intrahb_reward>  (260) 
-0

>  <i_i_glide_confnum>  (260) 
2

>  <i_i_glide_posenum>  (260) 
18

>  <r_i_glide_eff_state_penalty>  (260) 
0

>  <ligand_id>  (260) 
82

>  <original_smiles>  (260) 
COCCNC(=O)c1nc(C)n2ncnc2c1Cl

>  <smiles>  (260) 
[H]c1nc2c(Cl)c(C(=O)N([H])C([H])([H])C([H])([H])OC([H])([H])[H])nc(C([H])([H])[H])n2n1

$$$$
83:0:0
     RDKit          3D

 58 62  0  0  1  0  0  0  0  0999 V2000
    1.4646   -4.7559   -0.9020 C   0  0  0  0  0  0  0  0  0  0  0  0
    2.8080   -4.4516   -0.1861 C   0  0  2  0  0  0  0  0  0  0  0  0
    2.6166   -4.3695    1.3680 C   0  0  0  0  0  0  0  0  0  0  0  0
    2.7153   -3.3944    2.3374 C   0  0  0  0  0  0  0  0  0  0  0  0
    3.2116   -3.6153    3.7861 C   0  0  0  0  0  0  0  0  0  0  0  0
    2.1578   -3.3883    4.8866 C   0  0  0  0  0  0  0  0  0  0  0  0
    3.8588   -4.9843    4.0543 C   0  0  0  0  0  0  0  0  0  0  0  0
    4.1446   -2.4309    3.3840 C   0  0  1  0  0  0  0  0  0  0  0  0
    5.2776   -2.7805    2.3923 C   0  0  0  0  0  0  0  0  0  0  0  0
    5.0313   -2.3254    1.1470 C   0  0  0  0  0  0  0  0  0  0  0  0
    3.9352   -1.4057    1.2730 C   0  0  0  0  0  0  0  0  0  0  0  0
    3.9656   -0.2842    0.7735 O   0  0  0  0  0  0  0  0  0  0  0  0
    3.0923   -1.8867    2.3946 C   0  0  1  0  0  0  0  0  0  0  0  0
    1.9959   -0.8988    2.7961 C   0  0  0  0  0  0  0  0  0  0  0  0
    5.1764   -3.1437   -0.1627 C   0  0  2  0  0  0  0  0  0  0  0  0
    5.9247   -4.4695    0.2089 C   0  0  0  0  0  0  0  0  0  0  0  0
    5.9256   -2.3640   -1.2880 C   0  0  1  0  0  0  0  0  0  0  0  0
    7.2703   -2.7231   -1.4952 O   0  0  0  0  0  0  0  0  0  0  0  0
    5.0985   -2.6153   -2.5822 C   0  0  1  0  0  0  0  0  0  0  0  0
    4.3725   -3.9118   -2.2508 C   0  0  0  0  0  0  0  0  0  0  0  0
    3.7870   -3.4486   -0.9100 C   0  0  1  0  0  0  0  0  0  0  0  0
    3.0200   -2.2388   -1.5555 C   0  0  0  0  0  0  0  0  0  0  0  0
    3.8948   -1.6707   -2.6823 C   0  0  1  0  0  0  0  0  0  0  0  0
    4.2138   -0.1902   -2.4654 C   0  0  0  0  0  0  0  0  0  0  0  0
    3.1869   -1.7856   -4.0576 C   0  0  0  0  0  0  0  0  0  0  0  0
    3.8279   -1.0537   -5.0644 O   0  0  0  0  0  0  0  0  0  0  0  0
    1.0049   -5.6766   -0.5403 H   0  0  0  0  0  0  0  0  0  0  0  0
    1.4178   -4.7594   -1.9788 H   0  0  0  0  0  0  0  0  0  0  0  0
    0.8402   -3.8993   -0.8856 H   0  0  0  0  0  0  0  0  0  0  0  0
    3.3560   -5.3910   -0.2628 H   0  0  0  0  0  0  0  0  0  0  0  0
    2.5033   -5.3656    1.7819 H   0  0  0  0  0  0  0  0  0  0  0  0
    2.6272   -3.3777    5.8664 H   0  0  0  0  0  0  0  0  0  0  0  0
    1.3944   -4.1737    4.9057 H   0  0  0  0  0  0  0  0  0  0  0  0
    1.6415   -2.4354    4.8090 H   0  0  0  0  0  0  0  0  0  0  0  0
    4.4667   -4.9372    4.9507 H   0  0  0  0  0  0  0  0  0  0  0  0
    4.5107   -5.3015    3.2432 H   0  0  0  0  0  0  0  0  0  0  0  0
    3.1156   -5.7709    4.2092 H   0  0  0  0  0  0  0  0  0  0  0  0
    4.4051   -1.7591    4.1880 H   0  0  0  0  0  0  0  0  0  0  0  0
    5.9122   -3.6271    2.5876 H   0  0  0  0  0  0  0  0  0  0  0  0
    1.7901   -0.1557    2.0264 H   0  0  0  0  0  0  0  0  0  0  0  0
    2.3133   -0.3475    3.6725 H   0  0  0  0  0  0  0  0  0  0  0  0
    1.0423   -1.3835    3.0206 H   0  0  0  0  0  0  0  0  0  0  0  0
    6.1958   -5.0667   -0.6434 H   0  0  0  0  0  0  0  0  0  0  0  0
    5.3421   -5.1081    0.8667 H   0  0  0  0  0  0  0  0  0  0  0  0
    6.8701   -4.2590    0.7032 H   0  0  0  0  0  0  0  0  0  0  0  0
    5.9789   -1.3097   -1.0220 H   0  0  0  0  0  0  0  0  0  0  0  0
    7.2724   -3.5208   -2.0135 H   0  0  0  0  0  0  0  0  0  0  0  0
    5.6737   -2.6632   -3.5091 H   0  0  0  0  0  0  0  0  0  0  0  0
    3.6098   -4.1555   -2.9762 H   0  0  0  0  0  0  0  0  0  0  0  0
    5.0243   -4.7753   -2.2426 H   0  0  0  0  0  0  0  0  0  0  0  0
    2.0959   -2.5830   -2.0132 H   0  0  0  0  0  0  0  0  0  0  0  0
    2.6759   -1.4717   -0.8855 H   0  0  0  0  0  0  0  0  0  0  0  0
    3.3922    0.4423   -2.7855 H   0  0  0  0  0  0  0  0  0  0  0  0
    5.0153    0.1061   -3.0892 H   0  0  0  0  0  0  0  0  0  0  0  0
    4.5316    0.0909   -1.4733 H   0  0  0  0  0  0  0  0  0  0  0  0
    3.0505   -2.7978   -4.4239 H   0  0  0  0  0  0  0  0  0  0  0  0
    2.1988   -1.3665   -4.0135 H   0  0  0  0  0  0  0  0  0  0  0  0
    3.6060   -0.1353   -4.9538 H   0  0  0  0  0  0  0  0  0  0  0  0
  1  2  1  0
  1 27  1  0
  1 28  1  0
  1 29  1  0
  2 21  1  0
  2  3  1  0
  2 30  1  1
  3  4  2  3
  3 31  1  0
  4 13  1  0
  4  5  1  0
  5  6  1  0
  5  7  1  0
  5  8  1  0
  6 32  1  0
  6 33  1  0
  6 34  1  0
  7 35  1  0
  7 36  1  0
  7 37  1  0
  8 13  1  0
  8  9  1  0
  8 38  1  1
  9 10  2  0
  9 39  1  0
 10 11  1  0
 10 15  1  0
 11 12  2  0
 11 13  1  0
 13 14  1  1
 14 40  1  0
 14 41  1  0
 14 42  1  0
 15 21  1  0
 15 16  1  1
 15 17  1  0
 16 43  1  0
 16 44  1  0
 16 45  1  0
 17 18  1  0
 17 19  1  0
 17 46  1  1
 18 47  1  0
 19 23  1  0
 19 20  1  0
 19 48  1  6
 20 21  1  0
 20 49  1  0
 20 50  1  0
 21 22  1  6
 22 23  1  0
 22 51  1  0
 22 52  1  0
 23 24  1  1
 23 25  1  0
 24 53  1  0
 24 54  1  0
 24 55  1  0
 25 26  1  0
 25 56  1  0
 25 57  1  0
 26 58  1  0
M  END
>  <i_m_ct_stereo_status>  (261) 
1

>  <s_m_source_file>  (261) 
/var/tmp/pbs.5076255.sched01/tmp4tnmxshi/11480k6dy83.sdf

>  <i_m_source_file_index>  (261) 
3

>  <i_lp_mmshare_version>  (261) 
48012

>  <i_f3d_flags>  (261) 
0

>  <s_epik_input>  (261) 
W0NIM11bQ0BASF0xL1tDSF09QygvQzIoW0NIM10pW0NIM10pW0NAQF0oQzM9TykoW0NIM10pW0NAQEhdMltDSF09QzNbQ0BdKFtDQF0xNDUpKFtDSDNdKVtDQEBIXShbT0hdKVtDQEBIXShbQ0gyXTQpW0NAQF0oW0NIMl01KShbQ0gzXSlbQ0gyXVtPSF0=

>  <s_epik_cmdline>  (261) 
J2VwaWtfcHl0aG9uJywgJy1waHQnLCAnMi4wJywgJy1waCcsICc3LjAnLCAnLXRuJywgJzgnLCAnLW1hJywgJzIwMCcsICctaW1hZScsICc8aW5maWxlLm1hZT4nLCAnLW9tYWUnLCAnPG91dGZpbGUubWFlPic=

>  <r_lp_tautomer_probability>  (261) 
1

>  <r_epik_Ionization_Penalty>  (261) 
8.1826e-07

>  <r_epik_Ionization_Penalty_Charging>  (261) 
0

>  <r_epik_Ionization_Penalty_Neutral>  (261) 
8.1826e-07

>  <r_epik_State_Penalty>  (261) 
-0

>  <r_epik_Charging_Adjusted_Penalty>  (261) 
0

>  <i_epik_Tot_Q>  (261) 
0

>  <i_epik_Tot_abs_Q>  (261) 
0

>  <s_lp_Force_Field>  (261) 
OPLS3e

>  <r_lp_Energy>  (261) 
120.508

>  <b_lp_Chiralities_Consistent>  (261) 
1

>  <s_lp_Variant>  (261) 
83:0-1

>  <s_i_glide_gridfile>  (261) 
pfpi4k_grid

>  <i_i_glide_lignum>  (261) 
3

>  <i_i_glide_rotatable_bonds>  (261) 
3

>  <r_i_docking_score>  (261) 
-3.38937

>  <r_i_glide_ligand_efficiency>  (261) 
-0.130361

>  <r_i_glide_ligand_efficiency_sa>  (261) 
-0.386193

>  <r_i_glide_ligand_efficiency_ln>  (261) 
-0.795983

>  <r_i_glide_gscore>  (261) 
-3.38937

>  <r_i_glide_lipo>  (261) 
-0.562497

>  <r_i_glide_hbond>  (261) 
-0.425387

>  <r_i_glide_metal>  (261) 
-0

>  <r_i_glide_rewards>  (261) 
-0.97842

>  <r_i_glide_evdw>  (261) 
-13.2749

>  <r_i_glide_ecoul>  (261) 
-5.97079

>  <r_i_glide_erotb>  (261) 
0.150546

>  <r_i_glide_esite>  (261) 
-0.0142503

>  <r_i_glide_emodel>  (261) 
-20.0748

>  <r_i_glide_energy>  (261) 
-19.2457

>  <r_i_glide_einternal>  (261) 
1.40968

>  <r_i_glide_intrahb_reward>  (261) 
-0

>  <i_i_glide_confnum>  (261) 
3

>  <i_i_glide_posenum>  (261) 
2

>  <r_i_glide_eff_state_penalty>  (261) 
0

>  <ligand_id>  (261) 
83

>  <original_smiles>  (261) 
CC1C=C2C(C)(C)C3C=C(C(=O)C23C)C2(C)C(O)C3CC12CC3(C)CO

>  <smiles>  (261) 
[H]OC([H])([H])C1(C([H])([H])[H])C([H])([H])C23C([H])([H])C1([H])C([H])(O[H])C2(C([H])([H])[H])C1=C([H])C2([H])C(C([H])([H])[H])(C1=O)C(=C([H])C3([H])C([H])([H])[H])C2(C([H])([H])[H])C([H])([H])[H]

$$$$
83:0:1
     RDKit          3D

 58 62  0  0  1  0  0  0  0  0999 V2000
    2.4070    0.0613    2.2073 C   0  0  0  0  0  0  0  0  0  0  0  0
    3.4274   -1.0368    1.8478 C   0  0  2  0  0  0  0  0  0  0  0  0
    3.6918   -1.0776    0.3178 C   0  0  0  0  0  0  0  0  0  0  0  0
    3.4907   -1.9695   -0.6931 C   0  0  0  0  0  0  0  0  0  0  0  0
    4.4261   -2.1909   -1.8997 C   0  0  0  0  0  0  0  0  0  0  0  0
    3.8441   -1.8011   -3.2691 C   0  0  0  0  0  0  0  0  0  0  0  0
    5.7936   -1.5414   -1.7689 C   0  0  0  0  0  0  0  0  0  0  0  0
    4.3071   -3.6660   -1.4230 C   0  0  1  0  0  0  0  0  0  0  0  0
    5.0565   -4.0406   -0.1229 C   0  0  0  0  0  0  0  0  0  0  0  0
    4.2288   -4.1627    0.9259 C   0  0  0  0  0  0  0  0  0  0  0  0
    2.8992   -4.2506    0.3584 C   0  0  0  0  0  0  0  0  0  0  0  0
    2.0884   -5.0895    0.7166 O   0  0  0  0  0  0  0  0  0  0  0  0
    2.9043   -3.4209   -0.8447 C   0  0  1  0  0  0  0  0  0  0  0  0
    1.6349   -3.5761   -1.6998 C   0  0  0  0  0  0  0  0  0  0  0  0
    4.3991   -3.5176    2.3214 C   0  0  2  0  0  0  0  0  0  0  0  0
    5.8562   -2.9576    2.3495 C   0  0  0  0  0  0  0  0  0  0  0  0
    4.1431   -4.5017    3.5018 C   0  0  1  0  0  0  0  0  0  0  0  0
    5.3294   -4.9445    4.1321 O   0  0  0  0  0  0  0  0  0  0  0  0
    3.2870   -3.6857    4.5261 C   0  0  1  0  0  0  0  0  0  0  0  0
    3.6809   -2.2400    4.1836 C   0  0  0  0  0  0  0  0  0  0  0  0
    3.3342   -2.3734    2.6858 C   0  0  1  0  0  0  0  0  0  0  0  0
    1.8305   -2.8154    2.9046 C   0  0  0  0  0  0  0  0  0  0  0  0
    1.7775   -3.6925    4.1826 C   0  0  1  0  0  0  0  0  0  0  0  0
    1.1987   -5.1124    3.9233 C   0  0  0  0  0  0  0  0  0  0  0  0
    0.8895   -3.1243    5.3451 C   0  0  0  0  0  0  0  0  0  0  0  0
    0.7859   -1.7240    5.4816 O   0  0  0  0  0  0  0  0  0  0  0  0
    2.7462    1.0439    1.8833 H   0  0  0  0  0  0  0  0  0  0  0  0
    2.2606    0.1426    3.2838 H   0  0  0  0  0  0  0  0  0  0  0  0
    1.4344   -0.1054    1.7544 H   0  0  0  0  0  0  0  0  0  0  0  0
    4.3608   -0.6158    2.2101 H   0  0  0  0  0  0  0  0  0  0  0  0
    4.3209   -0.2391    0.0365 H   0  0  0  0  0  0  0  0  0  0  0  0
    4.4869   -2.1598   -4.0773 H   0  0  0  0  0  0  0  0  0  0  0  0
    3.7477   -0.7211   -3.3895 H   0  0  0  0  0  0  0  0  0  0  0  0
    2.8704   -2.2337   -3.4808 H   0  0  0  0  0  0  0  0  0  0  0  0
    6.4922   -2.0800   -2.4132 H   0  0  0  0  0  0  0  0  0  0  0  0
    6.2116   -1.6193   -0.7650 H   0  0  0  0  0  0  0  0  0  0  0  0
    5.7701   -0.4876   -2.0441 H   0  0  0  0  0  0  0  0  0  0  0  0
    4.3591   -4.3930   -2.2299 H   0  0  0  0  0  0  0  0  0  0  0  0
    6.0952   -3.7659   -0.0208 H   0  0  0  0  0  0  0  0  0  0  0  0
    0.8006   -4.0064   -1.1477 H   0  0  0  0  0  0  0  0  0  0  0  0
    1.8190   -4.2562   -2.5337 H   0  0  0  0  0  0  0  0  0  0  0  0
    1.2767   -2.6727   -2.1447 H   0  0  0  0  0  0  0  0  0  0  0  0
    6.1853   -2.6142    3.3177 H   0  0  0  0  0  0  0  0  0  0  0  0
    6.0082   -2.1180    1.6682 H   0  0  0  0  0  0  0  0  0  0  0  0
    6.5821   -3.7293    2.0843 H   0  0  0  0  0  0  0  0  0  0  0  0
    3.6484   -5.4088    3.1481 H   0  0  0  0  0  0  0  0  0  0  0  0
    5.7692   -5.5226    3.5418 H   0  0  0  0  0  0  0  0  0  0  0  0
    3.4657   -3.9886    5.5579 H   0  0  0  0  0  0  0  0  0  0  0  0
    3.1107   -1.4677    4.6762 H   0  0  0  0  0  0  0  0  0  0  0  0
    4.7092   -2.0170    4.4581 H   0  0  0  0  0  0  0  0  0  0  0  0
    1.1707   -1.9555    3.0030 H   0  0  0  0  0  0  0  0  0  0  0  0
    1.3957   -3.3266    2.0818 H   0  0  0  0  0  0  0  0  0  0  0  0
    0.1221   -5.0951    3.7732 H   0  0  0  0  0  0  0  0  0  0  0  0
    1.3810   -5.7746    4.7694 H   0  0  0  0  0  0  0  0  0  0  0  0
    1.5860   -5.6156    3.0443 H   0  0  0  0  0  0  0  0  0  0  0  0
   -0.1468   -3.4388    5.2046 H   0  0  0  0  0  0  0  0  0  0  0  0
    1.2276   -3.5267    6.3012 H   0  0  0  0  0  0  0  0  0  0  0  0
    1.6364   -1.3425    5.3078 H   0  0  0  0  0  0  0  0  0  0  0  0
  1  2  1  0
  1 27  1  0
  1 28  1  0
  1 29  1  0
  2 21  1  0
  2  3  1  0
  2 30  1  1
  3  4  2  3
  3 31  1  0
  4 13  1  0
  4  5  1  0
  5  6  1  0
  5  7  1  0
  5  8  1  0
  6 32  1  0
  6 33  1  0
  6 34  1  0
  7 35  1  0
  7 36  1  0
  7 37  1  0
  8 13  1  0
  8  9  1  0
  8 38  1  6
  9 10  2  0
  9 39  1  0
 10 11  1  0
 10 15  1  0
 11 12  2  0
 11 13  1  0
 13 14  1  6
 14 40  1  0
 14 41  1  0
 14 42  1  0
 15 21  1  0
 15 16  1  6
 15 17  1  0
 16 43  1  0
 16 44  1  0
 16 45  1  0
 17 18  1  0
 17 19  1  0
 17 46  1  6
 18 47  1  0
 19 23  1  0
 19 20  1  0
 19 48  1  1
 20 21  1  0
 20 49  1  0
 20 50  1  0
 21 22  1  1
 22 23  1  0
 22 51  1  0
 22 52  1  0
 23 24  1  6
 23 25  1  0
 24 53  1  0
 24 54  1  0
 24 55  1  0
 25 26  1  0
 25 56  1  0
 25 57  1  0
 26 58  1  0
M  END
>  <i_m_ct_stereo_status>  (262) 
1

>  <s_m_source_file>  (262) 
/var/tmp/pbs.5076255.sched01/tmp4tnmxshi/11480k6dy83.sdf

>  <i_m_source_file_index>  (262) 
3

>  <i_lp_mmshare_version>  (262) 
48012

>  <i_f3d_flags>  (262) 
0

>  <s_epik_input>  (262) 
W0NIM11bQ0BASF0xL1tDSF09QygvQzIoW0NIM10pW0NIM10pW0NAQF0oQzM9TykoW0NIM10pW0NAQEhdMltDSF09QzNbQ0BdKFtDQF0xNDUpKFtDSDNdKVtDQEBIXShbT0hdKVtDQEBIXShbQ0gyXTQpW0NAQF0oW0NIMl01KShbQ0gzXSlbQ0gyXVtPSF0=

>  <s_epik_cmdline>  (262) 
J2VwaWtfcHl0aG9uJywgJy1waHQnLCAnMi4wJywgJy1waCcsICc3LjAnLCAnLXRuJywgJzgnLCAnLW1hJywgJzIwMCcsICctaW1hZScsICc8aW5maWxlLm1hZT4nLCAnLW9tYWUnLCAnPG91dGZpbGUubWFlPic=

>  <r_lp_tautomer_probability>  (262) 
1

>  <r_epik_Ionization_Penalty>  (262) 
8.1826e-07

>  <r_epik_Ionization_Penalty_Charging>  (262) 
0

>  <r_epik_Ionization_Penalty_Neutral>  (262) 
8.1826e-07

>  <r_epik_State_Penalty>  (262) 
-0

>  <r_epik_Charging_Adjusted_Penalty>  (262) 
0

>  <i_epik_Tot_Q>  (262) 
0

>  <i_epik_Tot_abs_Q>  (262) 
0

>  <s_lp_Force_Field>  (262) 
OPLS3e

>  <r_lp_Energy>  (262) 
120.508

>  <b_lp_Chiralities_Consistent>  (262) 
1

>  <s_lp_Variant>  (262) 
83:0-1

>  <s_i_glide_gridfile>  (262) 
pfpi4k_grid

>  <i_i_glide_lignum>  (262) 
3

>  <i_i_glide_rotatable_bonds>  (262) 
3

>  <r_i_docking_score>  (262) 
-2.33071

>  <r_i_glide_ligand_efficiency>  (262) 
-0.0896429

>  <r_i_glide_ligand_efficiency_sa>  (262) 
-0.265567

>  <r_i_glide_ligand_efficiency_ln>  (262) 
-0.547361

>  <r_i_glide_gscore>  (262) 
-2.33071

>  <r_i_glide_lipo>  (262) 
-0.269455

>  <r_i_glide_hbond>  (262) 
-0.042937

>  <r_i_glide_metal>  (262) 
-0

>  <r_i_glide_rewards>  (262) 
-0.97842

>  <r_i_glide_evdw>  (262) 
-17.7216

>  <r_i_glide_ecoul>  (262) 
-1.87703

>  <r_i_glide_erotb>  (262) 
0.150546

>  <r_i_glide_esite>  (262) 
-0.0228152

>  <r_i_glide_emodel>  (262) 
-17.6077

>  <r_i_glide_energy>  (262) 
-19.5986

>  <r_i_glide_einternal>  (262) 
6.27205

>  <r_i_glide_intrahb_reward>  (262) 
-0

>  <i_i_glide_confnum>  (262) 
6

>  <i_i_glide_posenum>  (262) 
17

>  <r_i_glide_eff_state_penalty>  (262) 
0

>  <ligand_id>  (262) 
83

>  <original_smiles>  (262) 
CC1C=C2C(C)(C)C3C=C(C(=O)C23C)C2(C)C(O)C3CC12CC3(C)CO

>  <smiles>  (262) 
[H]OC([H])([H])C1(C([H])([H])[H])C([H])([H])C23C([H])([H])C1([H])C([H])(O[H])C2(C([H])([H])[H])C1=C([H])C2([H])C(C([H])([H])[H])(C1=O)C(=C([H])C3([H])C([H])([H])[H])C2(C([H])([H])[H])C([H])([H])[H]

$$$$
83:0:2
     RDKit          3D

 58 62  0  0  1  0  0  0  0  0999 V2000
    2.5129   -0.9922    2.8030 C   0  0  0  0  0  0  0  0  0  0  0  0
    3.5684   -1.7823    2.0132 C   0  0  2  0  0  0  0  0  0  0  0  0
    3.4252   -1.5353    0.4911 C   0  0  0  0  0  0  0  0  0  0  0  0
    3.1330   -2.3146   -0.5945 C   0  0  0  0  0  0  0  0  0  0  0  0
    3.7123   -2.1528   -2.0144 C   0  0  0  0  0  0  0  0  0  0  0  0
    2.7159   -1.7171   -3.0981 C   0  0  0  0  0  0  0  0  0  0  0  0
    4.8964   -1.2139   -2.1089 C   0  0  0  0  0  0  0  0  0  0  0  0
    3.9854   -3.6738   -1.8178 C   0  0  1  0  0  0  0  0  0  0  0  0
    5.1061   -4.0602   -0.8300 C   0  0  0  0  0  0  0  0  0  0  0  0
    4.6083   -4.5146    0.3462 C   0  0  0  0  0  0  0  0  0  0  0  0
    3.2227   -4.7776    0.1187 C   0  0  0  0  0  0  0  0  0  0  0  0
    2.6436   -5.7846    0.5305 O   0  0  0  0  0  0  0  0  0  0  0  0
    2.7652   -3.8075   -0.8779 C   0  0  1  0  0  0  0  0  0  0  0  0
    1.3606   -4.0932   -1.3778 C   0  0  0  0  0  0  0  0  0  0  0  0
    5.0377   -4.0228    1.7427 C   0  0  2  0  0  0  0  0  0  0  0  0
    6.3048   -3.1536    1.4985 C   0  0  0  0  0  0  0  0  0  0  0  0
    5.2993   -5.1898    2.7377 C   0  0  1  0  0  0  0  0  0  0  0  0
    6.6625   -5.4492    2.9610 O   0  0  0  0  0  0  0  0  0  0  0  0
    4.6159   -4.7496    4.0758 C   0  0  1  0  0  0  0  0  0  0  0  0
    4.6157   -3.2220    3.9490 C   0  0  0  0  0  0  0  0  0  0  0  0
    3.9216   -3.2144    2.5672 C   0  0  1  0  0  0  0  0  0  0  0  0
    2.6357   -4.0057    3.0559 C   0  0  0  0  0  0  0  0  0  0  0  0
    3.0966   -5.0533    4.0915 C   0  0  1  0  0  0  0  0  0  0  0  0
    2.7496   -6.5255    3.7223 C   0  0  0  0  0  0  0  0  0  0  0  0
    2.4781   -4.7720    5.4955 C   0  0  0  0  0  0  0  0  0  0  0  0
    1.0860   -4.9990    5.5229 O   0  0  0  0  0  0  0  0  0  0  0  0
    2.5755    0.0701    2.5942 H   0  0  0  0  0  0  0  0  0  0  0  0
    2.6605   -1.0879    3.8749 H   0  0  0  0  0  0  0  0  0  0  0  0
    1.5005   -1.3109    2.5801 H   0  0  0  0  0  0  0  0  0  0  0  0
    4.4818   -1.2238    2.2185 H   0  0  0  0  0  0  0  0  0  0  0  0
    3.7989   -0.5612    0.2180 H   0  0  0  0  0  0  0  0  0  0  0  0
    3.1395   -1.7957   -4.1067 H   0  0  0  0  0  0  0  0  0  0  0  0
    2.4233   -0.6751   -2.9571 H   0  0  0  0  0  0  0  0  0  0  0  0
    1.8176   -2.3213   -3.1352 H   0  0  0  0  0  0  0  0  0  0  0  0
    5.4138   -1.4268   -3.0437 H   0  0  0  0  0  0  0  0  0  0  0  0
    5.6069   -1.3403   -1.2898 H   0  0  0  0  0  0  0  0  0  0  0  0
    4.5983   -0.1614   -2.1423 H   0  0  0  0  0  0  0  0  0  0  0  0
    3.9504   -4.2615   -2.7394 H   0  0  0  0  0  0  0  0  0  0  0  0
    6.0546   -3.5718   -0.8939 H   0  0  0  0  0  0  0  0  0  0  0  0
    0.8340   -4.8236   -0.7625 H   0  0  0  0  0  0  0  0  0  0  0  0
    1.4204   -4.5879   -2.3309 H   0  0  0  0  0  0  0  0  0  0  0  0
    0.7279   -3.2084   -1.4915 H   0  0  0  0  0  0  0  0  0  0  0  0
    6.6927   -2.8102    2.4207 H   0  0  0  0  0  0  0  0  0  0  0  0
    6.1233   -2.2375    0.9316 H   0  0  0  0  0  0  0  0  0  0  0  0
    7.1052   -3.7106    0.9935 H   0  0  0  0  0  0  0  0  0  0  0  0
    4.8999   -6.1233    2.3446 H   0  0  0  0  0  0  0  0  0  0  0  0
    6.7116   -6.2231    3.5093 H   0  0  0  0  0  0  0  0  0  0  0  0
    5.1209   -5.1273    4.9683 H   0  0  0  0  0  0  0  0  0  0  0  0
    4.0437   -2.7036    4.7074 H   0  0  0  0  0  0  0  0  0  0  0  0
    5.6046   -2.7875    4.0336 H   0  0  0  0  0  0  0  0  0  0  0  0
    1.9748   -3.3201    3.5790 H   0  0  0  0  0  0  0  0  0  0  0  0
    1.9636   -4.4049    2.3132 H   0  0  0  0  0  0  0  0  0  0  0  0
    1.6878   -6.7431    3.8087 H   0  0  0  0  0  0  0  0  0  0  0  0
    3.2795   -7.2232    4.3706 H   0  0  0  0  0  0  0  0  0  0  0  0
    2.9867   -6.7926    2.6998 H   0  0  0  0  0  0  0  0  0  0  0  0
    2.9631   -5.4310    6.2174 H   0  0  0  0  0  0  0  0  0  0  0  0
    2.6107   -3.7501    5.8589 H   0  0  0  0  0  0  0  0  0  0  0  0
    0.9431   -5.9326    5.4009 H   0  0  0  0  0  0  0  0  0  0  0  0
  1  2  1  0
  1 27  1  0
  1 28  1  0
  1 29  1  0
  2 21  1  0
  2  3  1  0
  2 30  1  1
  3  4  2  3
  3 31  1  0
  4 13  1  0
  4  5  1  0
  5  6  1  0
  5  7  1  0
  5  8  1  0
  6 32  1  0
  6 33  1  0
  6 34  1  0
  7 35  1  0
  7 36  1  0
  7 37  1  0
  8 13  1  0
  8  9  1  0
  8 38  1  6
  9 10  2  0
  9 39  1  0
 10 11  1  0
 10 15  1  0
 11 12  2  0
 11 13  1  0
 13 14  1  6
 14 40  1  0
 14 41  1  0
 14 42  1  0
 15 21  1  0
 15 16  1  6
 15 17  1  0
 16 43  1  0
 16 44  1  0
 16 45  1  0
 17 18  1  0
 17 19  1  0
 17 46  1  6
 18 47  1  0
 19 23  1  0
 19 20  1  0
 19 48  1  1
 20 21  1  0
 20 49  1  0
 20 50  1  0
 21 22  1  1
 22 23  1  0
 22 51  1  0
 22 52  1  0
 23 24  1  6
 23 25  1  0
 24 53  1  0
 24 54  1  0
 24 55  1  0
 25 26  1  0
 25 56  1  0
 25 57  1  0
 26 58  1  0
M  END
>  <i_m_ct_stereo_status>  (263) 
1

>  <s_m_source_file>  (263) 
/var/tmp/pbs.5076255.sched01/tmp4tnmxshi/11480k6dy83.sdf

>  <i_m_source_file_index>  (263) 
3

>  <i_lp_mmshare_version>  (263) 
48012

>  <i_f3d_flags>  (263) 
0

>  <s_epik_input>  (263) 
W0NIM11bQ0BASF0xL1tDSF09QygvQzIoW0NIM10pW0NIM10pW0NAQF0oQzM9TykoW0NIM10pW0NAQEhdMltDSF09QzNbQ0BdKFtDQF0xNDUpKFtDSDNdKVtDQEBIXShbT0hdKVtDQEBIXShbQ0gyXTQpW0NAQF0oW0NIMl01KShbQ0gzXSlbQ0gyXVtPSF0=

>  <s_epik_cmdline>  (263) 
J2VwaWtfcHl0aG9uJywgJy1waHQnLCAnMi4wJywgJy1waCcsICc3LjAnLCAnLXRuJywgJzgnLCAnLW1hJywgJzIwMCcsICctaW1hZScsICc8aW5maWxlLm1hZT4nLCAnLW9tYWUnLCAnPG91dGZpbGUubWFlPic=

>  <r_lp_tautomer_probability>  (263) 
1

>  <r_epik_Ionization_Penalty>  (263) 
8.1826e-07

>  <r_epik_Ionization_Penalty_Charging>  (263) 
0

>  <r_epik_Ionization_Penalty_Neutral>  (263) 
8.1826e-07

>  <r_epik_State_Penalty>  (263) 
-0

>  <r_epik_Charging_Adjusted_Penalty>  (263) 
0

>  <i_epik_Tot_Q>  (263) 
0

>  <i_epik_Tot_abs_Q>  (263) 
0

>  <s_lp_Force_Field>  (263) 
OPLS3e

>  <r_lp_Energy>  (263) 
120.508

>  <b_lp_Chiralities_Consistent>  (263) 
1

>  <s_lp_Variant>  (263) 
83:0-1

>  <s_i_glide_gridfile>  (263) 
pfpi4k_grid

>  <i_i_glide_lignum>  (263) 
3

>  <i_i_glide_rotatable_bonds>  (263) 
3

>  <r_i_docking_score>  (263) 
-1.84363

>  <r_i_glide_ligand_efficiency>  (263) 
-0.0709089

>  <r_i_glide_ligand_efficiency_sa>  (263) 
-0.210067

>  <r_i_glide_ligand_efficiency_ln>  (263) 
-0.432971

>  <r_i_glide_gscore>  (263) 
-1.84363

>  <r_i_glide_lipo>  (263) 
-0.222091

>  <r_i_glide_hbond>  (263) 
0

>  <r_i_glide_metal>  (263) 
-0

>  <r_i_glide_rewards>  (263) 
-0.97842

>  <r_i_glide_evdw>  (263) 
-13.8912

>  <r_i_glide_ecoul>  (263) 
-0.48263

>  <r_i_glide_erotb>  (263) 
0.150546

>  <r_i_glide_esite>  (263) 
-0.0267148

>  <r_i_glide_emodel>  (263) 
-14.8975

>  <r_i_glide_energy>  (263) 
-14.3738

>  <r_i_glide_einternal>  (263) 
0.682382

>  <r_i_glide_intrahb_reward>  (263) 
-0

>  <i_i_glide_confnum>  (263) 
3

>  <i_i_glide_posenum>  (263) 
24

>  <r_i_glide_eff_state_penalty>  (263) 
0

>  <ligand_id>  (263) 
83

>  <original_smiles>  (263) 
CC1C=C2C(C)(C)C3C=C(C(=O)C23C)C2(C)C(O)C3CC12CC3(C)CO

>  <smiles>  (263) 
[H]OC([H])([H])C1(C([H])([H])[H])C([H])([H])C23C([H])([H])C1([H])C([H])(O[H])C2(C([H])([H])[H])C1=C([H])C2([H])C(C([H])([H])[H])(C1=O)C(=C([H])C3([H])C([H])([H])[H])C2(C([H])([H])[H])C([H])([H])[H]

$$$$
83:1:0
     RDKit          3D

 58 62  0  0  1  0  0  0  0  0999 V2000
    2.2338   -5.0862    0.5138 C   0  0  0  0  0  0  0  0  0  0  0  0
    3.1460   -4.0189    1.1490 C   0  0  2  0  0  0  0  0  0  0  0  0
    2.3088   -3.0071    1.9755 C   0  0  0  0  0  0  0  0  0  0  0  0
    2.6184   -2.3803    3.1511 C   0  0  0  0  0  0  0  0  0  0  0  0
    3.3565   -2.8043    4.4483 C   0  0  0  0  0  0  0  0  0  0  0  0
    2.4591   -2.6328    5.6819 C   0  0  0  0  0  0  0  0  0  0  0  0
    3.9052   -4.2357    4.5211 C   0  0  0  0  0  0  0  0  0  0  0  0
    4.3013   -1.6256    4.0966 C   0  0  1  0  0  0  0  0  0  0  0  0
    5.3970   -2.0381    3.1355 C   0  0  0  0  0  0  0  0  0  0  0  0
    5.1630   -1.6996    1.8515 C   0  0  0  0  0  0  0  0  0  0  0  0
    4.0730   -0.7142    1.8860 C   0  0  0  0  0  0  0  0  0  0  0  0
    3.9508    0.1879    1.0736 O   0  0  0  0  0  0  0  0  0  0  0  0
    3.2878   -0.9686    3.1540 C   0  0  1  0  0  0  0  0  0  0  0  0
    2.4447    0.2292    3.5959 C   0  0  0  0  0  0  0  0  0  0  0  0
    5.4080   -2.6705    0.6683 C   0  0  2  0  0  0  0  0  0  0  0  0
    6.3837   -3.8040    1.1714 C   0  0  0  0  0  0  0  0  0  0  0  0
    6.0212   -2.0424   -0.6109 C   0  0  1  0  0  0  0  0  0  0  0  0
    7.4237   -2.1820   -0.7374 O   0  0  0  0  0  0  0  0  0  0  0  0
    5.2655   -2.7534   -1.7846 C   0  0  1  0  0  0  0  0  0  0  0  0
    4.6699   -4.0152   -1.1132 C   0  0  0  0  0  0  0  0  0  0  0  0
    4.0563   -3.2667    0.0710 C   0  0  1  0  0  0  0  0  0  0  0  0
    3.1966   -2.2891   -0.8347 C   0  0  0  0  0  0  0  0  0  0  0  0
    3.9750   -1.9797   -2.1390 C   0  0  1  0  0  0  0  0  0  0  0  0
    4.1611   -0.4598   -2.3630 C   0  0  0  0  0  0  0  0  0  0  0  0
    3.2361   -2.5372   -3.4029 C   0  0  0  0  0  0  0  0  0  0  0  0
    3.6303   -1.9063   -4.6079 O   0  0  0  0  0  0  0  0  0  0  0  0
    1.6662   -5.6209    1.2711 H   0  0  0  0  0  0  0  0  0  0  0  0
    2.8269   -5.8329   -0.0048 H   0  0  0  0  0  0  0  0  0  0  0  0
    1.5393   -4.6926   -0.2254 H   0  0  0  0  0  0  0  0  0  0  0  0
    3.7763   -4.5789    1.8299 H   0  0  0  0  0  0  0  0  0  0  0  0
    1.8258   -2.3150    1.3077 H   0  0  0  0  0  0  0  0  0  0  0  0
    3.0457   -2.6415    6.6040 H   0  0  0  0  0  0  0  0  0  0  0  0
    1.7153   -3.4294    5.7629 H   0  0  0  0  0  0  0  0  0  0  0  0
    1.9086   -1.6948    5.6782 H   0  0  0  0  0  0  0  0  0  0  0  0
    4.4897   -4.3648    5.4331 H   0  0  0  0  0  0  0  0  0  0  0  0
    4.5823   -4.4970    3.7167 H   0  0  0  0  0  0  0  0  0  0  0  0
    3.1101   -4.9848    4.5486 H   0  0  0  0  0  0  0  0  0  0  0  0
    4.6151   -1.0202    4.9491 H   0  0  0  0  0  0  0  0  0  0  0  0
    6.0184   -2.8631    3.4017 H   0  0  0  0  0  0  0  0  0  0  0  0
    1.6559    0.4749    2.8839 H   0  0  0  0  0  0  0  0  0  0  0  0
    3.0845    1.1057    3.6830 H   0  0  0  0  0  0  0  0  0  0  0  0
    1.9928    0.0975    4.5761 H   0  0  0  0  0  0  0  0  0  0  0  0
    6.8461   -4.4032    0.3938 H   0  0  0  0  0  0  0  0  0  0  0  0
    5.9235   -4.5074    1.8650 H   0  0  0  0  0  0  0  0  0  0  0  0
    7.2438   -3.3600    1.6716 H   0  0  0  0  0  0  0  0  0  0  0  0
    5.8476   -0.9735   -0.5805 H   0  0  0  0  0  0  0  0  0  0  0  0
    7.6110   -3.1039   -0.8199 H   0  0  0  0  0  0  0  0  0  0  0  0
    5.8819   -2.9457   -2.6649 H   0  0  0  0  0  0  0  0  0  0  0  0
    3.8955   -4.4798   -1.6936 H   0  0  0  0  0  0  0  0  0  0  0  0
    5.3779   -4.8105   -0.9052 H   0  0  0  0  0  0  0  0  0  0  0  0
    2.2554   -2.7701   -1.0950 H   0  0  0  0  0  0  0  0  0  0  0  0
    2.8971   -1.3683   -0.3600 H   0  0  0  0  0  0  0  0  0  0  0  0
    3.2785   -0.0233   -2.8334 H   0  0  0  0  0  0  0  0  0  0  0  0
    5.0094   -0.2648   -3.0150 H   0  0  0  0  0  0  0  0  0  0  0  0
    4.3140    0.0968   -1.4465 H   0  0  0  0  0  0  0  0  0  0  0  0
    3.3829   -3.6061   -3.5507 H   0  0  0  0  0  0  0  0  0  0  0  0
    2.1593   -2.3755   -3.3163 H   0  0  0  0  0  0  0  0  0  0  0  0
    2.8572   -1.8526   -5.1637 H   0  0  0  0  0  0  0  0  0  0  0  0
  1  2  1  0
  1 27  1  0
  1 28  1  0
  1 29  1  0
  2 21  1  0
  2  3  1  0
  2 30  1  1
  3  4  2  3
  3 31  1  0
  4 13  1  0
  4  5  1  0
  5  6  1  0
  5  7  1  0
  5  8  1  0
  6 32  1  0
  6 33  1  0
  6 34  1  0
  7 35  1  0
  7 36  1  0
  7 37  1  0
  8 13  1  0
  8  9  1  0
  8 38  1  1
  9 10  2  0
  9 39  1  0
 10 11  1  0
 10 15  1  0
 11 12  2  0
 11 13  1  0
 13 14  1  1
 14 40  1  0
 14 41  1  0
 14 42  1  0
 15 21  1  0
 15 16  1  1
 15 17  1  0
 16 43  1  0
 16 44  1  0
 16 45  1  0
 17 18  1  0
 17 19  1  0
 17 46  1  1
 18 47  1  0
 19 23  1  0
 19 20  1  0
 19 48  1  6
 20 21  1  0
 20 49  1  0
 20 50  1  0
 21 22  1  6
 22 23  1  0
 22 51  1  0
 22 52  1  0
 23 24  1  6
 23 25  1  0
 24 53  1  0
 24 54  1  0
 24 55  1  0
 25 26  1  0
 25 56  1  0
 25 57  1  0
 26 58  1  0
M  END
>  <i_m_ct_stereo_status>  (264) 
1

>  <s_m_source_file>  (264) 
/var/tmp/pbs.5076255.sched01/tmp4tnmxshi/11480k6dy83.sdf

>  <i_m_source_file_index>  (264) 
4

>  <i_lp_mmshare_version>  (264) 
48012

>  <i_f3d_flags>  (264) 
0

>  <s_epik_input>  (264) 
W0NIM11bQ0BASF0xL1tDSF09QygvQzIoW0NIM10pW0NIM10pW0NAQF0oQzM9TykoW0NIM10pW0NAQEhdMltDSF09QzNbQ0BdKFtDQF0xNDUpKFtDSDNdKVtDQEBIXShbT0hdKVtDQEBIXShbQ0gyXTQpW0NAQF0oW0NIMl01KShbQ0gzXSlbQ0gyXVtPSF0=

>  <s_epik_cmdline>  (264) 
J2VwaWtfcHl0aG9uJywgJy1waHQnLCAnMi4wJywgJy1waCcsICc3LjAnLCAnLXRuJywgJzgnLCAnLW1hJywgJzIwMCcsICctaW1hZScsICc8aW5maWxlLm1hZT4nLCAnLW9tYWUnLCAnPG91dGZpbGUubWFlPic=

>  <r_lp_tautomer_probability>  (264) 
1

>  <r_epik_Ionization_Penalty>  (264) 
8.1826e-07

>  <r_epik_Ionization_Penalty_Charging>  (264) 
0

>  <r_epik_Ionization_Penalty_Neutral>  (264) 
8.1826e-07

>  <r_epik_State_Penalty>  (264) 
-0

>  <r_epik_Charging_Adjusted_Penalty>  (264) 
0

>  <i_epik_Tot_Q>  (264) 
0

>  <i_epik_Tot_abs_Q>  (264) 
0

>  <s_lp_Force_Field>  (264) 
OPLS3e

>  <r_lp_Energy>  (264) 
130.06

>  <b_lp_Chiralities_Consistent>  (264) 
1

>  <s_lp_Variant>  (264) 
83:0-2

>  <s_i_glide_gridfile>  (264) 
pfpi4k_grid

>  <i_i_glide_lignum>  (264) 
4

>  <i_i_glide_rotatable_bonds>  (264) 
3

>  <r_i_docking_score>  (264) 
-4.44456

>  <r_i_glide_ligand_efficiency>  (264) 
-0.170945

>  <r_i_glide_ligand_efficiency_sa>  (264) 
-0.506422

>  <r_i_glide_ligand_efficiency_ln>  (264) 
-1.04379

>  <r_i_glide_gscore>  (264) 
-4.44456

>  <r_i_glide_lipo>  (264) 
-0.593275

>  <r_i_glide_hbond>  (264) 
-0.76

>  <r_i_glide_metal>  (264) 
-0

>  <r_i_glide_rewards>  (264) 
-1.04017

>  <r_i_glide_evdw>  (264) 
-15.9665

>  <r_i_glide_ecoul>  (264) 
-9.3556

>  <r_i_glide_erotb>  (264) 
0.150546

>  <r_i_glide_esite>  (264) 
0

>  <r_i_glide_emodel>  (264) 
-29.3562

>  <r_i_glide_energy>  (264) 
-25.3221

>  <r_i_glide_einternal>  (264) 
3.19767

>  <r_i_glide_intrahb_reward>  (264) 
-0

>  <i_i_glide_confnum>  (264) 
2

>  <i_i_glide_posenum>  (264) 
33

>  <r_i_glide_eff_state_penalty>  (264) 
0

>  <ligand_id>  (264) 
83

>  <original_smiles>  (264) 
CC1C=C2C(C)(C)C3C=C(C(=O)C23C)C2(C)C(O)C3CC12CC3(C)CO

>  <smiles>  (264) 
[H]OC([H])([H])C1(C([H])([H])[H])C([H])([H])C23C([H])([H])C1([H])C([H])(O[H])C2(C([H])([H])[H])C1=C([H])C2([H])C(C([H])([H])[H])(C1=O)C(=C([H])C3([H])C([H])([H])[H])C2(C([H])([H])[H])C([H])([H])[H]

$$$$
83:1:1
     RDKit          3D

 58 62  0  0  1  0  0  0  0  0999 V2000
    1.9679   -4.9924   -0.0114 C   0  0  0  0  0  0  0  0  0  0  0  0
    3.0142   -4.2063    0.7949 C   0  0  2  0  0  0  0  0  0  0  0  0
    2.3102   -3.2451    1.8032 C   0  0  0  0  0  0  0  0  0  0  0  0
    2.6563   -2.8987    3.0654 C   0  0  0  0  0  0  0  0  0  0  0  0
    3.3069   -3.6592    4.2600 C   0  0  0  0  0  0  0  0  0  0  0  0
    2.4317   -3.5894    5.5149 C   0  0  0  0  0  0  0  0  0  0  0  0
    3.6505   -5.1514    4.0645 C   0  0  0  0  0  0  0  0  0  0  0  0
    4.4120   -2.5923    4.1212 C   0  0  1  0  0  0  0  0  0  0  0  0
    5.4127   -3.0027    3.0812 C   0  0  0  0  0  0  0  0  0  0  0  0
    5.2973   -2.3821    1.8947 C   0  0  0  0  0  0  0  0  0  0  0  0
    4.3792   -1.2658    2.1158 C   0  0  0  0  0  0  0  0  0  0  0  0
    4.4491   -0.1999    1.4979 O   0  0  0  0  0  0  0  0  0  0  0  0
    3.5308   -1.6247    3.3230 C   0  0  1  0  0  0  0  0  0  0  0  0
    2.8771   -0.4184    3.9868 C   0  0  0  0  0  0  0  0  0  0  0  0
    5.4491   -3.1352    0.5531 C   0  0  2  0  0  0  0  0  0  0  0  0
    6.2465   -4.4735    0.8420 C   0  0  0  0  0  0  0  0  0  0  0  0
    6.1711   -2.3725   -0.5950 C   0  0  1  0  0  0  0  0  0  0  0  0
    7.5402   -2.6967   -0.7781 O   0  0  0  0  0  0  0  0  0  0  0  0
    5.3499   -2.7505   -1.8705 C   0  0  1  0  0  0  0  0  0  0  0  0
    4.5583   -4.0067   -1.4477 C   0  0  0  0  0  0  0  0  0  0  0  0
    4.0394   -3.4125   -0.1364 C   0  0  1  0  0  0  0  0  0  0  0  0
    3.3439   -2.1763   -0.8397 C   0  0  0  0  0  0  0  0  0  0  0  0
    4.1778   -1.7708   -2.0736 C   0  0  1  0  0  0  0  0  0  0  0  0
    4.5601   -0.2996   -2.0233 C   0  0  0  0  0  0  0  0  0  0  0  0
    3.4065   -1.9646   -3.4146 C   0  0  0  0  0  0  0  0  0  0  0  0
    4.1282   -1.4507   -4.5146 O   0  0  0  0  0  0  0  0  0  0  0  0
    1.3075   -5.5681    0.6330 H   0  0  0  0  0  0  0  0  0  0  0  0
    2.4513   -5.7211   -0.6349 H   0  0  0  0  0  0  0  0  0  0  0  0
    1.3867   -4.3886   -0.7075 H   0  0  0  0  0  0  0  0  0  0  0  0
    3.5435   -4.9687    1.3562 H   0  0  0  0  0  0  0  0  0  0  0  0
    1.9264   -2.3892    1.2672 H   0  0  0  0  0  0  0  0  0  0  0  0
    3.0000   -3.8553    6.4068 H   0  0  0  0  0  0  0  0  0  0  0  0
    1.5794   -4.2724    5.4506 H   0  0  0  0  0  0  0  0  0  0  0  0
    2.0303   -2.5938    5.6893 H   0  0  0  0  0  0  0  0  0  0  0  0
    4.2010   -5.5223    4.9263 H   0  0  0  0  0  0  0  0  0  0  0  0
    4.2964   -5.3599    3.2224 H   0  0  0  0  0  0  0  0  0  0  0  0
    2.7590   -5.7757    3.9603 H   0  0  0  0  0  0  0  0  0  0  0  0
    4.8179   -2.2159    5.0556 H   0  0  0  0  0  0  0  0  0  0  0  0
    5.9036   -3.9492    3.1883 H   0  0  0  0  0  0  0  0  0  0  0  0
    2.1477    0.0701    3.3353 H   0  0  0  0  0  0  0  0  0  0  0  0
    3.6431    0.3140    4.2236 H   0  0  0  0  0  0  0  0  0  0  0  0
    2.3972   -0.6637    4.9304 H   0  0  0  0  0  0  0  0  0  0  0  0
    6.6370   -4.9673   -0.0381 H   0  0  0  0  0  0  0  0  0  0  0  0
    5.6659   -5.2207    1.3755 H   0  0  0  0  0  0  0  0  0  0  0  0
    7.1396   -4.2723    1.4379 H   0  0  0  0  0  0  0  0  0  0  0  0
    6.1642   -1.3060   -0.3565 H   0  0  0  0  0  0  0  0  0  0  0  0
    7.9710   -2.6121    0.0533 H   0  0  0  0  0  0  0  0  0  0  0  0
    5.9644   -2.8704   -2.7657 H   0  0  0  0  0  0  0  0  0  0  0  0
    3.7528   -4.2375   -2.1237 H   0  0  0  0  0  0  0  0  0  0  0  0
    5.1243   -4.9264   -1.4007 H   0  0  0  0  0  0  0  0  0  0  0  0
    2.3760   -2.4960   -1.2062 H   0  0  0  0  0  0  0  0  0  0  0  0
    3.1151   -1.3144   -0.2198 H   0  0  0  0  0  0  0  0  0  0  0  0
    3.8118    0.3090   -2.5178 H   0  0  0  0  0  0  0  0  0  0  0  0
    5.4351   -0.1330   -2.6225 H   0  0  0  0  0  0  0  0  0  0  0  0
    4.6990    0.0645   -1.0068 H   0  0  0  0  0  0  0  0  0  0  0  0
    3.1716   -2.9909   -3.6735 H   0  0  0  0  0  0  0  0  0  0  0  0
    2.4493   -1.4413   -3.3675 H   0  0  0  0  0  0  0  0  0  0  0  0
    4.0557   -0.5090   -4.4851 H   0  0  0  0  0  0  0  0  0  0  0  0
  1  2  1  0
  1 27  1  0
  1 28  1  0
  1 29  1  0
  2 21  1  0
  2  3  1  0
  2 30  1  1
  3  4  2  3
  3 31  1  0
  4 13  1  0
  4  5  1  0
  5  6  1  0
  5  7  1  0
  5  8  1  0
  6 32  1  0
  6 33  1  0
  6 34  1  0
  7 35  1  0
  7 36  1  0
  7 37  1  0
  8 13  1  0
  8  9  1  0
  8 38  1  1
  9 10  2  0
  9 39  1  0
 10 11  1  0
 10 15  1  0
 11 12  2  0
 11 13  1  0
 13 14  1  1
 14 40  1  0
 14 41  1  0
 14 42  1  0
 15 21  1  0
 15 16  1  1
 15 17  1  0
 16 43  1  0
 16 44  1  0
 16 45  1  0
 17 18  1  0
 17 19  1  0
 17 46  1  1
 18 47  1  0
 19 23  1  0
 19 20  1  0
 19 48  1  6
 20 21  1  0
 20 49  1  0
 20 50  1  0
 21 22  1  6
 22 23  1  0
 22 51  1  0
 22 52  1  0
 23 24  1  1
 23 25  1  0
 24 53  1  0
 24 54  1  0
 24 55  1  0
 25 26  1  0
 25 56  1  0
 25 57  1  0
 26 58  1  0
M  END
>  <i_m_ct_stereo_status>  (265) 
1

>  <s_m_source_file>  (265) 
/var/tmp/pbs.5076255.sched01/tmp4tnmxshi/11480k6dy83.sdf

>  <i_m_source_file_index>  (265) 
4

>  <i_lp_mmshare_version>  (265) 
48012

>  <i_f3d_flags>  (265) 
0

>  <s_epik_input>  (265) 
W0NIM11bQ0BASF0xL1tDSF09QygvQzIoW0NIM10pW0NIM10pW0NAQF0oQzM9TykoW0NIM10pW0NAQEhdMltDSF09QzNbQ0BdKFtDQF0xNDUpKFtDSDNdKVtDQEBIXShbT0hdKVtDQEBIXShbQ0gyXTQpW0NAQF0oW0NIMl01KShbQ0gzXSlbQ0gyXVtPSF0=

>  <s_epik_cmdline>  (265) 
J2VwaWtfcHl0aG9uJywgJy1waHQnLCAnMi4wJywgJy1waCcsICc3LjAnLCAnLXRuJywgJzgnLCAnLW1hJywgJzIwMCcsICctaW1hZScsICc8aW5maWxlLm1hZT4nLCAnLW9tYWUnLCAnPG91dGZpbGUubWFlPic=

>  <r_lp_tautomer_probability>  (265) 
1

>  <r_epik_Ionization_Penalty>  (265) 
8.1826e-07

>  <r_epik_Ionization_Penalty_Charging>  (265) 
0

>  <r_epik_Ionization_Penalty_Neutral>  (265) 
8.1826e-07

>  <r_epik_State_Penalty>  (265) 
-0

>  <r_epik_Charging_Adjusted_Penalty>  (265) 
0

>  <i_epik_Tot_Q>  (265) 
0

>  <i_epik_Tot_abs_Q>  (265) 
0

>  <s_lp_Force_Field>  (265) 
OPLS3e

>  <r_lp_Energy>  (265) 
130.06

>  <b_lp_Chiralities_Consistent>  (265) 
1

>  <s_lp_Variant>  (265) 
83:0-2

>  <s_i_glide_gridfile>  (265) 
pfpi4k_grid

>  <i_i_glide_lignum>  (265) 
4

>  <i_i_glide_rotatable_bonds>  (265) 
3

>  <r_i_docking_score>  (265) 
-3.30213

>  <r_i_glide_ligand_efficiency>  (265) 
-0.127005

>  <r_i_glide_ligand_efficiency_sa>  (265) 
-0.376251

>  <r_i_glide_ligand_efficiency_ln>  (265) 
-0.775494

>  <r_i_glide_gscore>  (265) 
-3.30213

>  <r_i_glide_lipo>  (265) 
-0.483378

>  <r_i_glide_hbond>  (265) 
-0.381862

>  <r_i_glide_metal>  (265) 
-0

>  <r_i_glide_rewards>  (265) 
-1.0188

>  <r_i_glide_evdw>  (265) 
-16.1205

>  <r_i_glide_ecoul>  (265) 
-5.08404

>  <r_i_glide_erotb>  (265) 
0.150546

>  <r_i_glide_esite>  (265) 
0

>  <r_i_glide_emodel>  (265) 
-24.3731

>  <r_i_glide_energy>  (265) 
-21.2046

>  <r_i_glide_einternal>  (265) 
1.18536

>  <r_i_glide_intrahb_reward>  (265) 
-0

>  <i_i_glide_confnum>  (265) 
6

>  <i_i_glide_posenum>  (265) 
29

>  <r_i_glide_eff_state_penalty>  (265) 
0

>  <ligand_id>  (265) 
83

>  <original_smiles>  (265) 
CC1C=C2C(C)(C)C3C=C(C(=O)C23C)C2(C)C(O)C3CC12CC3(C)CO

>  <smiles>  (265) 
[H]OC([H])([H])C1(C([H])([H])[H])C([H])([H])C23C([H])([H])C1([H])C([H])(O[H])C2(C([H])([H])[H])C1=C([H])C2([H])C(C([H])([H])[H])(C1=O)C(=C([H])C3([H])C([H])([H])[H])C2(C([H])([H])[H])C([H])([H])[H]

$$$$
83:1:2
     RDKit          3D

 58 62  0  0  1  0  0  0  0  0999 V2000
    2.5019   -5.4480    0.6641 C   0  0  0  0  0  0  0  0  0  0  0  0
    3.2728   -4.2570    1.2677 C   0  0  2  0  0  0  0  0  0  0  0  0
    2.2989   -3.2583    1.9331 C   0  0  0  0  0  0  0  0  0  0  0  0
    2.4447   -2.5059    3.0651 C   0  0  0  0  0  0  0  0  0  0  0  0
    3.1100   -2.7444    4.4440 C   0  0  0  0  0  0  0  0  0  0  0  0
    2.0944   -2.5635    5.5790 C   0  0  0  0  0  0  0  0  0  0  0  0
    3.7679   -4.1074    4.6761 C   0  0  0  0  0  0  0  0  0  0  0  0
    3.9595   -1.5118    4.0450 C   0  0  1  0  0  0  0  0  0  0  0  0
    5.1613   -1.8985    3.2053 C   0  0  0  0  0  0  0  0  0  0  0  0
    5.0002   -1.6900    1.8815 C   0  0  0  0  0  0  0  0  0  0  0  0
    3.8319   -0.8079    1.7534 C   0  0  0  0  0  0  0  0  0  0  0  0
    3.7267    0.0404    0.8913 O   0  0  0  0  0  0  0  0  0  0  0  0
    2.9740   -1.0375    2.9785 C   0  0  1  0  0  0  0  0  0  0  0  0
    1.9804    0.0948    3.2413 C   0  0  0  0  0  0  0  0  0  0  0  0
    5.4127   -2.7366    0.8104 C   0  0  2  0  0  0  0  0  0  0  0  0
    6.4273   -3.7295    1.4770 C   0  0  0  0  0  0  0  0  0  0  0  0
    6.0625   -2.1582   -0.4757 C   0  0  1  0  0  0  0  0  0  0  0  0
    7.4759   -2.1613   -0.5090 O   0  0  0  0  0  0  0  0  0  0  0  0
    5.4648   -3.0400   -1.6237 C   0  0  1  0  0  0  0  0  0  0  0  0
    4.9569   -4.3032   -0.8789 C   0  0  0  0  0  0  0  0  0  0  0  0
    4.1759   -3.5128    0.1831 C   0  0  1  0  0  0  0  0  0  0  0  0
    3.2936   -2.7031   -0.8570 C   0  0  0  0  0  0  0  0  0  0  0  0
    4.1319   -2.4369   -2.1292 C   0  0  1  0  0  0  0  0  0  0  0  0
    4.1916   -0.9310   -2.5057 C   0  0  0  0  0  0  0  0  0  0  0  0
    3.6173   -3.1685   -3.4039 C   0  0  0  0  0  0  0  0  0  0  0  0
    2.2831   -2.8441   -3.7214 O   0  0  0  0  0  0  0  0  0  0  0  0
    1.9292   -5.9727    1.4222 H   0  0  0  0  0  0  0  0  0  0  0  0
    3.1922   -6.1758    0.2464 H   0  0  0  0  0  0  0  0  0  0  0  0
    1.8248   -5.1767   -0.1423 H   0  0  0  0  0  0  0  0  0  0  0  0
    3.8984   -4.7017    2.0324 H   0  0  0  0  0  0  0  0  0  0  0  0
    1.8421   -2.6549    1.1745 H   0  0  0  0  0  0  0  0  0  0  0  0
    2.6014   -2.4369    6.5422 H   0  0  0  0  0  0  0  0  0  0  0  0
    1.4254   -3.4214    5.6760 H   0  0  0  0  0  0  0  0  0  0  0  0
    1.4651   -1.6884    5.4484 H   0  0  0  0  0  0  0  0  0  0  0  0
    4.2904   -4.1083    5.6369 H   0  0  0  0  0  0  0  0  0  0  0  0
    4.5301   -4.3698    3.9509 H   0  0  0  0  0  0  0  0  0  0  0  0
    3.0442   -4.9256    4.7142 H   0  0  0  0  0  0  0  0  0  0  0  0
    4.1488   -0.8076    4.8623 H   0  0  0  0  0  0  0  0  0  0  0  0
    5.8163   -2.6453    3.5894 H   0  0  0  0  0  0  0  0  0  0  0  0
    1.2354    0.2009    2.4530 H   0  0  0  0  0  0  0  0  0  0  0  0
    2.5287    1.0376    3.2941 H   0  0  0  0  0  0  0  0  0  0  0  0
    1.4702    0.0034    4.1956 H   0  0  0  0  0  0  0  0  0  0  0  0
    7.0380   -4.3265    0.8045 H   0  0  0  0  0  0  0  0  0  0  0  0
    5.9886   -4.4199    2.1994 H   0  0  0  0  0  0  0  0  0  0  0  0
    7.1677   -3.1461    2.0000 H   0  0  0  0  0  0  0  0  0  0  0  0
    5.7966   -1.1118   -0.5616 H   0  0  0  0  0  0  0  0  0  0  0  0
    7.7656   -3.0596   -0.4236 H   0  0  0  0  0  0  0  0  0  0  0  0
    6.1673   -3.2365   -2.4371 H   0  0  0  0  0  0  0  0  0  0  0  0
    4.3072   -4.9314   -1.4627 H   0  0  0  0  0  0  0  0  0  0  0  0
    5.7334   -4.9818   -0.5437 H   0  0  0  0  0  0  0  0  0  0  0  0
    2.4294   -3.2990   -1.1307 H   0  0  0  0  0  0  0  0  0  0  0  0
    2.8676   -1.7734   -0.4991 H   0  0  0  0  0  0  0  0  0  0  0  0
    3.3177   -0.6123   -3.0741 H   0  0  0  0  0  0  0  0  0  0  0  0
    5.0480   -0.7222   -3.1340 H   0  0  0  0  0  0  0  0  0  0  0  0
    4.2375   -0.2609   -1.6485 H   0  0  0  0  0  0  0  0  0  0  0  0
    4.2527   -2.8882   -4.2430 H   0  0  0  0  0  0  0  0  0  0  0  0
    3.6713   -4.2479   -3.3594 H   0  0  0  0  0  0  0  0  0  0  0  0
    1.7014   -3.3195   -3.1433 H   0  0  0  0  0  0  0  0  0  0  0  0
  1  2  1  0
  1 27  1  0
  1 28  1  0
  1 29  1  0
  2 21  1  0
  2  3  1  0
  2 30  1  1
  3  4  2  3
  3 31  1  0
  4 13  1  0
  4  5  1  0
  5  6  1  0
  5  7  1  0
  5  8  1  0
  6 32  1  0
  6 33  1  0
  6 34  1  0
  7 35  1  0
  7 36  1  0
  7 37  1  0
  8 13  1  0
  8  9  1  0
  8 38  1  1
  9 10  2  0
  9 39  1  0
 10 11  1  0
 10 15  1  0
 11 12  2  0
 11 13  1  0
 13 14  1  1
 14 40  1  0
 14 41  1  0
 14 42  1  0
 15 21  1  0
 15 16  1  1
 15 17  1  0
 16 43  1  0
 16 44  1  0
 16 45  1  0
 17 18  1  0
 17 19  1  0
 17 46  1  6
 18 47  1  0
 19 23  1  0
 19 20  1  0
 19 48  1  6
 20 21  1  0
 20 49  1  0
 20 50  1  0
 21 22  1  6
 22 23  1  0
 22 51  1  0
 22 52  1  0
 23 24  1  6
 23 25  1  0
 24 53  1  0
 24 54  1  0
 24 55  1  0
 25 26  1  0
 25 56  1  0
 25 57  1  0
 26 58  1  0
M  END
>  <i_m_ct_stereo_status>  (266) 
1

>  <s_m_source_file>  (266) 
/var/tmp/pbs.5076255.sched01/tmp4tnmxshi/11480k6dy83.sdf

>  <i_m_source_file_index>  (266) 
4

>  <i_lp_mmshare_version>  (266) 
48012

>  <i_f3d_flags>  (266) 
0

>  <s_epik_input>  (266) 
W0NIM11bQ0BASF0xL1tDSF09QygvQzIoW0NIM10pW0NIM10pW0NAQF0oQzM9TykoW0NIM10pW0NAQEhdMltDSF09QzNbQ0BdKFtDQF0xNDUpKFtDSDNdKVtDQEBIXShbT0hdKVtDQEBIXShbQ0gyXTQpW0NAQF0oW0NIMl01KShbQ0gzXSlbQ0gyXVtPSF0=

>  <s_epik_cmdline>  (266) 
J2VwaWtfcHl0aG9uJywgJy1waHQnLCAnMi4wJywgJy1waCcsICc3LjAnLCAnLXRuJywgJzgnLCAnLW1hJywgJzIwMCcsICctaW1hZScsICc8aW5maWxlLm1hZT4nLCAnLW9tYWUnLCAnPG91dGZpbGUubWFlPic=

>  <r_lp_tautomer_probability>  (266) 
1

>  <r_epik_Ionization_Penalty>  (266) 
8.1826e-07

>  <r_epik_Ionization_Penalty_Charging>  (266) 
0

>  <r_epik_Ionization_Penalty_Neutral>  (266) 
8.1826e-07

>  <r_epik_State_Penalty>  (266) 
-0

>  <r_epik_Charging_Adjusted_Penalty>  (266) 
0

>  <i_epik_Tot_Q>  (266) 
0

>  <i_epik_Tot_abs_Q>  (266) 
0

>  <s_lp_Force_Field>  (266) 
OPLS3e

>  <r_lp_Energy>  (266) 
130.06

>  <b_lp_Chiralities_Consistent>  (266) 
1

>  <s_lp_Variant>  (266) 
83:0-2

>  <s_i_glide_gridfile>  (266) 
pfpi4k_grid

>  <i_i_glide_lignum>  (266) 
4

>  <i_i_glide_rotatable_bonds>  (266) 
3

>  <r_i_docking_score>  (266) 
-3.07935

>  <r_i_glide_ligand_efficiency>  (266) 
-0.118437

>  <r_i_glide_ligand_efficiency_sa>  (266) 
-0.350868

>  <r_i_glide_ligand_efficiency_ln>  (266) 
-0.723176

>  <r_i_glide_gscore>  (266) 
-3.07935

>  <r_i_glide_lipo>  (266) 
-0.508054

>  <r_i_glide_hbond>  (266) 
-0.165279

>  <r_i_glide_metal>  (266) 
-0

>  <r_i_glide_rewards>  (266) 
-0.98899

>  <r_i_glide_evdw>  (266) 
-20.9319

>  <r_i_glide_ecoul>  (266) 
-3.47322

>  <r_i_glide_erotb>  (266) 
0.150546

>  <r_i_glide_esite>  (266) 
0

>  <r_i_glide_emodel>  (266) 
-27.8722

>  <r_i_glide_energy>  (266) 
-24.4051

>  <r_i_glide_einternal>  (266) 
1.12324

>  <r_i_glide_intrahb_reward>  (266) 
-0

>  <i_i_glide_confnum>  (266) 
2

>  <i_i_glide_posenum>  (266) 
4

>  <r_i_glide_eff_state_penalty>  (266) 
0

>  <ligand_id>  (266) 
83

>  <original_smiles>  (266) 
CC1C=C2C(C)(C)C3C=C(C(=O)C23C)C2(C)C(O)C3CC12CC3(C)CO

>  <smiles>  (266) 
[H]OC([H])([H])C1(C([H])([H])[H])C([H])([H])C23C([H])([H])C1([H])C([H])(O[H])C2(C([H])([H])[H])C1=C([H])C2([H])C(C([H])([H])[H])(C1=O)C(=C([H])C3([H])C([H])([H])[H])C2(C([H])([H])[H])C([H])([H])[H]

$$$$
85:0:0
     RDKit          3D

 68 74  0  0  1  0  0  0  0  0999 V2000
    4.2347   -8.8244    0.4515 C   0  0  0  0  0  0  0  0  0  0  0  0
    4.5481   -7.5362    0.9411 O   0  0  0  0  0  0  0  0  0  0  0  0
    4.2601   -7.2124    2.1941 C   0  0  0  0  0  0  0  0  0  0  0  0
    3.7673   -7.9828    3.0124 O   0  0  0  0  0  0  0  0  0  0  0  0
    4.6152   -5.7407    2.5302 C   0  0  2  0  0  0  0  0  0  0  0  0
    4.7624   -5.5267    4.0469 C   0  0  0  0  0  0  0  0  0  0  0  0
    4.2900   -4.1171    4.3156 C   0  0  1  0  0  0  0  0  0  0  0  0
    5.2048   -3.4757    5.1732 O   0  0  0  0  0  0  0  0  0  0  0  0
    4.1215   -3.4072    2.9406 C   0  0  2  0  0  0  0  0  0  0  0  0
    3.3841   -1.9942    3.0714 C   0  0  0  0  0  0  0  0  0  0  0  0
    2.4872   -1.5691    1.8917 C   0  0  0  0  0  0  0  0  0  0  0  0
    2.4320   -1.9197    4.3060 C   0  0  0  0  0  0  0  0  0  0  0  0
    4.4572   -0.8785    3.2718 C   0  0  0  0  0  0  0  0  0  0  0  0
    5.3247   -0.4213    2.0599 C   0  0  0  0  0  0  0  0  0  0  0  0
    6.5427   -1.2823    1.6344 C   0  0  0  0  0  0  0  0  0  0  0  0
    6.4608   -2.3393    0.5406 C   0  0  2  0  0  0  0  0  0  0  0  0
    6.8698   -3.6874    0.8749 O   0  0  0  0  0  0  0  0  0  0  0  0
    7.8165   -2.9075    0.1521 C   0  0  1  0  0  0  0  0  0  0  0  0
    7.9450   -3.1684   -1.2237 O   0  0  0  0  0  0  0  0  0  0  0  0
    5.2966   -2.2505   -0.4338 C   0  0  1  0  0  0  0  0  0  0  0  0
    5.1228   -3.2178   -1.5658 C   0  0  2  0  0  0  0  0  0  0  0  0
    4.8531   -2.5264   -2.7952 O   0  0  0  0  0  0  0  0  0  0  0  0
    3.5014   -2.0931   -2.9651 C   0  0  1  0  0  0  0  0  0  0  0  0
    3.3421   -1.3655   -4.2799 C   0  0  0  0  0  0  0  0  0  0  0  0
    2.5323   -3.2293   -2.6275 C   0  0  0  0  0  0  0  0  0  0  0  0
    2.7634   -2.6986   -1.2005 C   0  0  2  0  0  0  0  0  0  0  0  0
    3.0180   -1.3823   -1.8032 O   0  0  0  0  0  0  0  0  0  0  0  0
    4.0516   -3.1684   -0.4746 C   0  0  2  0  0  0  0  0  0  0  0  0
    3.9104   -4.4792    0.3797 C   0  0  2  0  0  0  0  0  0  0  0  0
    2.7670   -5.3688   -0.1435 C   0  0  0  0  0  0  0  0  0  0  0  0
    1.7866   -5.4064    0.8856 O   0  0  0  0  0  0  0  0  0  0  0  0
    2.2430   -4.9458    2.0410 C   0  0  0  0  0  0  0  0  0  0  0  0
    1.5486   -4.8421    3.0606 O   0  0  0  0  0  0  0  0  0  0  0  0
    3.7116   -4.5654    1.9432 C   0  0  1  0  0  0  0  0  0  0  0  0
    4.3015   -8.7584   -0.6289 H   0  0  0  0  0  0  0  0  0  0  0  0
    3.2089   -9.0739    0.6892 H   0  0  0  0  0  0  0  0  0  0  0  0
    4.8883   -9.6321    0.8143 H   0  0  0  0  0  0  0  0  0  0  0  0
    5.6093   -5.6020    2.1132 H   0  0  0  0  0  0  0  0  0  0  0  0
    4.1754   -6.2158    4.6573 H   0  0  0  0  0  0  0  0  0  0  0  0
    5.8147   -5.6679    4.3270 H   0  0  0  0  0  0  0  0  0  0  0  0
    3.3270   -4.2218    4.8365 H   0  0  0  0  0  0  0  0  0  0  0  0
    4.8257   -2.6545    5.4461 H   0  0  0  0  0  0  0  0  0  0  0  0
    5.1469   -3.1877    2.6537 H   0  0  0  0  0  0  0  0  0  0  0  0
    1.9764   -0.6293    2.1049 H   0  0  0  0  0  0  0  0  0  0  0  0
    1.7064   -2.2969    1.6818 H   0  0  0  0  0  0  0  0  0  0  0  0
    3.0427   -1.3801    0.9906 H   0  0  0  0  0  0  0  0  0  0  0  0
    1.9029   -0.9678    4.3480 H   0  0  0  0  0  0  0  0  0  0  0  0
    2.9573   -2.0057    5.2550 H   0  0  0  0  0  0  0  0  0  0  0  0
    1.6624   -2.6891    4.2766 H   0  0  0  0  0  0  0  0  0  0  0  0
    3.9208    0.0172    3.6073 H   0  0  0  0  0  0  0  0  0  0  0  0
    5.0934   -1.1148    4.1266 H   0  0  0  0  0  0  0  0  0  0  0  0
    4.7248   -0.0689    1.2262 H   0  0  0  0  0  0  0  0  0  0  0  0
    5.7948    0.4723    2.4559 H   0  0  0  0  0  0  0  0  0  0  0  0
    7.3784   -0.6562    1.3220 H   0  0  0  0  0  0  0  0  0  0  0  0
    6.8344   -1.8222    2.5059 H   0  0  0  0  0  0  0  0  0  0  0  0
    8.7216   -2.6745    0.6971 H   0  0  0  0  0  0  0  0  0  0  0  0
    8.8194   -3.4573   -1.3987 H   0  0  0  0  0  0  0  0  0  0  0  0
    5.0791   -1.2073   -0.6806 H   0  0  0  0  0  0  0  0  0  0  0  0
    5.6988   -4.1430   -1.6678 H   0  0  0  0  0  0  0  0  0  0  0  0
    4.0243   -0.5180   -4.3332 H   0  0  0  0  0  0  0  0  0  0  0  0
    2.3202   -1.0137   -4.4241 H   0  0  0  0  0  0  0  0  0  0  0  0
    3.5675   -2.0408   -5.1064 H   0  0  0  0  0  0  0  0  0  0  0  0
    1.5155   -3.0655   -2.9747 H   0  0  0  0  0  0  0  0  0  0  0  0
    2.9389   -4.1878   -2.9173 H   0  0  0  0  0  0  0  0  0  0  0  0
    1.8657   -2.7429   -0.5885 H   0  0  0  0  0  0  0  0  0  0  0  0
    4.8346   -5.0077    0.1602 H   0  0  0  0  0  0  0  0  0  0  0  0
    2.2713   -4.9953   -0.9986 H   0  0  0  0  0  0  0  0  0  0  0  0
    3.1407   -6.3935   -0.2931 H   0  0  0  0  0  0  0  0  0  0  0  0
  1  2  1  0
  1 35  1  0
  1 36  1  0
  1 37  1  0
  2  3  1  0
  3  4  2  0
  3  5  1  0
  5 34  1  0
  5  6  1  0
  5 38  1  6
  6  7  1  0
  6 39  1  0
  6 40  1  0
  7  8  1  0
  7  9  1  0
  7 41  1  1
  8 42  1  0
  9 34  1  0
  9 10  1  0
  9 43  1  6
 10 11  1  0
 10 12  1  0
 10 13  1  0
 11 44  1  0
 11 45  1  0
 11 46  1  0
 12 47  1  0
 12 48  1  0
 12 49  1  0
 13 14  1  0
 13 50  1  0
 13 51  1  0
 14 15  1  0
 14 52  1  0
 14 53  1  0
 15 16  1  0
 15 54  1  0
 15 55  1  0
 16 18  1  0
 16 17  1  1
 16 20  1  0
 17 18  1  0
 18 19  1  0
 18 56  1  1
 19 57  1  0
 20 28  1  0
 20 21  1  0
 20 58  1  6
 21 28  1  0
 21 22  1  0
 21 59  1  6
 22 23  1  0
 23 27  1  0
 23 24  1  6
 23 25  1  0
 24 60  1  0
 24 61  1  0
 24 62  1  0
 25 26  1  0
 25 63  1  0
 25 64  1  0
 26 27  1  0
 28 26  1  6
 26 65  1  1
 28 29  1  0
 29 34  1  0
 29 30  1  0
 29 66  1  1
 30 31  1  0
 30 67  1  0
 30 68  1  0
 31 32  1  0
 32 33  2  0
 34 32  1  6
M  END
>  <i_m_ct_stereo_status>  (267) 
1

>  <s_m_source_file>  (267) 
/var/tmp/pbs.5076255.sched01/tmp4tnmxshi/11480k6dy83.sdf

>  <i_m_source_file_index>  (267) 
6

>  <i_lp_mmshare_version>  (267) 
48012

>  <i_f3d_flags>  (267) 
0

>  <s_epik_input>  (267) 
W0NIM11PQyg9TylbQ0BASF0xW0NIMl1bQ0BASF0oW09IXSlbQ0BIXShDKFtDSDNdKShbQ0gzXSlbQ0gyXVtDSDJdW0NIMl0yKVtDQEBdMShDKD1PKU9bQ0gyXTMpW0NAQEhdM1tDQEBdNChbQ0BIXTVbQ0BdMjZPW0NASF02W09IXSlbQ0BIXTVPW0NAQF03KFtDSDNdKVtDSDJdW0NAQEhdNE83

>  <s_epik_cmdline>  (267) 
J2VwaWtfcHl0aG9uJywgJy1waHQnLCAnMi4wJywgJy1waCcsICc3LjAnLCAnLXRuJywgJzgnLCAnLW1hJywgJzIwMCcsICctaW1hZScsICc8aW5maWxlLm1hZT4nLCAnLW9tYWUnLCAnPG91dGZpbGUubWFlPic=

>  <r_lp_tautomer_probability>  (267) 
1

>  <r_epik_Ionization_Penalty>  (267) 
1.15593e-07

>  <r_epik_Ionization_Penalty_Charging>  (267) 
0

>  <r_epik_Ionization_Penalty_Neutral>  (267) 
1.15593e-07

>  <r_epik_State_Penalty>  (267) 
-0

>  <r_epik_Charging_Adjusted_Penalty>  (267) 
0

>  <i_epik_Tot_Q>  (267) 
0

>  <i_epik_Tot_abs_Q>  (267) 
0

>  <s_epik_Chemistry_Notes>  (267) 
This compound has an ester and may undergo hydrolysis at high or low pH. This compound contains an acetal/aminal-like group ( X-CH(R)-Y where X, Y are N, S, or O) that may be acid/base labile, releasing an aldehyde.

>  <s_lp_Force_Field>  (267) 
OPLS3e

>  <r_lp_Energy>  (267) 
76.6805

>  <b_lp_Chiralities_Consistent>  (267) 
1

>  <s_lp_Variant>  (267) 
85:0-1

>  <s_i_glide_gridfile>  (267) 
pfpi4k_grid

>  <i_i_glide_lignum>  (267) 
6

>  <i_i_glide_rotatable_bonds>  (267) 
4

>  <r_i_docking_score>  (267) 
-2.25184

>  <r_i_glide_ligand_efficiency>  (267) 
-0.0662307

>  <r_i_glide_ligand_efficiency_sa>  (267) 
-0.214562

>  <r_i_glide_ligand_efficiency_ln>  (267) 
-0.497496

>  <r_i_glide_gscore>  (267) 
-2.25184

>  <r_i_glide_lipo>  (267) 
-0.545448

>  <r_i_glide_hbond>  (267) 
-0.102829

>  <r_i_glide_metal>  (267) 
-0

>  <r_i_glide_rewards>  (267) 
-0.445449

>  <r_i_glide_evdw>  (267) 
-18.2208

>  <r_i_glide_ecoul>  (267) 
-2.10621

>  <r_i_glide_erotb>  (267) 
0.0884968

>  <r_i_glide_esite>  (267) 
-0.0196455

>  <r_i_glide_emodel>  (267) 
-17.756

>  <r_i_glide_energy>  (267) 
-20.327

>  <r_i_glide_einternal>  (267) 
2.60639

>  <r_i_glide_intrahb_reward>  (267) 
-0

>  <i_i_glide_confnum>  (267) 
2

>  <i_i_glide_posenum>  (267) 
22

>  <r_i_glide_eff_state_penalty>  (267) 
0

>  <ligand_id>  (267) 
85

>  <original_smiles>  (267) 
COC(=O)C1CC(O)C2C(C)(C)CCCC3(OC3O)C3C4OC5(C)CC(O5)C43C3COC(=O)C123

>  <smiles>  (267) 
[H]OC1([H])OC12C([H])([H])C([H])([H])C([H])([H])C(C([H])([H])[H])(C([H])([H])[H])C1([H])C([H])(O[H])C([H])([H])C([H])(C(=O)OC([H])([H])[H])C13C(=O)OC([H])([H])C3([H])C13C4([H])OC(C([H])([H])[H])(OC1([H])C23[H])C4([H])[H]

$$$$
86:1:0
     RDKit          3D

 59 64  0  0  1  0  0  0  0  0999 V2000
   -1.6498    1.8910    4.4539 C   0  0  0  0  0  0  0  0  0  0  0  0
   -0.8336    1.1955    5.5771 C   0  0  1  0  0  0  0  0  0  0  0  0
   -1.0108    2.1384    6.7888 C   0  0  0  0  0  0  0  0  0  0  0  0
   -1.9320    1.9819    7.5961 O   0  0  0  0  0  0  0  0  0  0  0  0
   -1.4412   -0.1756    5.9433 C   0  0  0  0  0  0  0  0  0  0  0  0
   -1.2324   -1.2391    4.8765 C   0  0  0  0  0  0  0  0  0  0  0  0
    0.2347   -1.4047    4.4505 C   0  0  0  0  0  0  0  0  0  0  0  0
    0.9688   -0.0982    4.0475 C   0  0  1  0  0  0  0  0  0  0  0  0
    0.4249    0.3907    2.6771 C   0  0  0  0  0  0  0  0  0  0  0  0
    0.6894    0.9709    5.2061 C   0  0  2  0  0  0  0  0  0  0  0  0
    1.5595    0.6517    6.4655 C   0  0  0  0  0  0  0  0  0  0  0  0
    3.0549    0.7817    6.1848 C   0  0  0  0  0  0  0  0  0  0  0  0
    3.4839   -0.1100    5.0398 C   0  0  2  0  0  0  0  0  0  0  0  0
    4.5327    0.4089    4.0359 C   0  0  1  0  0  0  0  0  0  0  0  0
    5.3372   -0.6483    3.2802 C   0  0  0  0  0  0  0  0  0  0  0  0
    4.3775   -1.4164    2.3535 C   0  0  1  0  0  0  0  0  0  0  0  0
    4.7161   -2.8692    2.0477 C   0  0  0  0  0  0  0  0  0  0  0  0
    5.9674   -3.3348    1.4050 C   0  0  0  0  0  0  0  0  0  0  0  0
    6.7735   -2.4395    0.6711 C   0  0  0  0  0  0  0  0  0  0  0  0
    7.9635   -2.9236    0.0813 C   0  0  0  0  0  0  0  0  0  0  0  0
    8.3728   -4.2045    0.1806 N   0  0  0  0  0  0  0  0  0  0  0  0
    7.5942   -5.0597    0.8721 C   0  0  0  0  0  0  0  0  0  0  0  0
    6.3845   -4.6833    1.4937 C   0  0  0  0  0  0  0  0  0  0  0  0
    3.7062   -3.6495    2.4628 C   0  0  0  0  0  0  0  0  0  0  0  0
    2.6791   -2.8601    3.0988 C   0  0  0  0  0  0  0  0  0  0  0  0
    3.0316   -1.5623    3.0515 C   0  0  0  0  0  0  0  0  0  0  0  0
    2.5194   -0.3010    3.8338 C   0  0  1  0  0  0  0  0  0  0  0  0
    3.2965    0.9442    3.2970 C   0  0  0  0  0  0  0  0  0  0  0  0
   -2.0286    1.2019    3.7058 H   0  0  0  0  0  0  0  0  0  0  0  0
   -1.0588    2.6492    3.9369 H   0  0  0  0  0  0  0  0  0  0  0  0
   -2.5435    2.3923    4.8334 H   0  0  0  0  0  0  0  0  0  0  0  0
   -0.2862    2.9464    6.8747 H   0  0  0  0  0  0  0  0  0  0  0  0
   -0.9894   -0.5340    6.8719 H   0  0  0  0  0  0  0  0  0  0  0  0
   -2.5155   -0.0763    6.1263 H   0  0  0  0  0  0  0  0  0  0  0  0
   -1.6039   -2.1933    5.2454 H   0  0  0  0  0  0  0  0  0  0  0  0
   -1.8518   -0.9985    4.0156 H   0  0  0  0  0  0  0  0  0  0  0  0
    0.7843   -1.9016    5.2485 H   0  0  0  0  0  0  0  0  0  0  0  0
    0.2108   -2.0776    3.5975 H   0  0  0  0  0  0  0  0  0  0  0  0
    0.5603    1.4628    2.5424 H   0  0  0  0  0  0  0  0  0  0  0  0
   -0.6270    0.1691    2.5307 H   0  0  0  0  0  0  0  0  0  0  0  0
    0.9318   -0.0981    1.8454 H   0  0  0  0  0  0  0  0  0  0  0  0
    1.0466    1.9376    4.8530 H   0  0  0  0  0  0  0  0  0  0  0  0
    1.3572    1.3148    7.3041 H   0  0  0  0  0  0  0  0  0  0  0  0
    1.3535   -0.3544    6.8327 H   0  0  0  0  0  0  0  0  0  0  0  0
    3.2812    1.8340    5.9699 H   0  0  0  0  0  0  0  0  0  0  0  0
    3.6241    0.5405    7.0827 H   0  0  0  0  0  0  0  0  0  0  0  0
    3.7806   -1.0959    5.4186 H   0  0  0  0  0  0  0  0  0  0  0  0
    5.1456    1.2073    4.4702 H   0  0  0  0  0  0  0  0  0  0  0  0
    6.1488   -0.2009    2.7051 H   0  0  0  0  0  0  0  0  0  0  0  0
    5.8025   -1.3286    3.9916 H   0  0  0  0  0  0  0  0  0  0  0  0
    4.2424   -0.8936    1.4090 H   0  0  0  0  0  0  0  0  0  0  0  0
    6.5025   -1.4004    0.5627 H   0  0  0  0  0  0  0  0  0  0  0  0
    8.6051   -2.2618   -0.4828 H   0  0  0  0  0  0  0  0  0  0  0  0
    7.9392   -6.0822    0.9246 H   0  0  0  0  0  0  0  0  0  0  0  0
    5.8132   -5.4196    2.0339 H   0  0  0  0  0  0  0  0  0  0  0  0
    3.6712   -4.7259    2.3630 H   0  0  0  0  0  0  0  0  0  0  0  0
    1.8705   -3.3055    3.6525 H   0  0  0  0  0  0  0  0  0  0  0  0
    2.9426    1.9049    3.6713 H   0  0  0  0  0  0  0  0  0  0  0  0
    3.3965    0.9809    2.2063 H   0  0  0  0  0  0  0  0  0  0  0  0
  2  1  1  6
  1 29  1  0
  1 30  1  0
  1 31  1  0
  2 10  1  0
  2  3  1  0
  2  5  1  0
  3  4  2  0
  3 32  1  0
  5  6  1  0
  5 33  1  0
  5 34  1  0
  6  7  1  0
  6 35  1  0
  6 36  1  0
  7  8  1  0
  7 37  1  0
  7 38  1  0
  8 27  1  0
  8  9  1  6
  8 10  1  0
  9 39  1  0
  9 40  1  0
  9 41  1  0
 10 11  1  0
 10 42  1  6
 11 12  1  0
 11 43  1  0
 11 44  1  0
 12 13  1  0
 12 45  1  0
 12 46  1  0
 13 27  1  0
 13 14  1  0
 13 47  1  1
 14 28  1  0
 14 15  1  0
 14 48  1  1
 15 16  1  0
 15 49  1  0
 15 50  1  0
 16 26  1  0
 16 17  1  0
 16 51  1  6
 17 18  1  0
 17 24  2  0
 18 23  1  0
 18 19  2  0
 19 20  1  0
 19 52  1  0
 20 21  2  0
 20 53  1  0
 21 22  1  0
 22 23  2  0
 22 54  1  0
 23 55  1  0
 24 25  1  0
 24 56  1  0
 25 26  2  0
 25 57  1  0
 26 27  1  0
 27 28  1  6
 28 58  1  0
 28 59  1  0
M  END
>  <i_m_ct_stereo_status>  (268) 
1

>  <s_m_source_file>  (268) 
/var/tmp/pbs.5076255.sched01/tmp4tnmxshi/11480k6dy83.sdf

>  <i_m_source_file_index>  (268) 
8

>  <i_lp_mmshare_version>  (268) 
48012

>  <i_f3d_flags>  (268) 
0

>  <s_epik_input>  (268) 
W0NIMl0xW0NIMl1bQ0gyXVtDQEBdKFtDSDNdKShbQ0hdPU8pW0NASF0oW0NAXTEoW0NAQF0yMzQpW0NIM10pW0NIMl1bQ0gyXVtDQEBIXTJbQ0BIXShbQ0gyXTQpW0NIMl1bQ0BASF01QzM9W0NIXVtDSF09QzVjNltjSF1bY0hdbltjSF1bY0hdNg==

>  <s_epik_cmdline>  (268) 
J2VwaWtfcHl0aG9uJywgJy1waHQnLCAnMi4wJywgJy1waCcsICc3LjAnLCAnLXRuJywgJzgnLCAnLW1hJywgJzIwMCcsICctaW1hZScsICc8aW5maWxlLm1hZT4nLCAnLW9tYWUnLCAnPG91dGZpbGUubWFlPic=

>  <r_epik_Ionization_Penalty>  (268) 
0.571041

>  <r_epik_Ionization_Penalty_Charging>  (268) 
0

>  <r_epik_Ionization_Penalty_Neutral>  (268) 
0.571041

>  <r_epik_State_Penalty>  (268) 
0.583

>  <r_epik_Charging_Adjusted_Penalty>  (268) 
0.583

>  <i_epik_Tot_Q>  (268) 
0

>  <i_epik_Tot_abs_Q>  (268) 
0

>  <s_lp_Force_Field>  (268) 
OPLS3e

>  <r_lp_Energy>  (268) 
93.5296

>  <b_lp_Chiralities_Consistent>  (268) 
1

>  <s_lp_Variant>  (268) 
86:0-2

>  <s_i_glide_gridfile>  (268) 
pfpi4k_grid

>  <i_i_glide_lignum>  (268) 
8

>  <i_i_glide_rotatable_bonds>  (268) 
2

>  <r_i_docking_score>  (268) 
-3.11857

>  <r_i_glide_ligand_efficiency>  (268) 
-0.111378

>  <r_i_glide_ligand_efficiency_sa>  (268) 
-0.338208

>  <r_i_glide_ligand_efficiency_ln>  (268) 
-0.719858

>  <r_i_glide_gscore>  (268) 
-3.11857

>  <r_i_glide_lipo>  (268) 
-0.77259

>  <r_i_glide_hbond>  (268) 
0

>  <r_i_glide_metal>  (268) 
-0

>  <r_i_glide_rewards>  (268) 
-0.862292

>  <r_i_glide_evdw>  (268) 
-27.8183

>  <r_i_glide_ecoul>  (268) 
-1.48615

>  <r_i_glide_erotb>  (268) 
0.138514

>  <r_i_glide_esite>  (268) 
-0.00836422

>  <r_i_glide_emodel>  (268) 
-34.4373

>  <r_i_glide_energy>  (268) 
-29.3045

>  <r_i_glide_einternal>  (268) 
0.865777

>  <r_i_glide_intrahb_reward>  (268) 
-0

>  <i_i_glide_confnum>  (268) 
2

>  <i_i_glide_posenum>  (268) 
12

>  <r_i_glide_eff_state_penalty>  (268) 
0

>  <ligand_id>  (268) 
86

>  <original_smiles>  (268) 
CC1(C=O)CCCC2(C)C1CCC1C3CC4C(c5ccncc5)=CC=C4C12C3

>  <smiles>  (268) 
[H]C(=O)C1(C([H])([H])[H])C([H])([H])C([H])([H])C([H])([H])C2(C([H])([H])[H])C1([H])C([H])([H])C([H])([H])C1([H])C3([H])C([H])([H])C4([H])C(c5c([H])c([H])nc([H])c5[H])=C([H])C([H])=C4C12C3([H])[H]

$$$$
86:1:1
     RDKit          3D

 59 64  0  0  1  0  0  0  0  0999 V2000
    5.5934   -4.4439    0.2039 C   0  0  0  0  0  0  0  0  0  0  0  0
    6.0925   -2.9832    0.3454 C   0  0  1  0  0  0  0  0  0  0  0  0
    7.6272   -3.1254    0.4797 C   0  0  0  0  0  0  0  0  0  0  0  0
    8.4116   -2.2799    0.0565 O   0  0  0  0  0  0  0  0  0  0  0  0
    5.7836   -2.1639   -0.9254 C   0  0  0  0  0  0  0  0  0  0  0  0
    4.3041   -1.8507   -1.1008 C   0  0  0  0  0  0  0  0  0  0  0  0
    3.6820   -1.1901    0.1345 C   0  0  0  0  0  0  0  0  0  0  0  0
    3.8784   -1.9350    1.4614 C   0  0  1  0  0  0  0  0  0  0  0  0
    3.0342   -3.2316    1.4755 C   0  0  0  0  0  0  0  0  0  0  0  0
    5.4359   -2.2484    1.5812 C   0  0  2  0  0  0  0  0  0  0  0  0
    6.1992   -0.9539    1.9657 C   0  0  0  0  0  0  0  0  0  0  0  0
    5.8115   -0.3891    3.3357 C   0  0  0  0  0  0  0  0  0  0  0  0
    4.3382   -0.1694    3.4643 C   0  0  2  0  0  0  0  0  0  0  0  0
    3.5938   -0.4600    4.7649 C   0  0  1  0  0  0  0  0  0  0  0  0
    2.3368    0.3067    5.0377 C   0  0  0  0  0  0  0  0  0  0  0  0
    1.3004   -0.1153    3.9867 C   0  0  1  0  0  0  0  0  0  0  0  0
    0.2846    0.9452    3.5769 C   0  0  0  0  0  0  0  0  0  0  0  0
   -0.7184    1.5583    4.4844 C   0  0  0  0  0  0  0  0  0  0  0  0
   -0.7137    1.2616    5.8703 C   0  0  0  0  0  0  0  0  0  0  0  0
   -1.6399    1.9195    6.7173 C   0  0  0  0  0  0  0  0  0  0  0  0
   -2.5631    2.7816    6.2689 N   0  0  0  0  0  0  0  0  0  0  0  0
   -2.5817    3.0228    4.9503 C   0  0  0  0  0  0  0  0  0  0  0  0
   -1.7024    2.4559    4.0101 C   0  0  0  0  0  0  0  0  0  0  0  0
    0.3644    1.1551    2.2525 C   0  0  0  0  0  0  0  0  0  0  0  0
    1.4430    0.3948    1.6850 C   0  0  0  0  0  0  0  0  0  0  0  0
    1.9921   -0.3654    2.6511 C   0  0  0  0  0  0  0  0  0  0  0  0
    3.3623   -1.1180    2.7050 C   0  0  1  0  0  0  0  0  0  0  0  0
    3.4496   -1.8346    4.1035 C   0  0  0  0  0  0  0  0  0  0  0  0
    4.6721   -4.5387   -0.3658 H   0  0  0  0  0  0  0  0  0  0  0  0
    5.4533   -4.9257    1.1724 H   0  0  0  0  0  0  0  0  0  0  0  0
    6.3073   -5.0704   -0.3214 H   0  0  0  0  0  0  0  0  0  0  0  0
    7.9735   -4.0432    0.9622 H   0  0  0  0  0  0  0  0  0  0  0  0
    6.3036   -1.2087   -0.8693 H   0  0  0  0  0  0  0  0  0  0  0  0
    6.1950   -2.6652   -1.8070 H   0  0  0  0  0  0  0  0  0  0  0  0
    4.1877   -1.1857   -1.9547 H   0  0  0  0  0  0  0  0  0  0  0  0
    3.7694   -2.7599   -1.3669 H   0  0  0  0  0  0  0  0  0  0  0  0
    4.0273   -0.1621    0.2200 H   0  0  0  0  0  0  0  0  0  0  0  0
    2.6223   -1.1740   -0.0646 H   0  0  0  0  0  0  0  0  0  0  0  0
    3.4487   -3.9789    2.1530 H   0  0  0  0  0  0  0  0  0  0  0  0
    2.9515   -3.6839    0.4934 H   0  0  0  0  0  0  0  0  0  0  0  0
    2.0105   -3.0414    1.7916 H   0  0  0  0  0  0  0  0  0  0  0  0
    5.5862   -2.9133    2.4328 H   0  0  0  0  0  0  0  0  0  0  0  0
    7.2781   -1.0588    1.9927 H   0  0  0  0  0  0  0  0  0  0  0  0
    6.0216   -0.1774    1.2199 H   0  0  0  0  0  0  0  0  0  0  0  0
    6.0918   -1.0742    4.1211 H   0  0  0  0  0  0  0  0  0  0  0  0
    6.3696    0.5150    3.5621 H   0  0  0  0  0  0  0  0  0  0  0  0
    4.0947    0.8485    3.1542 H   0  0  0  0  0  0  0  0  0  0  0  0
    4.3011   -0.5084    5.5930 H   0  0  0  0  0  0  0  0  0  0  0  0
    2.0094    0.0774    6.0413 H   0  0  0  0  0  0  0  0  0  0  0  0
    2.5250    1.3742    4.9956 H   0  0  0  0  0  0  0  0  0  0  0  0
    0.7592   -1.0162    4.2707 H   0  0  0  0  0  0  0  0  0  0  0  0
   -0.0197    0.5779    6.3195 H   0  0  0  0  0  0  0  0  0  0  0  0
   -1.6340    1.7255    7.7804 H   0  0  0  0  0  0  0  0  0  0  0  0
   -3.3437    3.7014    4.6119 H   0  0  0  0  0  0  0  0  0  0  0  0
   -1.7961    2.7138    2.9671 H   0  0  0  0  0  0  0  0  0  0  0  0
   -0.2569    1.8271    1.6705 H   0  0  0  0  0  0  0  0  0  0  0  0
    1.8029    0.5548    0.6868 H   0  0  0  0  0  0  0  0  0  0  0  0
    4.3118   -2.5026    4.2178 H   0  0  0  0  0  0  0  0  0  0  0  0
    2.5203   -2.3565    4.3679 H   0  0  0  0  0  0  0  0  0  0  0  0
  2  1  1  6
  1 29  1  0
  1 30  1  0
  1 31  1  0
  2 10  1  0
  2  3  1  0
  2  5  1  0
  3  4  2  0
  3 32  1  0
  5  6  1  0
  5 33  1  0
  5 34  1  0
  6  7  1  0
  6 35  1  0
  6 36  1  0
  7  8  1  0
  7 37  1  0
  7 38  1  0
  8 27  1  0
  8  9  1  6
  8 10  1  0
  9 39  1  0
  9 40  1  0
  9 41  1  0
 10 11  1  0
 10 42  1  1
 11 12  1  0
 11 43  1  0
 11 44  1  0
 12 13  1  0
 12 45  1  0
 12 46  1  0
 13 27  1  0
 13 14  1  0
 13 47  1  6
 14 28  1  0
 14 15  1  0
 14 48  1  1
 15 16  1  0
 15 49  1  0
 15 50  1  0
 16 26  1  0
 16 17  1  0
 16 51  1  1
 17 18  1  0
 17 24  2  0
 18 23  1  0
 18 19  2  0
 19 20  1  0
 19 52  1  0
 20 21  2  0
 20 53  1  0
 21 22  1  0
 22 23  2  0
 22 54  1  0
 23 55  1  0
 24 25  1  0
 24 56  1  0
 25 26  2  0
 25 57  1  0
 26 27  1  0
 27 28  1  1
 28 58  1  0
 28 59  1  0
M  END
>  <i_m_ct_stereo_status>  (269) 
1

>  <s_m_source_file>  (269) 
/var/tmp/pbs.5076255.sched01/tmp4tnmxshi/11480k6dy83.sdf

>  <i_m_source_file_index>  (269) 
8

>  <i_lp_mmshare_version>  (269) 
48012

>  <i_f3d_flags>  (269) 
0

>  <s_epik_input>  (269) 
W0NIMl0xW0NIMl1bQ0gyXVtDQEBdKFtDSDNdKShbQ0hdPU8pW0NASF0oW0NAXTEoW0NAQF0yMzQpW0NIM10pW0NIMl1bQ0gyXVtDQEBIXTJbQ0BIXShbQ0gyXTQpW0NIMl1bQ0BASF01QzM9W0NIXVtDSF09QzVjNltjSF1bY0hdbltjSF1bY0hdNg==

>  <s_epik_cmdline>  (269) 
J2VwaWtfcHl0aG9uJywgJy1waHQnLCAnMi4wJywgJy1waCcsICc3LjAnLCAnLXRuJywgJzgnLCAnLW1hJywgJzIwMCcsICctaW1hZScsICc8aW5maWxlLm1hZT4nLCAnLW9tYWUnLCAnPG91dGZpbGUubWFlPic=

>  <r_epik_Ionization_Penalty>  (269) 
0.571041

>  <r_epik_Ionization_Penalty_Charging>  (269) 
0

>  <r_epik_Ionization_Penalty_Neutral>  (269) 
0.571041

>  <r_epik_State_Penalty>  (269) 
0.583

>  <r_epik_Charging_Adjusted_Penalty>  (269) 
0.583

>  <i_epik_Tot_Q>  (269) 
0

>  <i_epik_Tot_abs_Q>  (269) 
0

>  <s_lp_Force_Field>  (269) 
OPLS3e

>  <r_lp_Energy>  (269) 
93.5296

>  <b_lp_Chiralities_Consistent>  (269) 
1

>  <s_lp_Variant>  (269) 
86:0-2

>  <s_i_glide_gridfile>  (269) 
pfpi4k_grid

>  <i_i_glide_lignum>  (269) 
8

>  <i_i_glide_rotatable_bonds>  (269) 
2

>  <r_i_docking_score>  (269) 
-2.894

>  <r_i_glide_ligand_efficiency>  (269) 
-0.103357

>  <r_i_glide_ligand_efficiency_sa>  (269) 
-0.313853

>  <r_i_glide_ligand_efficiency_ln>  (269) 
-0.66802

>  <r_i_glide_gscore>  (269) 
-2.894

>  <r_i_glide_lipo>  (269) 
-0.48292

>  <r_i_glide_hbond>  (269) 
0

>  <r_i_glide_metal>  (269) 
-0

>  <r_i_glide_rewards>  (269) 
-1.103

>  <r_i_glide_evdw>  (269) 
-26.9256

>  <r_i_glide_ecoul>  (269) 
-0.66875

>  <r_i_glide_erotb>  (269) 
0.138514

>  <r_i_glide_esite>  (269) 
0

>  <r_i_glide_emodel>  (269) 
-32.0146

>  <r_i_glide_energy>  (269) 
-27.5944

>  <r_i_glide_einternal>  (269) 
0.867652

>  <r_i_glide_intrahb_reward>  (269) 
-0

>  <i_i_glide_confnum>  (269) 
2

>  <i_i_glide_posenum>  (269) 
3

>  <r_i_glide_eff_state_penalty>  (269) 
0

>  <ligand_id>  (269) 
86

>  <original_smiles>  (269) 
CC1(C=O)CCCC2(C)C1CCC1C3CC4C(c5ccncc5)=CC=C4C12C3

>  <smiles>  (269) 
[H]C(=O)C1(C([H])([H])[H])C([H])([H])C([H])([H])C([H])([H])C2(C([H])([H])[H])C1([H])C([H])([H])C([H])([H])C1([H])C3([H])C([H])([H])C4([H])C(c5c([H])c([H])nc([H])c5[H])=C([H])C([H])=C4C12C3([H])[H]

$$$$
86:1:2
     RDKit          3D

 59 64  0  0  1  0  0  0  0  0999 V2000
   -1.5269    3.9234    3.6868 C   0  0  0  0  0  0  0  0  0  0  0  0
   -0.3493    3.6081    4.6526 C   0  0  1  0  0  0  0  0  0  0  0  0
    0.2236    4.9995    5.0088 C   0  0  0  0  0  0  0  0  0  0  0  0
   -0.3754    5.7593    5.7717 O   0  0  0  0  0  0  0  0  0  0  0  0
   -0.8670    2.9466    5.9494 C   0  0  0  0  0  0  0  0  0  0  0  0
   -1.3539    1.5097    5.7377 C   0  0  0  0  0  0  0  0  0  0  0  0
   -0.3159    0.6074    5.0515 C   0  0  0  0  0  0  0  0  0  0  0  0
    0.2819    1.1615    3.7341 C   0  0  1  0  0  0  0  0  0  0  0  0
   -0.7942    1.1179    2.6236 C   0  0  0  0  0  0  0  0  0  0  0  0
    0.7466    2.6629    4.0211 C   0  0  2  0  0  0  0  0  0  0  0  0
    2.0749    2.6714    4.8453 C   0  0  0  0  0  0  0  0  0  0  0  0
    3.2311    2.0639    4.0687 C   0  0  0  0  0  0  0  0  0  0  0  0
    2.9275    0.6472    3.6241 C   0  0  2  0  0  0  0  0  0  0  0  0
    3.3991    0.1609    2.2412 C   0  0  1  0  0  0  0  0  0  0  0  0
    3.6075   -1.3371    2.0687 C   0  0  0  0  0  0  0  0  0  0  0  0
    2.2306   -2.0153    2.1884 C   0  0  1  0  0  0  0  0  0  0  0  0
    2.2102   -3.4287    2.7465 C   0  0  0  0  0  0  0  0  0  0  0  0
    2.8638   -4.5947    2.1154 C   0  0  0  0  0  0  0  0  0  0  0  0
    2.8485   -5.8817    2.7154 C   0  0  0  0  0  0  0  0  0  0  0  0
    3.5047   -6.9391    2.0591 C   0  0  0  0  0  0  0  0  0  0  0  0
    4.1520   -6.8042    0.8843 N   0  0  0  0  0  0  0  0  0  0  0  0
    4.1514   -5.5861    0.3052 C   0  0  0  0  0  0  0  0  0  0  0  0
    3.5212   -4.4641    0.8705 C   0  0  0  0  0  0  0  0  0  0  0  0
    1.4278   -3.4532    3.8393 C   0  0  0  0  0  0  0  0  0  0  0  0
    0.9475   -2.1291    4.1518 C   0  0  0  0  0  0  0  0  0  0  0  0
    1.3825   -1.2736    3.2197 C   0  0  0  0  0  0  0  0  0  0  0  0
    1.4833    0.2947    3.1863 C   0  0  1  0  0  0  0  0  0  0  0  0
    2.0410    0.7119    1.7942 C   0  0  0  0  0  0  0  0  0  0  0  0
   -2.3099    3.1725    3.6886 H   0  0  0  0  0  0  0  0  0  0  0  0
   -1.1812    4.0455    2.6604 H   0  0  0  0  0  0  0  0  0  0  0  0
   -2.0423    4.8462    3.9451 H   0  0  0  0  0  0  0  0  0  0  0  0
    1.1644    5.2842    4.5432 H   0  0  0  0  0  0  0  0  0  0  0  0
   -0.0740    2.9395    6.6989 H   0  0  0  0  0  0  0  0  0  0  0  0
   -1.6719    3.5389    6.3925 H   0  0  0  0  0  0  0  0  0  0  0  0
   -1.6137    1.0806    6.7028 H   0  0  0  0  0  0  0  0  0  0  0  0
   -2.2755    1.5182    5.1601 H   0  0  0  0  0  0  0  0  0  0  0  0
    0.4903    0.3877    5.7514 H   0  0  0  0  0  0  0  0  0  0  0  0
   -0.8400   -0.3198    4.8410 H   0  0  0  0  0  0  0  0  0  0  0  0
   -0.6077    1.8417    1.8311 H   0  0  0  0  0  0  0  0  0  0  0  0
   -1.7969    1.2691    2.9972 H   0  0  0  0  0  0  0  0  0  0  0  0
   -0.8196    0.1440    2.1406 H   0  0  0  0  0  0  0  0  0  0  0  0
    0.9994    3.1179    3.0643 H   0  0  0  0  0  0  0  0  0  0  0  0
    2.4135    3.6689    5.1215 H   0  0  0  0  0  0  0  0  0  0  0  0
    1.9543    2.1311    5.7837 H   0  0  0  0  0  0  0  0  0  0  0  0
    3.4223    2.7041    3.2029 H   0  0  0  0  0  0  0  0  0  0  0  0
    4.1455    2.0884    4.6626 H   0  0  0  0  0  0  0  0  0  0  0  0
    3.2473   -0.0599    4.3856 H   0  0  0  0  0  0  0  0  0  0  0  0
    4.2135    0.7656    1.8516 H   0  0  0  0  0  0  0  0  0  0  0  0
    4.0627   -1.5452    1.1030 H   0  0  0  0  0  0  0  0  0  0  0  0
    4.2970   -1.7145    2.8245 H   0  0  0  0  0  0  0  0  0  0  0  0
    1.7082   -2.0069    1.2331 H   0  0  0  0  0  0  0  0  0  0  0  0
    2.3569   -6.0666    3.6580 H   0  0  0  0  0  0  0  0  0  0  0  0
    3.5199   -7.9288    2.4955 H   0  0  0  0  0  0  0  0  0  0  0  0
    4.6704   -5.5088   -0.6399 H   0  0  0  0  0  0  0  0  0  0  0  0
    3.5473   -3.5259    0.3358 H   0  0  0  0  0  0  0  0  0  0  0  0
    1.1912   -4.3331    4.4180 H   0  0  0  0  0  0  0  0  0  0  0  0
    0.4654   -1.8984    5.0895 H   0  0  0  0  0  0  0  0  0  0  0  0
    2.0469    1.7871    1.6089 H   0  0  0  0  0  0  0  0  0  0  0  0
    1.6051    0.1839    0.9458 H   0  0  0  0  0  0  0  0  0  0  0  0
  2  1  1  6
  1 29  1  0
  1 30  1  0
  1 31  1  0
  2 10  1  0
  2  3  1  0
  2  5  1  0
  3  4  2  0
  3 32  1  0
  5  6  1  0
  5 33  1  0
  5 34  1  0
  6  7  1  0
  6 35  1  0
  6 36  1  0
  7  8  1  0
  7 37  1  0
  7 38  1  0
  8 27  1  0
  8  9  1  6
  8 10  1  0
  9 39  1  0
  9 40  1  0
  9 41  1  0
 10 11  1  0
 10 42  1  6
 11 12  1  0
 11 43  1  0
 11 44  1  0
 12 13  1  0
 12 45  1  0
 12 46  1  0
 13 27  1  0
 13 14  1  0
 13 47  1  1
 14 28  1  0
 14 15  1  0
 14 48  1  6
 15 16  1  0
 15 49  1  0
 15 50  1  0
 16 26  1  0
 16 17  1  0
 16 51  1  6
 17 18  1  0
 17 24  2  0
 18 23  1  0
 18 19  2  0
 19 20  1  0
 19 52  1  0
 20 21  2  0
 20 53  1  0
 21 22  1  0
 22 23  2  0
 22 54  1  0
 23 55  1  0
 24 25  1  0
 24 56  1  0
 25 26  2  0
 25 57  1  0
 26 27  1  0
 27 28  1  6
 28 58  1  0
 28 59  1  0
M  END
>  <i_m_ct_stereo_status>  (270) 
1

>  <s_m_source_file>  (270) 
/var/tmp/pbs.5076255.sched01/tmp4tnmxshi/11480k6dy83.sdf

>  <i_m_source_file_index>  (270) 
8

>  <i_lp_mmshare_version>  (270) 
48012

>  <i_f3d_flags>  (270) 
0

>  <s_epik_input>  (270) 
W0NIMl0xW0NIMl1bQ0gyXVtDQEBdKFtDSDNdKShbQ0hdPU8pW0NASF0oW0NAXTEoW0NAQF0yMzQpW0NIM10pW0NIMl1bQ0gyXVtDQEBIXTJbQ0BIXShbQ0gyXTQpW0NIMl1bQ0BASF01QzM9W0NIXVtDSF09QzVjNltjSF1bY0hdbltjSF1bY0hdNg==

>  <s_epik_cmdline>  (270) 
J2VwaWtfcHl0aG9uJywgJy1waHQnLCAnMi4wJywgJy1waCcsICc3LjAnLCAnLXRuJywgJzgnLCAnLW1hJywgJzIwMCcsICctaW1hZScsICc8aW5maWxlLm1hZT4nLCAnLW9tYWUnLCAnPG91dGZpbGUubWFlPic=

>  <r_epik_Ionization_Penalty>  (270) 
0.571041

>  <r_epik_Ionization_Penalty_Charging>  (270) 
0

>  <r_epik_Ionization_Penalty_Neutral>  (270) 
0.571041

>  <r_epik_State_Penalty>  (270) 
0.583

>  <r_epik_Charging_Adjusted_Penalty>  (270) 
0.583

>  <i_epik_Tot_Q>  (270) 
0

>  <i_epik_Tot_abs_Q>  (270) 
0

>  <s_lp_Force_Field>  (270) 
OPLS3e

>  <r_lp_Energy>  (270) 
93.5296

>  <b_lp_Chiralities_Consistent>  (270) 
1

>  <s_lp_Variant>  (270) 
86:0-2

>  <s_i_glide_gridfile>  (270) 
pfpi4k_grid

>  <i_i_glide_lignum>  (270) 
8

>  <i_i_glide_rotatable_bonds>  (270) 
2

>  <r_i_docking_score>  (270) 
-2.53419

>  <r_i_glide_ligand_efficiency>  (270) 
-0.0905068

>  <r_i_glide_ligand_efficiency_sa>  (270) 
-0.274832

>  <r_i_glide_ligand_efficiency_ln>  (270) 
-0.584966

>  <r_i_glide_gscore>  (270) 
-2.53419

>  <r_i_glide_lipo>  (270) 
-0.147559

>  <r_i_glide_hbond>  (270) 
0

>  <r_i_glide_metal>  (270) 
-0

>  <r_i_glide_rewards>  (270) 
-0.862292

>  <r_i_glide_evdw>  (270) 
-26.6703

>  <r_i_glide_ecoul>  (270) 
-1.97949

>  <r_i_glide_erotb>  (270) 
0.138514

>  <r_i_glide_esite>  (270) 
-0.0324127

>  <r_i_glide_emodel>  (270) 
-32.7834

>  <r_i_glide_energy>  (270) 
-28.6498

>  <r_i_glide_einternal>  (270) 
0.363886

>  <r_i_glide_intrahb_reward>  (270) 
-0

>  <i_i_glide_confnum>  (270) 
3

>  <i_i_glide_posenum>  (270) 
31

>  <r_i_glide_eff_state_penalty>  (270) 
0

>  <ligand_id>  (270) 
86

>  <original_smiles>  (270) 
CC1(C=O)CCCC2(C)C1CCC1C3CC4C(c5ccncc5)=CC=C4C12C3

>  <smiles>  (270) 
[H]C(=O)C1(C([H])([H])[H])C([H])([H])C([H])([H])C([H])([H])C2(C([H])([H])[H])C1([H])C([H])([H])C([H])([H])C1([H])C3([H])C([H])([H])C4([H])C(c5c([H])c([H])nc([H])c5[H])=C([H])C([H])=C4C12C3([H])[H]

$$$$
88:0:0
     RDKit          3D

 55 58  0  0  1  0  0  0  0  0999 V2000
    3.4743    5.6356    5.2910 C   0  0  0  0  0  0  0  0  0  0  0  0
    2.8248    4.2609    4.9988 C   0  0  0  0  0  0  0  0  0  0  0  0
    3.8109    3.1773    5.4914 C   0  0  0  0  0  0  0  0  0  0  0  0
    1.5032    4.1102    5.7652 C   0  0  0  0  0  0  0  0  0  0  0  0
    0.6263    3.2785    4.9159 N   0  0  1  0  0  0  0  0  0  0  0  0
   -0.8037    3.2006    5.3316 C   0  0  0  0  0  0  0  0  0  0  0  0
   -0.9943    2.2448    6.5377 C   0  0  0  0  0  0  0  0  0  0  0  0
   -1.4411    2.9027    7.8656 C   0  0  2  0  0  0  0  0  0  0  0  0
   -1.3909    1.8548    9.0099 C   0  0  0  0  0  0  0  0  0  0  0  0
   -1.8154    2.5044   10.3509 C   0  0  1  0  0  0  0  0  0  0  0  0
   -0.8549    3.6569   10.6970 C   0  0  0  0  0  0  0  0  0  0  0  0
   -0.9320    4.7166    9.5815 C   0  0  2  0  0  0  0  0  0  0  0  0
   -2.3652    5.2620    9.4229 C   0  0  0  0  0  0  0  0  0  0  0  0
   -3.3165    4.0929    9.0951 C   0  0  2  0  0  0  0  0  0  0  0  0
   -3.2493    3.0512   10.2295 C   0  0  0  0  0  0  0  0  0  0  0  0
   -2.8975    3.4249    7.7653 C   0  0  0  0  0  0  0  0  0  0  0  0
   -0.4945    4.0644    8.2674 C   0  0  0  0  0  0  0  0  0  0  0  0
    0.8636    3.7705    3.5451 C   0  0  0  0  0  0  0  0  0  0  0  0
    2.3806    4.0528    3.5067 C   0  0  1  0  0  0  0  0  0  0  0  0
    2.7120    5.2165    2.5656 C   0  0  0  0  0  0  0  0  0  0  0  0
    2.9924    2.8993    2.9542 O   0  0  0  0  0  0  0  0  0  0  0  0
    3.7577    5.7265    6.3434 H   0  0  0  0  0  0  0  0  0  0  0  0
    2.7999    6.4660    5.0747 H   0  0  0  0  0  0  0  0  0  0  0  0
    4.3846    5.7872    4.7030 H   0  0  0  0  0  0  0  0  0  0  0  0
    3.4267    2.1630    5.3605 H   0  0  0  0  0  0  0  0  0  0  0  0
    4.0350    3.2939    6.5536 H   0  0  0  0  0  0  0  0  0  0  0  0
    4.7593    3.2460    4.9618 H   0  0  0  0  0  0  0  0  0  0  0  0
    1.6684    3.6607    6.7488 H   0  0  0  0  0  0  0  0  0  0  0  0
    1.0443    5.0960    5.8878 H   0  0  0  0  0  0  0  0  0  0  0  0
   -1.2100    4.1982    5.5112 H   0  0  0  0  0  0  0  0  0  0  0  0
   -1.3752    2.8050    4.4893 H   0  0  0  0  0  0  0  0  0  0  0  0
   -1.7293    1.4961    6.2541 H   0  0  0  0  0  0  0  0  0  0  0  0
   -0.0835    1.6723    6.6970 H   0  0  0  0  0  0  0  0  0  0  0  0
   -2.0455    1.0212    8.7624 H   0  0  0  0  0  0  0  0  0  0  0  0
   -0.3876    1.4377    9.1082 H   0  0  0  0  0  0  0  0  0  0  0  0
   -1.7786    1.7554   11.1457 H   0  0  0  0  0  0  0  0  0  0  0  0
   -1.1029    4.0947   11.6627 H   0  0  0  0  0  0  0  0  0  0  0  0
    0.1642    3.2771   10.7780 H   0  0  0  0  0  0  0  0  0  0  0  0
   -0.2512    5.5369    9.8088 H   0  0  0  0  0  0  0  0  0  0  0  0
   -2.6764    5.7697   10.3357 H   0  0  0  0  0  0  0  0  0  0  0  0
   -2.3978    6.0049    8.6246 H   0  0  0  0  0  0  0  0  0  0  0  0
   -4.3350    4.4680    8.9998 H   0  0  0  0  0  0  0  0  0  0  0  0
   -3.9255    2.2314   10.0088 H   0  0  0  0  0  0  0  0  0  0  0  0
   -3.5647    3.4851   11.1791 H   0  0  0  0  0  0  0  0  0  0  0  0
   -2.9859    4.1359    6.9462 H   0  0  0  0  0  0  0  0  0  0  0  0
   -3.5892    2.6090    7.5295 H   0  0  0  0  0  0  0  0  0  0  0  0
    0.5206    3.6908    8.3966 H   0  0  0  0  0  0  0  0  0  0  0  0
   -0.4785    4.8437    7.5067 H   0  0  0  0  0  0  0  0  0  0  0  0
    0.5336    3.0312    2.8021 H   0  0  0  0  0  0  0  0  0  0  0  0
    0.2981    4.7007    3.3929 H   0  0  0  0  0  0  0  0  0  0  0  0
    2.2738    6.1588    2.9045 H   0  0  0  0  0  0  0  0  0  0  0  0
    2.2933    5.0163    1.5781 H   0  0  0  0  0  0  0  0  0  0  0  0
    3.7888    5.3656    2.4598 H   0  0  0  0  0  0  0  0  0  0  0  0
    3.9284    3.0295    2.8092 H   0  0  0  0  0  0  0  0  0  0  0  0
    1.0145    2.3390    4.9242 H   0  0  0  0  0  0  0  0  0  0  0  0
  1  2  1  0
  1 22  1  0
  1 23  1  0
  1 24  1  0
  2 19  1  0
  2  3  1  0
  2  4  1  0
  3 25  1  0
  3 26  1  0
  3 27  1  0
  4  5  1  0
  4 28  1  0
  4 29  1  0
  5  6  1  0
  5 18  1  0
  5 55  1  6
  6  7  1  0
  6 30  1  0
  6 31  1  0
  8  7  1  6
  7 32  1  0
  7 33  1  0
  8 16  1  0
  8 17  1  0
  8  9  1  0
  9 10  1  0
  9 34  1  0
  9 35  1  0
 10 15  1  0
 10 11  1  0
 10 36  1  1
 11 12  1  0
 11 37  1  0
 11 38  1  0
 12 13  1  0
 12 17  1  0
 12 39  1  1
 13 14  1  0
 13 40  1  0
 13 41  1  0
 14 15  1  0
 14 16  1  0
 14 42  1  6
 15 43  1  0
 15 44  1  0
 16 45  1  0
 16 46  1  0
 17 47  1  0
 17 48  1  0
 18 19  1  0
 18 49  1  0
 18 50  1  0
 19 20  1  0
 19 21  1  6
 20 51  1  0
 20 52  1  0
 20 53  1  0
 21 54  1  0
M  CHG  1   5   1
M  END
>  <i_m_ct_stereo_status>  (271) 
1

>  <s_m_source_file>  (271) 
/var/tmp/pbs.5076255.sched01/tmp4tnmxshi/11480k6dy83.sdf

>  <i_m_source_file_index>  (271) 
10

>  <i_lp_mmshare_version>  (271) 
48012

>  <i_f3d_flags>  (271) 
0

>  <s_epik_input>  (271) 
W0NIM11DMShbQ0gzXSlbQ0gyXU4oW0NIMl1bQ0BdMShbQ0gzXSlbT0hdKVtDSDJdW0NIMl1DMjNbQ0gyXVtDQEhdNFtDSDJdW0NAQEhdKFtDSDJdMylbQ0gyXVtDQEhdKFtDSDJdNClbQ0gyXTI=

>  <s_epik_cmdline>  (271) 
J2VwaWtfcHl0aG9uJywgJy1waHQnLCAnMi4wJywgJy1waCcsICc3LjAnLCAnLXRuJywgJzgnLCAnLW1hJywgJzIwMCcsICctaW1hZScsICc8aW5maWxlLm1hZT4nLCAnLW9tYWUnLCAnPG91dGZpbGUubWFlPic=

>  <r_epik_Ionization_Penalty>  (271) 
0.000475904

>  <r_epik_Ionization_Penalty_Charging>  (271) 
0.000475902

>  <r_epik_Ionization_Penalty_Neutral>  (271) 
2.81147e-09

>  <r_epik_State_Penalty>  (271) 
0.000295101

>  <r_epik_Charging_Adjusted_Penalty>  (271) 
0.000771003

>  <i_epik_Tot_Q>  (271) 
1

>  <i_epik_Tot_abs_Q>  (271) 
1

>  <s_lp_Force_Field>  (271) 
OPLS3e

>  <r_lp_Energy>  (271) 
15.4235

>  <b_lp_Chiralities_Consistent>  (271) 
1

>  <s_lp_Variant>  (271) 
88:0-1

>  <s_i_glide_gridfile>  (271) 
pfpi4k_grid

>  <i_i_glide_lignum>  (271) 
10

>  <i_i_glide_rotatable_bonds>  (271) 
4

>  <r_i_docking_score>  (271) 
-2.69098

>  <r_i_glide_ligand_efficiency>  (271) 
-0.128142

>  <r_i_glide_ligand_efficiency_sa>  (271) 
-0.353534

>  <r_i_glide_ligand_efficiency_ln>  (271) 
-0.665339

>  <r_i_glide_gscore>  (271) 
-2.69098

>  <r_i_glide_lipo>  (271) 
-0.201062

>  <r_i_glide_hbond>  (271) 
-0.32

>  <r_i_glide_metal>  (271) 
-0

>  <r_i_glide_rewards>  (271) 
-1.41491

>  <r_i_glide_evdw>  (271) 
-12.5403

>  <r_i_glide_ecoul>  (271) 
-5.03229

>  <r_i_glide_erotb>  (271) 
0.640288

>  <r_i_glide_esite>  (271) 
-0.0134301

>  <r_i_glide_emodel>  (271) 
-18.4531

>  <r_i_glide_energy>  (271) 
-17.5726

>  <r_i_glide_einternal>  (271) 
4.56322

>  <r_i_glide_intrahb_reward>  (271) 
-0

>  <i_i_glide_confnum>  (271) 
5

>  <i_i_glide_posenum>  (271) 
17

>  <r_i_glide_eff_state_penalty>  (271) 
0

>  <ligand_id>  (271) 
88

>  <original_smiles>  (271) 
CC1(C)CN(CCC23CC4CC(CC(C4)C2)C3)CC1(C)O

>  <smiles>  (271) 
[H]OC1(C([H])([H])[H])C(C([H])([H])[H])(C([H])([H])[H])C([H])([H])[N+]([H])(C([H])([H])C([H])([H])C23C([H])([H])C4([H])C([H])([H])C([H])(C([H])([H])C([H])(C4([H])[H])C2([H])[H])C3([H])[H])C1([H])[H]

$$$$
88:0:1
     RDKit          3D

 55 58  0  0  1  0  0  0  0  0999 V2000
    1.2082   -0.4508    3.1388 C   0  0  0  0  0  0  0  0  0  0  0  0
    0.7698    1.0204    2.9180 C   0  0  0  0  0  0  0  0  0  0  0  0
    0.2437    1.1276    1.4756 C   0  0  0  0  0  0  0  0  0  0  0  0
   -0.3554    1.3917    3.8884 C   0  0  0  0  0  0  0  0  0  0  0  0
   -0.1498    2.8118    4.2243 N   0  0  1  0  0  0  0  0  0  0  0  0
   -0.9504    3.3397    5.3179 C   0  0  0  0  0  0  0  0  0  0  0  0
   -0.7276    2.5693    6.6575 C   0  0  0  0  0  0  0  0  0  0  0  0
   -1.2736    3.2230    7.9302 C   0  0  2  0  0  0  0  0  0  0  0  0
   -2.7951    3.4750    7.8193 C   0  0  0  0  0  0  0  0  0  0  0  0
   -3.3199    4.0882    9.1259 C   0  0  1  0  0  0  0  0  0  0  0  0
   -3.0632    3.1049   10.2855 C   0  0  0  0  0  0  0  0  0  0  0  0
   -1.5473    2.8619   10.4270 C   0  0  2  0  0  0  0  0  0  0  0  0
   -0.8110    4.1889   10.6998 C   0  0  0  0  0  0  0  0  0  0  0  0
   -1.0757    5.1672    9.5380 C   0  0  2  0  0  0  0  0  0  0  0  0
   -2.5912    5.4220    9.4028 C   0  0  0  0  0  0  0  0  0  0  0  0
   -0.5469    4.5653    8.2267 C   0  0  0  0  0  0  0  0  0  0  0  0
   -1.0177    2.2556    9.1174 C   0  0  0  0  0  0  0  0  0  0  0  0
    1.3011    2.9949    4.3087 C   0  0  0  0  0  0  0  0  0  0  0  0
    1.8956    2.0973    3.2342 C   0  0  1  0  0  0  0  0  0  0  0  0
    3.2549    1.4991    3.6499 C   0  0  0  0  0  0  0  0  0  0  0  0
    2.1674    2.9429    2.1297 O   0  0  0  0  0  0  0  0  0  0  0  0
    0.4017   -1.1564    2.9089 H   0  0  0  0  0  0  0  0  0  0  0  0
    1.5055   -0.6473    4.1718 H   0  0  0  0  0  0  0  0  0  0  0  0
    2.0493   -0.7190    2.4955 H   0  0  0  0  0  0  0  0  0  0  0  0
   -0.1294    2.1234    1.2328 H   0  0  0  0  0  0  0  0  0  0  0  0
   -0.5832    0.4338    1.3059 H   0  0  0  0  0  0  0  0  0  0  0  0
    1.0336    0.8714    0.7686 H   0  0  0  0  0  0  0  0  0  0  0  0
   -1.3658    1.1993    3.5055 H   0  0  0  0  0  0  0  0  0  0  0  0
   -0.2217    0.7917    4.7979 H   0  0  0  0  0  0  0  0  0  0  0  0
   -0.7195    4.4032    5.4256 H   0  0  0  0  0  0  0  0  0  0  0  0
   -2.0048    3.2827    5.0439 H   0  0  0  0  0  0  0  0  0  0  0  0
   -1.1869    1.5833    6.5704 H   0  0  0  0  0  0  0  0  0  0  0  0
    0.3327    2.3975    6.8354 H   0  0  0  0  0  0  0  0  0  0  0  0
   -2.9881    4.1498    6.9905 H   0  0  0  0  0  0  0  0  0  0  0  0
   -3.3247    2.5485    7.5989 H   0  0  0  0  0  0  0  0  0  0  0  0
   -4.3917    4.2657    9.0298 H   0  0  0  0  0  0  0  0  0  0  0  0
   -3.4674    3.4859   11.2230 H   0  0  0  0  0  0  0  0  0  0  0  0
   -3.5665    2.1577   10.0886 H   0  0  0  0  0  0  0  0  0  0  0  0
   -1.3684    2.1673   11.2480 H   0  0  0  0  0  0  0  0  0  0  0  0
   -1.1456    4.6192   11.6420 H   0  0  0  0  0  0  0  0  0  0  0  0
    0.2608    4.0069   10.7996 H   0  0  0  0  0  0  0  0  0  0  0  0
   -0.5615    6.1085    9.7338 H   0  0  0  0  0  0  0  0  0  0  0  0
   -2.7826    6.1304    8.5969 H   0  0  0  0  0  0  0  0  0  0  0  0
   -2.9713    5.8774   10.3160 H   0  0  0  0  0  0  0  0  0  0  0  0
    0.5314    4.4001    8.2968 H   0  0  0  0  0  0  0  0  0  0  0  0
   -0.6930    5.2902    7.4268 H   0  0  0  0  0  0  0  0  0  0  0  0
   -1.4986    1.2930    8.9308 H   0  0  0  0  0  0  0  0  0  0  0  0
    0.0519    2.0461    9.2111 H   0  0  0  0  0  0  0  0  0  0  0  0
    1.5849    4.0532    4.2020 H   0  0  0  0  0  0  0  0  0  0  0  0
    1.6838    2.6459    5.2819 H   0  0  0  0  0  0  0  0  0  0  0  0
    3.1712    0.8513    4.5220 H   0  0  0  0  0  0  0  0  0  0  0  0
    3.9738    2.2758    3.9179 H   0  0  0  0  0  0  0  0  0  0  0  0
    3.6943    0.9187    2.8442 H   0  0  0  0  0  0  0  0  0  0  0  0
    1.3629    3.2902    1.7480 H   0  0  0  0  0  0  0  0  0  0  0  0
   -0.4253    3.3274    3.3610 H   0  0  0  0  0  0  0  0  0  0  0  0
  1  2  1  0
  1 22  1  0
  1 23  1  0
  1 24  1  0
  2 19  1  0
  2  3  1  0
  2  4  1  0
  3 25  1  0
  3 26  1  0
  3 27  1  0
  4  5  1  0
  4 28  1  0
  4 29  1  0
  5  6  1  0
  5 18  1  0
  5 55  1  6
  6  7  1  0
  6 30  1  0
  6 31  1  0
  8  7  1  6
  7 32  1  0
  7 33  1  0
  8 16  1  0
  8 17  1  0
  8  9  1  0
  9 10  1  0
  9 34  1  0
  9 35  1  0
 10 15  1  0
 10 11  1  0
 10 36  1  6
 11 12  1  0
 11 37  1  0
 11 38  1  0
 12 13  1  0
 12 17  1  0
 12 39  1  1
 13 14  1  0
 13 40  1  0
 13 41  1  0
 14 15  1  0
 14 16  1  0
 14 42  1  1
 15 43  1  0
 15 44  1  0
 16 45  1  0
 16 46  1  0
 17 47  1  0
 17 48  1  0
 18 19  1  0
 18 49  1  0
 18 50  1  0
 19 20  1  0
 19 21  1  6
 20 51  1  0
 20 52  1  0
 20 53  1  0
 21 54  1  0
M  CHG  1   5   1
M  END
>  <i_m_ct_stereo_status>  (272) 
1

>  <s_m_source_file>  (272) 
/var/tmp/pbs.5076255.sched01/tmp4tnmxshi/11480k6dy83.sdf

>  <i_m_source_file_index>  (272) 
10

>  <i_lp_mmshare_version>  (272) 
48012

>  <i_f3d_flags>  (272) 
0

>  <s_epik_input>  (272) 
W0NIM11DMShbQ0gzXSlbQ0gyXU4oW0NIMl1bQ0BdMShbQ0gzXSlbT0hdKVtDSDJdW0NIMl1DMjNbQ0gyXVtDQEhdNFtDSDJdW0NAQEhdKFtDSDJdMylbQ0gyXVtDQEhdKFtDSDJdNClbQ0gyXTI=

>  <s_epik_cmdline>  (272) 
J2VwaWtfcHl0aG9uJywgJy1waHQnLCAnMi4wJywgJy1waCcsICc3LjAnLCAnLXRuJywgJzgnLCAnLW1hJywgJzIwMCcsICctaW1hZScsICc8aW5maWxlLm1hZT4nLCAnLW9tYWUnLCAnPG91dGZpbGUubWFlPic=

>  <r_epik_Ionization_Penalty>  (272) 
0.000475904

>  <r_epik_Ionization_Penalty_Charging>  (272) 
0.000475902

>  <r_epik_Ionization_Penalty_Neutral>  (272) 
2.81147e-09

>  <r_epik_State_Penalty>  (272) 
0.000295101

>  <r_epik_Charging_Adjusted_Penalty>  (272) 
0.000771003

>  <i_epik_Tot_Q>  (272) 
1

>  <i_epik_Tot_abs_Q>  (272) 
1

>  <s_lp_Force_Field>  (272) 
OPLS3e

>  <r_lp_Energy>  (272) 
15.4235

>  <b_lp_Chiralities_Consistent>  (272) 
1

>  <s_lp_Variant>  (272) 
88:0-1

>  <s_i_glide_gridfile>  (272) 
pfpi4k_grid

>  <i_i_glide_lignum>  (272) 
10

>  <i_i_glide_rotatable_bonds>  (272) 
4

>  <r_i_docking_score>  (272) 
-2.50119

>  <r_i_glide_ligand_efficiency>  (272) 
-0.119104

>  <r_i_glide_ligand_efficiency_sa>  (272) 
-0.3286

>  <r_i_glide_ligand_efficiency_ln>  (272) 
-0.618415

>  <r_i_glide_gscore>  (272) 
-2.50119

>  <r_i_glide_lipo>  (272) 
-0.1903

>  <r_i_glide_hbond>  (272) 
-0.16

>  <r_i_glide_metal>  (272) 
-0

>  <r_i_glide_rewards>  (272) 
-1.41491

>  <r_i_glide_evdw>  (272) 
-15.3747

>  <r_i_glide_ecoul>  (272) 
-3.83309

>  <r_i_glide_erotb>  (272) 
0.640288

>  <r_i_glide_esite>  (272) 
-0.0325667

>  <r_i_glide_emodel>  (272) 
-20.6663

>  <r_i_glide_energy>  (272) 
-19.2078

>  <r_i_glide_einternal>  (272) 
3.63562

>  <r_i_glide_intrahb_reward>  (272) 
-0

>  <i_i_glide_confnum>  (272) 
6

>  <i_i_glide_posenum>  (272) 
8

>  <r_i_glide_eff_state_penalty>  (272) 
0

>  <ligand_id>  (272) 
88

>  <original_smiles>  (272) 
CC1(C)CN(CCC23CC4CC(CC(C4)C2)C3)CC1(C)O

>  <smiles>  (272) 
[H]OC1(C([H])([H])[H])C(C([H])([H])[H])(C([H])([H])[H])C([H])([H])[N+]([H])(C([H])([H])C([H])([H])C23C([H])([H])C4([H])C([H])([H])C([H])(C([H])([H])C([H])(C4([H])[H])C2([H])[H])C3([H])[H])C1([H])[H]

$$$$
88:0:2
     RDKit          3D

 55 58  0  0  1  0  0  0  0  0999 V2000
    3.0744    0.0797    4.0111 C   0  0  0  0  0  0  0  0  0  0  0  0
    1.5431    0.3430    3.9938 C   0  0  0  0  0  0  0  0  0  0  0  0
    0.8502   -1.0440    3.9278 C   0  0  0  0  0  0  0  0  0  0  0  0
    1.1246    1.0649    5.2821 C   0  0  0  0  0  0  0  0  0  0  0  0
   -0.0069    1.9257    4.9083 N   0  0  1  0  0  0  0  0  0  0  0  0
   -0.4375    2.8956    5.9330 C   0  0  0  0  0  0  0  0  0  0  0  0
   -0.5589    2.2555    7.3383 C   0  0  0  0  0  0  0  0  0  0  0  0
   -1.0919    3.1579    8.4718 C   0  0  2  0  0  0  0  0  0  0  0  0
   -0.3013    4.4932    8.5538 C   0  0  0  0  0  0  0  0  0  0  0  0
   -0.8389    5.3642    9.7020 C   0  0  1  0  0  0  0  0  0  0  0  0
   -2.3314    5.6596    9.4532 C   0  0  0  0  0  0  0  0  0  0  0  0
   -3.1214    4.3349    9.4257 C   0  0  2  0  0  0  0  0  0  0  0  0
   -2.9444    3.5769   10.7576 C   0  0  0  0  0  0  0  0  0  0  0  0
   -1.4495    3.2976   10.9874 C   0  0  2  0  0  0  0  0  0  0  0  0
   -0.6660    4.6226   11.0404 C   0  0  0  0  0  0  0  0  0  0  0  0
   -0.9149    2.4234    9.8349 C   0  0  0  0  0  0  0  0  0  0  0  0
   -2.6015    3.4605    8.2721 C   0  0  0  0  0  0  0  0  0  0  0  0
    0.3681    2.4920    3.6107 C   0  0  0  0  0  0  0  0  0  0  0  0
    1.0505    1.3338    2.8659 C   0  0  1  0  0  0  0  0  0  0  0  0
    2.1624    1.8325    1.9328 C   0  0  0  0  0  0  0  0  0  0  0  0
    0.0398    0.7519    2.0549 O   0  0  0  0  0  0  0  0  0  0  0  0
    3.3618   -0.6135    4.8131 H   0  0  0  0  0  0  0  0  0  0  0  0
    3.6536    0.9928    4.1685 H   0  0  0  0  0  0  0  0  0  0  0  0
    3.4093   -0.3730    3.0744 H   0  0  0  0  0  0  0  0  0  0  0  0
   -0.2375   -0.9703    3.9493 H   0  0  0  0  0  0  0  0  0  0  0  0
    1.1382   -1.6850    4.7687 H   0  0  0  0  0  0  0  0  0  0  0  0
    1.1301   -1.5705    3.0128 H   0  0  0  0  0  0  0  0  0  0  0  0
    0.8630    0.3596    6.0717 H   0  0  0  0  0  0  0  0  0  0  0  0
    1.9300    1.7136    5.6457 H   0  0  0  0  0  0  0  0  0  0  0  0
    0.2639    3.7334    5.9624 H   0  0  0  0  0  0  0  0  0  0  0  0
   -1.3954    3.3062    5.6178 H   0  0  0  0  0  0  0  0  0  0  0  0
   -1.1812    1.3590    7.2778 H   0  0  0  0  0  0  0  0  0  0  0  0
    0.4267    1.9125    7.6540 H   0  0  0  0  0  0  0  0  0  0  0  0
    0.7625    4.2935    8.6993 H   0  0  0  0  0  0  0  0  0  0  0  0
   -0.3886    5.0655    7.6306 H   0  0  0  0  0  0  0  0  0  0  0  0
   -0.2798    6.2987    9.7314 H   0  0  0  0  0  0  0  0  0  0  0  0
   -2.7174    6.3181   10.2289 H   0  0  0  0  0  0  0  0  0  0  0  0
   -2.4540    6.1864    8.5064 H   0  0  0  0  0  0  0  0  0  0  0  0
   -4.1779    4.5407    9.2629 H   0  0  0  0  0  0  0  0  0  0  0  0
   -3.3460    4.1430   11.5976 H   0  0  0  0  0  0  0  0  0  0  0  0
   -3.5000    2.6402   10.7425 H   0  0  0  0  0  0  0  0  0  0  0  0
   -1.3228    2.7707   11.9326 H   0  0  0  0  0  0  0  0  0  0  0  0
    0.3898    4.4270   11.2333 H   0  0  0  0  0  0  0  0  0  0  0  0
   -1.0244    5.2385   11.8648 H   0  0  0  0  0  0  0  0  0  0  0  0
   -1.4314    1.4628    9.8268 H   0  0  0  0  0  0  0  0  0  0  0  0
    0.1374    2.1925   10.0151 H   0  0  0  0  0  0  0  0  0  0  0  0
   -2.7784    3.9740    7.3272 H   0  0  0  0  0  0  0  0  0  0  0  0
   -3.1727    2.5320    8.2315 H   0  0  0  0  0  0  0  0  0  0  0  0
   -0.4995    2.8865    3.0845 H   0  0  0  0  0  0  0  0  0  0  0  0
    1.0799    3.3095    3.7650 H   0  0  0  0  0  0  0  0  0  0  0  0
    2.9825    2.3214    2.4663 H   0  0  0  0  0  0  0  0  0  0  0  0
    1.7702    2.5966    1.2762 H   0  0  0  0  0  0  0  0  0  0  0  0
    2.5866    1.0180    1.3357 H   0  0  0  0  0  0  0  0  0  0  0  0
   -0.0420    1.2293    1.2324 H   0  0  0  0  0  0  0  0  0  0  0  0
   -0.7871    1.3035    4.7156 H   0  0  0  0  0  0  0  0  0  0  0  0
  1  2  1  0
  1 22  1  0
  1 23  1  0
  1 24  1  0
  2 19  1  0
  2  3  1  0
  2  4  1  0
  3 25  1  0
  3 26  1  0
  3 27  1  0
  4  5  1  0
  4 28  1  0
  4 29  1  0
  5  6  1  0
  5 18  1  0
  5 55  1  6
  6  7  1  0
  6 30  1  0
  6 31  1  0
  8  7  1  6
  7 32  1  0
  7 33  1  0
  8 16  1  0
  8 17  1  0
  8  9  1  0
  9 10  1  0
  9 34  1  0
  9 35  1  0
 10 15  1  0
 10 11  1  0
 10 36  1  1
 11 12  1  0
 11 37  1  0
 11 38  1  0
 12 13  1  0
 12 17  1  0
 12 39  1  6
 13 14  1  0
 13 40  1  0
 13 41  1  0
 14 15  1  0
 14 16  1  0
 14 42  1  1
 15 43  1  0
 15 44  1  0
 16 45  1  0
 16 46  1  0
 17 47  1  0
 17 48  1  0
 18 19  1  0
 18 49  1  0
 18 50  1  0
 19 20  1  0
 19 21  1  6
 20 51  1  0
 20 52  1  0
 20 53  1  0
 21 54  1  0
M  CHG  1   5   1
M  END
>  <i_m_ct_stereo_status>  (273) 
1

>  <s_m_source_file>  (273) 
/var/tmp/pbs.5076255.sched01/tmp4tnmxshi/11480k6dy83.sdf

>  <i_m_source_file_index>  (273) 
10

>  <i_lp_mmshare_version>  (273) 
48012

>  <i_f3d_flags>  (273) 
0

>  <s_epik_input>  (273) 
W0NIM11DMShbQ0gzXSlbQ0gyXU4oW0NIMl1bQ0BdMShbQ0gzXSlbT0hdKVtDSDJdW0NIMl1DMjNbQ0gyXVtDQEhdNFtDSDJdW0NAQEhdKFtDSDJdMylbQ0gyXVtDQEhdKFtDSDJdNClbQ0gyXTI=

>  <s_epik_cmdline>  (273) 
J2VwaWtfcHl0aG9uJywgJy1waHQnLCAnMi4wJywgJy1waCcsICc3LjAnLCAnLXRuJywgJzgnLCAnLW1hJywgJzIwMCcsICctaW1hZScsICc8aW5maWxlLm1hZT4nLCAnLW9tYWUnLCAnPG91dGZpbGUubWFlPic=

>  <r_epik_Ionization_Penalty>  (273) 
0.000475904

>  <r_epik_Ionization_Penalty_Charging>  (273) 
0.000475902

>  <r_epik_Ionization_Penalty_Neutral>  (273) 
2.81147e-09

>  <r_epik_State_Penalty>  (273) 
0.000295101

>  <r_epik_Charging_Adjusted_Penalty>  (273) 
0.000771003

>  <i_epik_Tot_Q>  (273) 
1

>  <i_epik_Tot_abs_Q>  (273) 
1

>  <s_lp_Force_Field>  (273) 
OPLS3e

>  <r_lp_Energy>  (273) 
15.4235

>  <b_lp_Chiralities_Consistent>  (273) 
1

>  <s_lp_Variant>  (273) 
88:0-1

>  <s_i_glide_gridfile>  (273) 
pfpi4k_grid

>  <i_i_glide_lignum>  (273) 
10

>  <i_i_glide_rotatable_bonds>  (273) 
4

>  <r_i_docking_score>  (273) 
-1.93154

>  <r_i_glide_ligand_efficiency>  (273) 
-0.0919779

>  <r_i_glide_ligand_efficiency_sa>  (273) 
-0.25376

>  <r_i_glide_ligand_efficiency_ln>  (273) 
-0.477569

>  <r_i_glide_gscore>  (273) 
-1.93154

>  <r_i_glide_lipo>  (273) 
-0.138794

>  <r_i_glide_hbond>  (273) 
0

>  <r_i_glide_metal>  (273) 
-0

>  <r_i_glide_rewards>  (273) 
-1.41491

>  <r_i_glide_evdw>  (273) 
-15.2622

>  <r_i_glide_ecoul>  (273) 
-1.63669

>  <r_i_glide_erotb>  (273) 
0.640288

>  <r_i_glide_esite>  (273) 
-0.00950109

>  <r_i_glide_emodel>  (273) 
-18.2938

>  <r_i_glide_energy>  (273) 
-16.8989

>  <r_i_glide_einternal>  (273) 
1.80394

>  <r_i_glide_intrahb_reward>  (273) 
-0

>  <i_i_glide_confnum>  (273) 
1

>  <i_i_glide_posenum>  (273) 
1

>  <r_i_glide_eff_state_penalty>  (273) 
0

>  <ligand_id>  (273) 
88

>  <original_smiles>  (273) 
CC1(C)CN(CCC23CC4CC(CC(C4)C2)C3)CC1(C)O

>  <smiles>  (273) 
[H]OC1(C([H])([H])[H])C(C([H])([H])[H])(C([H])([H])[H])C([H])([H])[N+]([H])(C([H])([H])C([H])([H])C23C([H])([H])C4([H])C([H])([H])C([H])(C([H])([H])C([H])(C4([H])[H])C2([H])[H])C3([H])[H])C1([H])[H]

$$$$
89:0:0
     RDKit          3D

 65 71  0  0  1  0  0  0  0  0999 V2000
    1.5132   -4.8610    3.2585 C   0  0  0  0  0  0  0  0  0  0  0  0
    2.6920   -5.4859    2.4386 C   0  0  1  0  0  0  0  0  0  0  0  0
    2.2962   -5.6180    0.9130 C   0  0  1  0  0  0  0  0  0  0  0  0
    0.9387   -5.9650    0.7102 O   0  0  0  0  0  0  0  0  0  0  0  0
    2.6259   -4.2162    0.3831 C   0  0  2  0  0  0  0  0  0  0  0  0
    2.7413   -3.8314   -0.9949 O   0  0  0  0  0  0  0  0  0  0  0  0
    3.9630   -3.1440   -1.0816 C   0  0  1  0  0  0  0  0  0  0  0  0
    4.0907   -1.9444   -1.7214 O   0  0  0  0  0  0  0  0  0  0  0  0
    5.2671   -1.4274   -1.1570 C   0  0  0  0  0  0  0  0  0  0  0  0
    5.5488   -2.1080    0.0510 O   0  0  0  0  0  0  0  0  0  0  0  0
    4.3076   -2.7156    0.3110 C   0  0  2  0  0  0  0  0  0  0  0  0
    4.0358   -4.0601    0.9345 C   0  0  1  0  0  0  0  0  0  0  0  0
    3.8481   -4.3863    2.4264 C   0  0  2  0  0  0  0  0  0  0  0  0
    5.1823   -4.7252    3.1358 C   0  0  0  0  0  0  0  0  0  0  0  0
    5.1356   -5.9345    4.0682 C   0  0  0  0  0  0  0  0  0  0  0  0
    4.5249   -7.2043    3.4196 C   0  0  2  0  0  0  0  0  0  0  0  0
    4.5378   -8.3064    4.5199 C   0  0  0  0  0  0  0  0  0  0  0  0
    3.9186   -9.6349    4.0641 C   0  0  2  0  0  0  0  0  0  0  0  0
    4.0431  -10.5957    5.2925 C   0  0  0  0  0  0  0  0  0  0  0  0
    4.7609  -10.2315    2.9078 C   0  0  0  0  0  0  0  0  0  0  0  0
    5.1872   -9.2649    1.7861 C   0  0  1  0  0  0  0  0  0  0  0  0
    4.3338   -9.4053    0.6788 O   0  0  0  0  0  0  0  0  0  0  0  0
    5.4062   -7.7799    2.2393 C   0  0  1  0  0  0  0  0  0  0  0  0
    5.4794   -6.9724    1.0970 O   0  0  0  0  0  0  0  0  0  0  0  0
    2.4227   -9.3413    3.5946 C   0  0  0  0  0  0  0  0  0  0  0  0
    2.2334   -8.1004    2.6462 C   0  0  0  0  0  0  0  0  0  0  0  0
    3.0318   -6.8716    3.1419 C   0  0  2  0  0  0  0  0  0  0  0  0
    1.8870  -10.4447    2.9437 O   0  0  0  0  0  0  0  0  0  0  0  0
    1.3788  -11.3143    3.9134 C   0  0  0  0  0  0  0  0  0  0  0  0
    0.9913  -10.3260    5.0176 C   0  0  0  0  0  0  0  0  0  0  0  0
    1.6522   -9.0973    4.7077 O   0  0  0  0  0  0  0  0  0  0  0  0
    0.6604   -5.5320    3.3365 H   0  0  0  0  0  0  0  0  0  0  0  0
    1.1448   -3.9267    2.8383 H   0  0  0  0  0  0  0  0  0  0  0  0
    1.8210   -4.6242    4.2784 H   0  0  0  0  0  0  0  0  0  0  0  0
    2.9144   -6.3600    0.4096 H   0  0  0  0  0  0  0  0  0  0  0  0
    0.8310   -6.8914    0.8959 H   0  0  0  0  0  0  0  0  0  0  0  0
    1.9517   -3.4850    0.8291 H   0  0  0  0  0  0  0  0  0  0  0  0
    4.6953   -3.8326   -1.5174 H   0  0  0  0  0  0  0  0  0  0  0  0
    6.0905   -1.5868   -1.8558 H   0  0  0  0  0  0  0  0  0  0  0  0
    5.1643   -0.3566   -0.9804 H   0  0  0  0  0  0  0  0  0  0  0  0
    3.6115   -1.9513    0.6691 H   0  0  0  0  0  0  0  0  0  0  0  0
    4.7035   -4.7896    0.4836 H   0  0  0  0  0  0  0  0  0  0  0  0
    3.4764   -3.4715    2.8880 H   0  0  0  0  0  0  0  0  0  0  0  0
    5.9871   -4.8810    2.4198 H   0  0  0  0  0  0  0  0  0  0  0  0
    5.5033   -3.8576    3.7080 H   0  0  0  0  0  0  0  0  0  0  0  0
    6.1392   -6.1450    4.4423 H   0  0  0  0  0  0  0  0  0  0  0  0
    4.5530   -5.6624    4.9508 H   0  0  0  0  0  0  0  0  0  0  0  0
    5.5694   -8.4858    4.8355 H   0  0  0  0  0  0  0  0  0  0  0  0
    4.0224   -7.9521    5.4181 H   0  0  0  0  0  0  0  0  0  0  0  0
    3.7964  -11.6268    5.0935 H   0  0  0  0  0  0  0  0  0  0  0  0
    3.4498  -10.2517    6.1273 H   0  0  0  0  0  0  0  0  0  0  0  0
    5.0557  -10.6955    5.6296 H   0  0  0  0  0  0  0  0  0  0  0  0
    5.6873  -10.5937    3.3544 H   0  0  0  0  0  0  0  0  0  0  0  0
    4.2933  -11.1272    2.5051 H   0  0  0  0  0  0  0  0  0  0  0  0
    6.1489   -9.6244    1.4121 H   0  0  0  0  0  0  0  0  0  0  0  0
    4.2409  -10.3660    0.4701 H   0  0  0  0  0  0  0  0  0  0  0  0
    6.4233   -7.7778    2.6351 H   0  0  0  0  0  0  0  0  0  0  0  0
    4.6344   -6.9994    0.6671 H   0  0  0  0  0  0  0  0  0  0  0  0
    2.4840   -8.3523    1.6287 H   0  0  0  0  0  0  0  0  0  0  0  0
    1.1703   -7.8742    2.6210 H   0  0  0  0  0  0  0  0  0  0  0  0
    2.6288   -6.7413    4.1475 H   0  0  0  0  0  0  0  0  0  0  0  0
    0.5776  -11.9580    3.6068 H   0  0  0  0  0  0  0  0  0  0  0  0
    2.1428  -12.0150    4.1978 H   0  0  0  0  0  0  0  0  0  0  0  0
   -0.0925  -10.1488    5.0251 H   0  0  0  0  0  0  0  0  0  0  0  0
    1.2636  -10.6368    6.0403 H   0  0  0  0  0  0  0  0  0  0  0  0
  2  1  1  1
  1 32  1  0
  1 33  1  0
  1 34  1  0
  2 13  1  0
  2 27  1  0
  2  3  1  0
  3  4  1  0
  3  5  1  0
  3 35  1  6
  4 36  1  0
  5 12  1  0
  5  6  1  0
  5 37  1  1
  6  7  1  0
  7 11  1  0
  7  8  1  0
  7 38  1  6
  8  9  1  0
  9 10  1  0
  9 39  1  0
  9 40  1  0
 10 11  1  0
 11 12  1  0
 11 41  1  1
 12 13  1  0
 12 42  1  6
 13 14  1  0
 13 43  1  1
 14 15  1  0
 14 44  1  0
 14 45  1  0
 16 15  1  1
 15 46  1  0
 15 47  1  0
 16 23  1  0
 16 27  1  0
 16 17  1  0
 17 18  1  0
 17 48  1  0
 17 49  1  0
 18 19  1  1
 18 20  1  0
 18 25  1  0
 19 50  1  0
 19 51  1  0
 19 52  1  0
 20 21  1  0
 20 53  1  0
 20 54  1  0
 21 22  1  0
 21 23  1  0
 21 55  1  6
 22 56  1  0
 23 24  1  0
 23 57  1  1
 24 58  1  0
 25 31  1  0
 25 26  1  0
 25 28  1  0
 26 27  1  0
 26 59  1  0
 26 60  1  0
 27 61  1  1
 28 29  1  0
 29 30  1  0
 29 62  1  0
 29 63  1  0
 30 31  1  0
 30 64  1  0
 30 65  1  0
M  END
>  <i_m_ct_stereo_status>  (274) 
1

>  <s_m_source_file>  (274) 
/var/tmp/pbs.5076255.sched01/tmp4tnmxshi/11480k6dy83.sdf

>  <i_m_source_file_index>  (274) 
11

>  <i_lp_mmshare_version>  (274) 
48012

>  <i_f3d_flags>  (274) 
0

>  <s_epik_input>  (274) 
W09IXVtDQEBIXTFbQ0BIXShbT0hdKVtDSDJdW0NAXShbQ0gyXTIpKFtDSDNdKUMzKE9bQ0gyXVtDSDJdTzMpW0NIMl1bQ0BASF0oW0NAXTEyNClbQ0BAXTUoW0NIM10pW0NAQEhdKFtDSDJdW0NIMl00KVtDQEhdNltDQEhdKFtDQEBIXTVbT0hdKU9bQ0BASF03W0NAQEhdNk9bQ0gyXU83

>  <s_epik_cmdline>  (274) 
J2VwaWtfcHl0aG9uJywgJy1waHQnLCAnMi4wJywgJy1waCcsICc3LjAnLCAnLXRuJywgJzgnLCAnLW1hJywgJzIwMCcsICctaW1hZScsICc8aW5maWxlLm1hZT4nLCAnLW9tYWUnLCAnPG91dGZpbGUubWFlPic=

>  <r_lp_tautomer_probability>  (274) 
1

>  <r_epik_Ionization_Penalty>  (274) 
5.41547e-07

>  <r_epik_Ionization_Penalty_Charging>  (274) 
0

>  <r_epik_Ionization_Penalty_Neutral>  (274) 
5.41547e-07

>  <r_epik_State_Penalty>  (274) 
-0

>  <r_epik_Charging_Adjusted_Penalty>  (274) 
0

>  <i_epik_Tot_Q>  (274) 
0

>  <i_epik_Tot_abs_Q>  (274) 
0

>  <s_epik_Chemistry_Notes>  (274) 
This compound contains an acetal/aminal-like group ( X-CH(R)-Y where X, Y are N, S, or O) that may be acid/base labile, releasing an aldehyde.

>  <s_lp_Force_Field>  (274) 
OPLS3e

>  <r_lp_Energy>  (274) 
84.2126

>  <b_lp_Chiralities_Consistent>  (274) 
1

>  <s_lp_Variant>  (274) 
89:0-1

>  <s_i_glide_gridfile>  (274) 
pfpi4k_grid

>  <i_i_glide_lignum>  (274) 
11

>  <i_i_glide_rotatable_bonds>  (274) 
3

>  <r_i_docking_score>  (274) 
-3.38553

>  <r_i_glide_ligand_efficiency>  (274) 
-0.109211

>  <r_i_glide_ligand_efficiency_sa>  (274) 
-0.343072

>  <r_i_glide_ligand_efficiency_ln>  (274) 
-0.763541

>  <r_i_glide_gscore>  (274) 
-3.38553

>  <r_i_glide_lipo>  (274) 
-0.200738

>  <r_i_glide_hbond>  (274) 
0

>  <r_i_glide_metal>  (274) 
-0

>  <r_i_glide_rewards>  (274) 
-0.419241

>  <r_i_glide_evdw>  (274) 
-26.0257

>  <r_i_glide_ecoul>  (274) 
-9.36569

>  <r_i_glide_erotb>  (274) 
0

>  <r_i_glide_esite>  (274) 
-0.0594129

>  <r_i_glide_emodel>  (274) 
-42.1155

>  <r_i_glide_energy>  (274) 
-35.3914

>  <r_i_glide_einternal>  (274) 
0.829755

>  <r_i_glide_intrahb_reward>  (274) 
-0

>  <i_i_glide_confnum>  (274) 
4

>  <i_i_glide_posenum>  (274) 
4

>  <r_i_glide_eff_state_penalty>  (274) 
0

>  <ligand_id>  (274) 
89

>  <original_smiles>  (274) 
CC12C(O)C3OC4OCOC4C3C1CCC13CC(C)(CC(O)C1O)C1(CC32)OCCO1

>  <smiles>  (274) 
[H]OC1([H])C([H])([H])C2(C([H])([H])[H])C([H])([H])C3(C([H])([H])C([H])([H])C4([H])C5([H])C6([H])OC([H])([H])OC6([H])OC5([H])C([H])(O[H])C4(C([H])([H])[H])C3([H])C([H])([H])C23OC([H])([H])C([H])([H])O3)C1([H])O[H]

$$$$
89:0:1
     RDKit          3D

 65 71  0  0  1  0  0  0  0  0999 V2000
    2.0808   -3.9581    2.7020 C   0  0  0  0  0  0  0  0  0  0  0  0
    3.1564   -5.0214    2.3138 C   0  0  1  0  0  0  0  0  0  0  0  0
    3.2477   -5.1733    0.7429 C   0  0  1  0  0  0  0  0  0  0  0  0
    2.0084   -5.0563    0.0801 O   0  0  0  0  0  0  0  0  0  0  0  0
    4.1691   -4.0104    0.3704 C   0  0  2  0  0  0  0  0  0  0  0  0
    4.8253   -3.8318   -0.8947 O   0  0  0  0  0  0  0  0  0  0  0  0
    6.1598   -3.5913   -0.5643 C   0  0  1  0  0  0  0  0  0  0  0  0
    6.8957   -2.5706   -1.1059 O   0  0  0  0  0  0  0  0  0  0  0  0
    7.9520   -2.4658   -0.1706 C   0  0  0  0  0  0  0  0  0  0  0  0
    7.5734   -3.1168    1.0231 O   0  0  0  0  0  0  0  0  0  0  0  0
    6.1837   -3.1647    0.8749 C   0  0  2  0  0  0  0  0  0  0  0  0
    5.2837   -4.2646    1.3669 C   0  0  1  0  0  0  0  0  0  0  0  0
    4.5423   -4.3543    2.7131 C   0  0  2  0  0  0  0  0  0  0  0  0
    5.3931   -5.0505    3.8065 C   0  0  0  0  0  0  0  0  0  0  0  0
    4.6402   -6.0815    4.6561 C   0  0  0  0  0  0  0  0  0  0  0  0
    3.8612   -7.1353    3.8364 C   0  0  2  0  0  0  0  0  0  0  0  0
    3.1377   -8.0269    4.8718 C   0  0  0  0  0  0  0  0  0  0  0  0
    2.2721   -9.0975    4.1897 C   0  0  2  0  0  0  0  0  0  0  0  0
    1.5524   -9.9344    5.2781 C   0  0  0  0  0  0  0  0  0  0  0  0
    3.1684  -10.0784    3.3858 C   0  0  0  0  0  0  0  0  0  0  0  0
    4.2577   -9.4497    2.5049 C   0  0  1  0  0  0  0  0  0  0  0  0
    3.8411   -9.4499    1.1484 O   0  0  0  0  0  0  0  0  0  0  0  0
    4.8160   -8.0962    3.0325 C   0  0  1  0  0  0  0  0  0  0  0  0
    5.4975   -7.4781    1.9719 O   0  0  0  0  0  0  0  0  0  0  0  0
    1.1972   -8.3803    3.2855 C   0  0  0  0  0  0  0  0  0  0  0  0
    1.7656   -7.2859    2.3321 C   0  0  0  0  0  0  0  0  0  0  0  0
    2.7536   -6.3508    3.0751 C   0  0  2  0  0  0  0  0  0  0  0  0
    0.5418   -9.3394    2.5159 O   0  0  0  0  0  0  0  0  0  0  0  0
   -0.8251   -9.0069    2.5293 C   0  0  0  0  0  0  0  0  0  0  0  0
   -0.9665   -8.4195    3.9211 C   0  0  0  0  0  0  0  0  0  0  0  0
    0.2561   -7.7327    4.0917 O   0  0  0  0  0  0  0  0  0  0  0  0
    1.0722   -4.3110    2.4939 H   0  0  0  0  0  0  0  0  0  0  0  0
    2.2064   -3.0060    2.1828 H   0  0  0  0  0  0  0  0  0  0  0  0
    2.1186   -3.7307    3.7703 H   0  0  0  0  0  0  0  0  0  0  0  0
    3.7123   -6.1198    0.4607 H   0  0  0  0  0  0  0  0  0  0  0  0
    2.1977   -5.1032   -0.8556 H   0  0  0  0  0  0  0  0  0  0  0  0
    3.6895   -3.0551    0.5812 H   0  0  0  0  0  0  0  0  0  0  0  0
    6.6995   -4.5288   -0.7196 H   0  0  0  0  0  0  0  0  0  0  0  0
    8.8591   -2.9443   -0.5543 H   0  0  0  0  0  0  0  0  0  0  0  0
    8.1721   -1.4195    0.0518 H   0  0  0  0  0  0  0  0  0  0  0  0
    5.7417   -2.1652    1.0069 H   0  0  0  0  0  0  0  0  0  0  0  0
    5.7617   -5.2195    1.1684 H   0  0  0  0  0  0  0  0  0  0  0  0
    4.3649   -3.3296    3.0578 H   0  0  0  0  0  0  0  0  0  0  0  0
    6.2763   -5.5148    3.3659 H   0  0  0  0  0  0  0  0  0  0  0  0
    5.7891   -4.2851    4.4773 H   0  0  0  0  0  0  0  0  0  0  0  0
    5.3325   -6.5685    5.3417 H   0  0  0  0  0  0  0  0  0  0  0  0
    3.9420   -5.5403    5.2966 H   0  0  0  0  0  0  0  0  0  0  0  0
    3.8740   -8.5083    5.5164 H   0  0  0  0  0  0  0  0  0  0  0  0
    2.5196   -7.4321    5.5436 H   0  0  0  0  0  0  0  0  0  0  0  0
    0.9125  -10.7033    4.8347 H   0  0  0  0  0  0  0  0  0  0  0  0
    0.9340   -9.3108    5.9284 H   0  0  0  0  0  0  0  0  0  0  0  0
    2.2617  -10.4477    5.9345 H   0  0  0  0  0  0  0  0  0  0  0  0
    3.7125  -10.6783    4.1202 H   0  0  0  0  0  0  0  0  0  0  0  0
    2.5777  -10.8085    2.8265 H   0  0  0  0  0  0  0  0  0  0  0  0
    5.0972  -10.1450    2.4803 H   0  0  0  0  0  0  0  0  0  0  0  0
    3.8157  -10.3644    0.8646 H   0  0  0  0  0  0  0  0  0  0  0  0
    5.5909   -8.3723    3.7507 H   0  0  0  0  0  0  0  0  0  0  0  0
    4.8706   -7.3631    1.2718 H   0  0  0  0  0  0  0  0  0  0  0  0
    2.2213   -7.7337    1.4568 H   0  0  0  0  0  0  0  0  0  0  0  0
    0.9191   -6.7188    1.9393 H   0  0  0  0  0  0  0  0  0  0  0  0
    2.1402   -5.9747    3.8944 H   0  0  0  0  0  0  0  0  0  0  0  0
   -1.0387   -8.2717    1.7549 H   0  0  0  0  0  0  0  0  0  0  0  0
   -1.4463   -9.8828    2.3597 H   0  0  0  0  0  0  0  0  0  0  0  0
   -1.8386   -7.7808    4.0497 H   0  0  0  0  0  0  0  0  0  0  0  0
   -1.0157   -9.2181    4.6556 H   0  0  0  0  0  0  0  0  0  0  0  0
  2  1  1  6
  1 32  1  0
  1 33  1  0
  1 34  1  0
  2 13  1  0
  2 27  1  0
  2  3  1  0
  3  4  1  0
  3  5  1  0
  3 35  1  1
  4 36  1  0
  5 12  1  0
  5  6  1  0
  5 37  1  1
  6  7  1  0
  7 11  1  0
  7  8  1  0
  7 38  1  1
  8  9  1  0
  9 10  1  0
  9 39  1  0
  9 40  1  0
 10 11  1  0
 11 12  1  0
 11 41  1  6
 12 13  1  0
 12 42  1  6
 13 14  1  0
 13 43  1  1
 14 15  1  0
 14 44  1  0
 14 45  1  0
 16 15  1  1
 15 46  1  0
 15 47  1  0
 16 23  1  0
 16 27  1  0
 16 17  1  0
 17 18  1  0
 17 48  1  0
 17 49  1  0
 18 19  1  1
 18 20  1  0
 18 25  1  0
 19 50  1  0
 19 51  1  0
 19 52  1  0
 20 21  1  0
 20 53  1  0
 20 54  1  0
 21 22  1  0
 21 23  1  0
 21 55  1  6
 22 56  1  0
 23 24  1  0
 23 57  1  1
 24 58  1  0
 25 31  1  0
 25 26  1  0
 25 28  1  0
 26 27  1  0
 26 59  1  0
 26 60  1  0
 27 61  1  1
 28 29  1  0
 29 30  1  0
 29 62  1  0
 29 63  1  0
 30 31  1  0
 30 64  1  0
 30 65  1  0
M  END
>  <i_m_ct_stereo_status>  (275) 
1

>  <s_m_source_file>  (275) 
/var/tmp/pbs.5076255.sched01/tmp4tnmxshi/11480k6dy83.sdf

>  <i_m_source_file_index>  (275) 
11

>  <i_lp_mmshare_version>  (275) 
48012

>  <i_f3d_flags>  (275) 
0

>  <s_epik_input>  (275) 
W09IXVtDQEBIXTFbQ0BIXShbT0hdKVtDSDJdW0NAXShbQ0gyXTIpKFtDSDNdKUMzKE9bQ0gyXVtDSDJdTzMpW0NIMl1bQ0BASF0oW0NAXTEyNClbQ0BAXTUoW0NIM10pW0NAQEhdKFtDSDJdW0NIMl00KVtDQEhdNltDQEhdKFtDQEBIXTVbT0hdKU9bQ0BASF03W0NAQEhdNk9bQ0gyXU83

>  <s_epik_cmdline>  (275) 
J2VwaWtfcHl0aG9uJywgJy1waHQnLCAnMi4wJywgJy1waCcsICc3LjAnLCAnLXRuJywgJzgnLCAnLW1hJywgJzIwMCcsICctaW1hZScsICc8aW5maWxlLm1hZT4nLCAnLW9tYWUnLCAnPG91dGZpbGUubWFlPic=

>  <r_lp_tautomer_probability>  (275) 
1

>  <r_epik_Ionization_Penalty>  (275) 
5.41547e-07

>  <r_epik_Ionization_Penalty_Charging>  (275) 
0

>  <r_epik_Ionization_Penalty_Neutral>  (275) 
5.41547e-07

>  <r_epik_State_Penalty>  (275) 
-0

>  <r_epik_Charging_Adjusted_Penalty>  (275) 
0

>  <i_epik_Tot_Q>  (275) 
0

>  <i_epik_Tot_abs_Q>  (275) 
0

>  <s_epik_Chemistry_Notes>  (275) 
This compound contains an acetal/aminal-like group ( X-CH(R)-Y where X, Y are N, S, or O) that may be acid/base labile, releasing an aldehyde.

>  <s_lp_Force_Field>  (275) 
OPLS3e

>  <r_lp_Energy>  (275) 
84.2126

>  <b_lp_Chiralities_Consistent>  (275) 
1

>  <s_lp_Variant>  (275) 
89:0-1

>  <s_i_glide_gridfile>  (275) 
pfpi4k_grid

>  <i_i_glide_lignum>  (275) 
11

>  <i_i_glide_rotatable_bonds>  (275) 
3

>  <r_i_docking_score>  (275) 
-3.2259

>  <r_i_glide_ligand_efficiency>  (275) 
-0.104061

>  <r_i_glide_ligand_efficiency_sa>  (275) 
-0.326896

>  <r_i_glide_ligand_efficiency_ln>  (275) 
-0.727539

>  <r_i_glide_gscore>  (275) 
-3.2259

>  <r_i_glide_lipo>  (275) 
-0.216568

>  <r_i_glide_hbond>  (275) 
-0.0831128

>  <r_i_glide_metal>  (275) 
-0

>  <r_i_glide_rewards>  (275) 
-0.541703

>  <r_i_glide_evdw>  (275) 
-27.7752

>  <r_i_glide_ecoul>  (275) 
-6.53805

>  <r_i_glide_erotb>  (275) 
0

>  <r_i_glide_esite>  (275) 
-0.0150482

>  <r_i_glide_emodel>  (275) 
-41.6288

>  <r_i_glide_energy>  (275) 
-34.3132

>  <r_i_glide_einternal>  (275) 
0.788674

>  <r_i_glide_intrahb_reward>  (275) 
-0

>  <i_i_glide_confnum>  (275) 
3

>  <i_i_glide_posenum>  (275) 
36

>  <r_i_glide_eff_state_penalty>  (275) 
0

>  <ligand_id>  (275) 
89

>  <original_smiles>  (275) 
CC12C(O)C3OC4OCOC4C3C1CCC13CC(C)(CC(O)C1O)C1(CC32)OCCO1

>  <smiles>  (275) 
[H]OC1([H])C([H])([H])C2(C([H])([H])[H])C([H])([H])C3(C([H])([H])C([H])([H])C4([H])C5([H])C6([H])OC([H])([H])OC6([H])OC5([H])C([H])(O[H])C4(C([H])([H])[H])C3([H])C([H])([H])C23OC([H])([H])C([H])([H])O3)C1([H])O[H]

$$$$
89:0:2
     RDKit          3D

 65 71  0  0  1  0  0  0  0  0999 V2000
    2.0926   -3.8869    2.6808 C   0  0  0  0  0  0  0  0  0  0  0  0
    3.1329   -4.9873    2.3086 C   0  0  1  0  0  0  0  0  0  0  0  0
    3.2371   -5.1693    0.7444 C   0  0  1  0  0  0  0  0  0  0  0  0
    1.9920   -5.0651    0.0801 O   0  0  0  0  0  0  0  0  0  0  0  0
    4.1756   -4.0180    0.3661 C   0  0  2  0  0  0  0  0  0  0  0  0
    4.8540   -3.8867   -0.8933 O   0  0  0  0  0  0  0  0  0  0  0  0
    6.1835   -3.6711   -0.5364 C   0  0  1  0  0  0  0  0  0  0  0  0
    6.9624   -2.7018   -1.1239 O   0  0  0  0  0  0  0  0  0  0  0  0
    8.0038   -2.5847   -0.1848 C   0  0  0  0  0  0  0  0  0  0  0  0
    7.6086   -3.1858    1.0330 O   0  0  0  0  0  0  0  0  0  0  0  0
    6.2141   -3.2039    0.8774 C   0  0  2  0  0  0  0  0  0  0  0  0
    5.2801   -4.2821    1.3793 C   0  0  1  0  0  0  0  0  0  0  0  0
    4.5321   -4.3450    2.7177 C   0  0  2  0  0  0  0  0  0  0  0  0
    5.3629   -5.0656    3.8045 C   0  0  0  0  0  0  0  0  0  0  0  0
    4.5854   -6.0676    4.6597 C   0  0  0  0  0  0  0  0  0  0  0  0
    3.7745   -7.1021    3.8427 C   0  0  2  0  0  0  0  0  0  0  0  0
    3.0237   -7.9629    4.8859 C   0  0  0  0  0  0  0  0  0  0  0  0
    2.1403   -9.0201    4.2193 C   0  0  2  0  0  0  0  0  0  0  0  0
    1.3804   -9.8215    5.3051 C   0  0  0  0  0  0  0  0  0  0  0  0
    2.9927  -10.0284    3.4141 C   0  0  0  0  0  0  0  0  0  0  0  0
    4.1087   -9.4405    2.5383 C   0  0  1  0  0  0  0  0  0  0  0  0
    3.7179   -9.4498    1.1776 O   0  0  0  0  0  0  0  0  0  0  0  0
    4.6988   -8.0927    3.0482 C   0  0  1  0  0  0  0  0  0  0  0  0
    5.4235   -7.5110    1.9928 O   0  0  0  0  0  0  0  0  0  0  0  0
    1.0616   -8.2696    3.2953 C   0  0  0  0  0  0  0  0  0  0  0  0
    1.6796   -7.2113    2.3437 C   0  0  0  0  0  0  0  0  0  0  0  0
    2.6885   -6.2940    3.0796 C   0  0  2  0  0  0  0  0  0  0  0  0
    0.3912   -9.2203    2.5454 O   0  0  0  0  0  0  0  0  0  0  0  0
   -0.9635   -8.8518    2.5469 C   0  0  0  0  0  0  0  0  0  0  0  0
   -1.0995   -8.2441    3.9315 C   0  0  0  0  0  0  0  0  0  0  0  0
    0.1450   -7.6045    4.1066 O   0  0  0  0  0  0  0  0  0  0  0  0
    1.0734   -4.2124    2.4840 H   0  0  0  0  0  0  0  0  0  0  0  0
    2.2438   -2.9439    2.1535 H   0  0  0  0  0  0  0  0  0  0  0  0
    2.1354   -3.6498    3.7449 H   0  0  0  0  0  0  0  0  0  0  0  0
    3.6849   -6.1242    0.4772 H   0  0  0  0  0  0  0  0  0  0  0  0
    2.1907   -5.0717   -0.8483 H   0  0  0  0  0  0  0  0  0  0  0  0
    3.7148   -3.0517    0.5569 H   0  0  0  0  0  0  0  0  0  0  0  0
    6.6987   -4.6369   -0.5947 H   0  0  0  0  0  0  0  0  0  0  0  0
    8.9017   -3.0830   -0.5665 H   0  0  0  0  0  0  0  0  0  0  0  0
    8.2457   -1.5333   -0.0060 H   0  0  0  0  0  0  0  0  0  0  0  0
    5.7886   -2.1927    0.9804 H   0  0  0  0  0  0  0  0  0  0  0  0
    5.7224   -5.2551    1.1913 H   0  0  0  0  0  0  0  0  0  0  0  0
    4.3853   -3.3184    3.0444 H   0  0  0  0  0  0  0  0  0  0  0  0
    6.2345   -5.5520    3.3630 H   0  0  0  0  0  0  0  0  0  0  0  0
    5.7842   -4.3014    4.4670 H   0  0  0  0  0  0  0  0  0  0  0  0
    5.2609   -6.5662    5.3476 H   0  0  0  0  0  0  0  0  0  0  0  0
    3.9008   -5.5003    5.2930 H   0  0  0  0  0  0  0  0  0  0  0  0
    3.7461   -8.4631    5.5383 H   0  0  0  0  0  0  0  0  0  0  0  0
    2.4207   -7.3454    5.5527 H   0  0  0  0  0  0  0  0  0  0  0  0
    0.7201  -10.5747    4.8664 H   0  0  0  0  0  0  0  0  0  0  0  0
    0.7815   -9.1774    5.9518 H   0  0  0  0  0  0  0  0  0  0  0  0
    2.0784  -10.3508    5.9656 H   0  0  0  0  0  0  0  0  0  0  0  0
    3.5175  -10.6379    4.1563 H   0  0  0  0  0  0  0  0  0  0  0  0
    2.3843  -10.7453    2.8614 H   0  0  0  0  0  0  0  0  0  0  0  0
    4.9257  -10.1597    2.5347 H   0  0  0  0  0  0  0  0  0  0  0  0
    3.7253  -10.3613    0.8812 H   0  0  0  0  0  0  0  0  0  0  0  0
    5.4587   -8.3882    3.7702 H   0  0  0  0  0  0  0  0  0  0  0  0
    5.9979   -8.1584    1.6441 H   0  0  0  0  0  0  0  0  0  0  0  0
    2.1277   -7.6821    1.4767 H   0  0  0  0  0  0  0  0  0  0  0  0
    0.8521   -6.6196    1.9387 H   0  0  0  0  0  0  0  0  0  0  0  0
    2.0864   -5.8929    3.8933 H   0  0  0  0  0  0  0  0  0  0  0  0
   -1.1527   -8.1189    1.7619 H   0  0  0  0  0  0  0  0  0  0  0  0
   -1.6092   -9.7128    2.3814 H   0  0  0  0  0  0  0  0  0  0  0  0
   -1.9436   -7.5702    4.0434 H   0  0  0  0  0  0  0  0  0  0  0  0
   -1.2076   -9.0317    4.6763 H   0  0  0  0  0  0  0  0  0  0  0  0
  2  1  1  6
  1 32  1  0
  1 33  1  0
  1 34  1  0
  2 13  1  0
  2 27  1  0
  2  3  1  0
  3  4  1  0
  3  5  1  0
  3 35  1  1
  4 36  1  0
  5 12  1  0
  5  6  1  0
  5 37  1  1
  6  7  1  0
  7 11  1  0
  7  8  1  0
  7 38  1  1
  8  9  1  0
  9 10  1  0
  9 39  1  0
  9 40  1  0
 10 11  1  0
 11 12  1  0
 11 41  1  6
 12 13  1  0
 12 42  1  6
 13 14  1  0
 13 43  1  1
 14 15  1  0
 14 44  1  0
 14 45  1  0
 16 15  1  1
 15 46  1  0
 15 47  1  0
 16 23  1  0
 16 27  1  0
 16 17  1  0
 17 18  1  0
 17 48  1  0
 17 49  1  0
 18 19  1  1
 18 20  1  0
 18 25  1  0
 19 50  1  0
 19 51  1  0
 19 52  1  0
 20 21  1  0
 20 53  1  0
 20 54  1  0
 21 22  1  0
 21 23  1  0
 21 55  1  6
 22 56  1  0
 23 24  1  0
 23 57  1  1
 24 58  1  0
 25 31  1  0
 25 26  1  0
 25 28  1  0
 26 27  1  0
 26 59  1  0
 26 60  1  0
 27 61  1  1
 28 29  1  0
 29 30  1  0
 29 62  1  0
 29 63  1  0
 30 31  1  0
 30 64  1  0
 30 65  1  0
M  END
>  <i_m_ct_stereo_status>  (276) 
1

>  <s_m_source_file>  (276) 
/var/tmp/pbs.5076255.sched01/tmp4tnmxshi/11480k6dy83.sdf

>  <i_m_source_file_index>  (276) 
11

>  <i_lp_mmshare_version>  (276) 
48012

>  <i_f3d_flags>  (276) 
0

>  <s_epik_input>  (276) 
W09IXVtDQEBIXTFbQ0BIXShbT0hdKVtDSDJdW0NAXShbQ0gyXTIpKFtDSDNdKUMzKE9bQ0gyXVtDSDJdTzMpW0NIMl1bQ0BASF0oW0NAXTEyNClbQ0BAXTUoW0NIM10pW0NAQEhdKFtDSDJdW0NIMl00KVtDQEhdNltDQEhdKFtDQEBIXTVbT0hdKU9bQ0BASF03W0NAQEhdNk9bQ0gyXU83

>  <s_epik_cmdline>  (276) 
J2VwaWtfcHl0aG9uJywgJy1waHQnLCAnMi4wJywgJy1waCcsICc3LjAnLCAnLXRuJywgJzgnLCAnLW1hJywgJzIwMCcsICctaW1hZScsICc8aW5maWxlLm1hZT4nLCAnLW9tYWUnLCAnPG91dGZpbGUubWFlPic=

>  <r_lp_tautomer_probability>  (276) 
1

>  <r_epik_Ionization_Penalty>  (276) 
5.41547e-07

>  <r_epik_Ionization_Penalty_Charging>  (276) 
0

>  <r_epik_Ionization_Penalty_Neutral>  (276) 
5.41547e-07

>  <r_epik_State_Penalty>  (276) 
-0

>  <r_epik_Charging_Adjusted_Penalty>  (276) 
0

>  <i_epik_Tot_Q>  (276) 
0

>  <i_epik_Tot_abs_Q>  (276) 
0

>  <s_epik_Chemistry_Notes>  (276) 
This compound contains an acetal/aminal-like group ( X-CH(R)-Y where X, Y are N, S, or O) that may be acid/base labile, releasing an aldehyde.

>  <s_lp_Force_Field>  (276) 
OPLS3e

>  <r_lp_Energy>  (276) 
84.2126

>  <b_lp_Chiralities_Consistent>  (276) 
1

>  <s_lp_Variant>  (276) 
89:0-1

>  <s_i_glide_gridfile>  (276) 
pfpi4k_grid

>  <i_i_glide_lignum>  (276) 
11

>  <i_i_glide_rotatable_bonds>  (276) 
3

>  <r_i_docking_score>  (276) 
-3.0965

>  <r_i_glide_ligand_efficiency>  (276) 
-0.0998871

>  <r_i_glide_ligand_efficiency_sa>  (276) 
-0.313784

>  <r_i_glide_ligand_efficiency_ln>  (276) 
-0.698356

>  <r_i_glide_gscore>  (276) 
-3.0965

>  <r_i_glide_lipo>  (276) 
-0.180134

>  <r_i_glide_hbond>  (276) 
-0.049494

>  <r_i_glide_metal>  (276) 
-0

>  <r_i_glide_rewards>  (276) 
-0.568952

>  <r_i_glide_evdw>  (276) 
-28.6728

>  <r_i_glide_ecoul>  (276) 
-5.6486

>  <r_i_glide_erotb>  (276) 
0

>  <r_i_glide_esite>  (276) 
-0.0169936

>  <r_i_glide_emodel>  (276) 
-40.9764

>  <r_i_glide_energy>  (276) 
-34.3214

>  <r_i_glide_einternal>  (276) 
1.23923

>  <r_i_glide_intrahb_reward>  (276) 
-0

>  <i_i_glide_confnum>  (276) 
1

>  <i_i_glide_posenum>  (276) 
29

>  <r_i_glide_eff_state_penalty>  (276) 
0

>  <ligand_id>  (276) 
89

>  <original_smiles>  (276) 
CC12C(O)C3OC4OCOC4C3C1CCC13CC(C)(CC(O)C1O)C1(CC32)OCCO1

>  <smiles>  (276) 
[H]OC1([H])C([H])([H])C2(C([H])([H])[H])C([H])([H])C3(C([H])([H])C([H])([H])C4([H])C5([H])C6([H])OC([H])([H])OC6([H])OC5([H])C([H])(O[H])C4(C([H])([H])[H])C3([H])C([H])([H])C23OC([H])([H])C([H])([H])O3)C1([H])O[H]

$$$$
90:0:0
     RDKit          3D

 60 64  0  0  1  0  0  0  0  0999 V2000
   -3.3602    3.3336    2.5085 C   0  0  0  0  0  0  0  0  0  0  0  0
   -2.0668    2.7831    3.0675 C   0  0  0  0  0  0  0  0  0  0  0  0
   -1.4227    1.6845    2.6996 C   0  0  0  0  0  0  0  0  0  0  0  0
   -0.1284    1.4809    3.4370 C   0  0  1  0  0  0  0  0  0  0  0  0
    0.9597    1.6445    2.3417 C   0  0  0  0  0  0  0  0  0  0  0  0
    2.3862    1.3166    2.7600 C   0  0  0  0  0  0  0  0  0  0  0  0
    3.0112    0.3972    2.2399 O   0  0  0  0  0  0  0  0  0  0  0  0
    3.0138    2.1762    3.8672 C   0  0  1  0  0  0  0  0  0  0  0  0
    2.9991    3.8782    3.3606 C   0  0  1  0  0  0  0  0  0  0  0  0
    1.9499    5.2854    3.3656 C   0  0  0  0  0  0  0  0  0  0  0  0
    1.0139    5.8334    4.7310 C   0  0  1  0  0  0  0  0  0  0  0  0
   -0.1208    6.5409    4.2872 O   0  0  0  0  0  0  0  0  0  0  0  0
    0.6417    4.6125    5.9674 C   0  0  2  0  0  0  0  0  0  0  0  0
    0.8606    4.8352    7.5605 C   0  0  0  0  0  0  0  0  0  0  0  0
    1.7931    6.0201    7.9312 C   0  0  0  0  0  0  0  0  0  0  0  0
   -0.5009    5.2211    8.1984 C   0  0  0  0  0  0  0  0  0  0  0  0
    1.3024    3.4862    8.3161 C   0  0  0  0  0  0  0  0  0  0  0  0
    2.7075    2.7693    8.1170 C   0  0  0  0  0  0  0  0  0  0  0  0
    3.1155    1.8538    6.8616 C   0  0  0  0  0  0  0  0  0  0  0  0
    2.2483    1.8711    5.4683 C   0  0  2  0  0  0  0  0  0  0  0  0
    1.8092    0.3602    5.5437 C   0  0  0  0  0  0  0  0  0  0  0  0
    0.9833    2.9857    5.6757 C   0  0  1  0  0  0  0  0  0  0  0  0
    2.1662    3.8035    5.3594 C   0  0  0  0  0  0  0  0  0  0  0  0
    3.1517    4.3265    5.9358 O   0  0  0  0  0  0  0  0  0  0  0  0
    1.9598    3.7355    4.0555 O   0  0  0  0  0  0  0  0  0  0  0  0
   -0.2372    2.4964    4.6770 C   0  0  2  0  0  0  0  0  0  0  0  0
   -1.0086    1.7724    5.6218 O   0  0  0  0  0  0  0  0  0  0  0  0
   -1.2965    3.5139    4.1183 C   0  0  0  0  0  0  0  0  0  0  0  0
   -3.1955    4.3262    2.0869 H   0  0  0  0  0  0  0  0  0  0  0  0
   -4.1144    3.3924    3.2895 H   0  0  0  0  0  0  0  0  0  0  0  0
   -3.7549    2.6918    1.7214 H   0  0  0  0  0  0  0  0  0  0  0  0
   -1.7598    0.9991    1.9347 H   0  0  0  0  0  0  0  0  0  0  0  0
   -0.2180    0.4351    3.7298 H   0  0  0  0  0  0  0  0  0  0  0  0
    0.7175    1.0081    1.4827 H   0  0  0  0  0  0  0  0  0  0  0  0
    0.9462    2.6650    1.9636 H   0  0  0  0  0  0  0  0  0  0  0  0
    4.0509    1.8496    3.9159 H   0  0  0  0  0  0  0  0  0  0  0  0
    2.9893    3.7358    2.2796 H   0  0  0  0  0  0  0  0  0  0  0  0
    2.5887    6.1253    3.0801 H   0  0  0  0  0  0  0  0  0  0  0  0
    1.2695    5.2024    2.5092 H   0  0  0  0  0  0  0  0  0  0  0  0
    1.6293    6.5916    5.2107 H   0  0  0  0  0  0  0  0  0  0  0  0
    0.1466    7.1338    3.5851 H   0  0  0  0  0  0  0  0  0  0  0  0
   -0.4324    4.6766    5.9674 H   0  0  0  0  0  0  0  0  0  0  0  0
    1.7895    6.1918    9.0080 H   0  0  0  0  0  0  0  0  0  0  0  0
    1.4592    6.9497    7.4691 H   0  0  0  0  0  0  0  0  0  0  0  0
    2.8372    5.8817    7.6656 H   0  0  0  0  0  0  0  0  0  0  0  0
   -0.4054    5.3943    9.2723 H   0  0  0  0  0  0  0  0  0  0  0  0
   -1.2483    4.4325    8.0750 H   0  0  0  0  0  0  0  0  0  0  0  0
   -0.9062    6.1387    7.7644 H   0  0  0  0  0  0  0  0  0  0  0  0
    1.2807    3.7326    9.3784 H   0  0  0  0  0  0  0  0  0  0  0  0
    0.5182    2.7335    8.2137 H   0  0  0  0  0  0  0  0  0  0  0  0
    3.4873    3.5183    8.2621 H   0  0  0  0  0  0  0  0  0  0  0  0
    2.8370    2.1307    8.9909 H   0  0  0  0  0  0  0  0  0  0  0  0
    4.1471    2.0893    6.6004 H   0  0  0  0  0  0  0  0  0  0  0  0
    3.2241    0.8611    7.2958 H   0  0  0  0  0  0  0  0  0  0  0  0
    1.0609    0.2061    6.3250 H   0  0  0  0  0  0  0  0  0  0  0  0
    2.6508   -0.3060    5.7517 H   0  0  0  0  0  0  0  0  0  0  0  0
    1.4397   -0.1068    4.6448 H   0  0  0  0  0  0  0  0  0  0  0  0
   -1.7593    1.4240    5.1608 H   0  0  0  0  0  0  0  0  0  0  0  0
   -0.8269    4.3190    3.5668 H   0  0  0  0  0  0  0  0  0  0  0  0
   -1.9965    3.9092    4.8547 H   0  0  0  0  0  0  0  0  0  0  0  0
  1  2  1  0
  1 29  1  0
  1 30  1  0
  1 31  1  0
  2 28  1  0
  2  3  2  0
  3  4  1  0
  3 32  1  0
  4 26  1  0
  4  5  1  0
  4 33  1  1
  5  6  1  0
  5 34  1  0
  5 35  1  0
  6  7  2  0
  6  8  1  0
  8 20  1  0
  8  9  1  0
  8 36  1  1
  9 25  1  0
  9 10  1  0
  9 37  1  1
 10 11  1  0
 10 38  1  0
 10 39  1  0
 11 12  1  0
 11 13  1  0
 11 40  1  1
 12 41  1  0
 13 22  1  0
 13 14  1  0
 13 42  1  1
 14 15  1  0
 14 16  1  0
 14 17  1  0
 15 43  1  0
 15 44  1  0
 15 45  1  0
 16 46  1  0
 16 47  1  0
 16 48  1  0
 17 18  1  0
 17 49  1  0
 17 50  1  0
 18 19  1  0
 18 51  1  0
 18 52  1  0
 19 20  1  0
 19 53  1  0
 19 54  1  0
 20 21  1  6
 20 22  1  0
 21 55  1  0
 21 56  1  0
 21 57  1  0
 22 23  1  6
 22 26  1  0
 23 24  2  0
 23 25  1  0
 26 27  1  1
 26 28  1  0
 27 58  1  0
 28 59  1  0
 28 60  1  0
M  END
>  <i_m_ct_stereo_status>  (277) 
1

>  <s_m_source_file>  (277) 
/var/tmp/pbs.5076255.sched01/tmp4tnmxshi/11480k6dy83.sdf

>  <i_m_source_file_index>  (277) 
12

>  <i_lp_mmshare_version>  (277) 
48012

>  <i_f3d_flags>  (277) 
0

>  <s_epik_input>  (277) 
W0NIM11DKD1bQ0hdMSlbQ0gyXVtDQEBdMihbT0hdKVtDQEBIXTFbQ0gyXUMoPU8pW0NAQEhdKFtDQEBIXShPQzM9TylbQ0gyXVtDQEBIXShbT0hdKVtDSF00W0NAQF0yMzUpW0NAQF01KFtDSDNdKVtDSDJdW0NIMl1bQ0gyXUM0KFtDSDNdKVtDSDNd

>  <s_epik_cmdline>  (277) 
J2VwaWtfcHl0aG9uJywgJy1waHQnLCAnMi4wJywgJy1waCcsICc3LjAnLCAnLXRuJywgJzgnLCAnLW1hJywgJzIwMCcsICctaW1hZScsICc8aW5maWxlLm1hZT4nLCAnLW9tYWUnLCAnPG91dGZpbGUubWFlPic=

>  <r_lp_tautomer_probability>  (277) 
1

>  <r_epik_Ionization_Penalty>  (277) 
1.06109e-07

>  <r_epik_Ionization_Penalty_Charging>  (277) 
0

>  <r_epik_Ionization_Penalty_Neutral>  (277) 
1.06109e-07

>  <r_epik_State_Penalty>  (277) 
-0

>  <r_epik_Charging_Adjusted_Penalty>  (277) 
0

>  <i_epik_Tot_Q>  (277) 
0

>  <i_epik_Tot_abs_Q>  (277) 
0

>  <s_epik_Chemistry_Notes>  (277) 
This compound has an ester and may undergo hydrolysis at high or low pH.

>  <s_lp_Force_Field>  (277) 
OPLS3e

>  <r_lp_Energy>  (277) 
515.489

>  <b_lp_Chiralities_Consistent>  (277) 
1

>  <s_lp_Variant>  (277) 
90:0-1

>  <s_i_glide_gridfile>  (277) 
pfpi4k_grid

>  <i_i_glide_lignum>  (277) 
12

>  <i_i_glide_rotatable_bonds>  (277) 
2

>  <r_i_docking_score>  (277) 
-3.13722

>  <r_i_glide_ligand_efficiency>  (277) 
-0.112044

>  <r_i_glide_ligand_efficiency_sa>  (277) 
-0.34023

>  <r_i_glide_ligand_efficiency_ln>  (277) 
-0.724162

>  <r_i_glide_gscore>  (277) 
-3.13722

>  <r_i_glide_lipo>  (277) 
-0.0239967

>  <r_i_glide_hbond>  (277) 
-0.180518

>  <r_i_glide_metal>  (277) 
-0

>  <r_i_glide_rewards>  (277) 
-0.770922

>  <r_i_glide_evdw>  (277) 
-22.6288

>  <r_i_glide_ecoul>  (277) 
-6.86723

>  <r_i_glide_erotb>  (277) 
0

>  <r_i_glide_esite>  (277) 
-0.000256309

>  <r_i_glide_emodel>  (277) 
-35.5505

>  <r_i_glide_energy>  (277) 
-29.4961

>  <r_i_glide_einternal>  (277) 
0.492955

>  <r_i_glide_intrahb_reward>  (277) 
-0

>  <i_i_glide_confnum>  (277) 
2

>  <i_i_glide_posenum>  (277) 
31

>  <r_i_glide_eff_state_penalty>  (277) 
0

>  <ligand_id>  (277) 
90

>  <original_smiles>  (277) 
CC1=CC2CC(=O)C3C4CC(O)C5C(C)(C)CCCC3(C)C5(C(=O)O4)C2(O)C1

>  <smiles>  (277) 
[H]OC1([H])C([H])([H])C2([H])OC(=O)C34C1([H])C(C([H])([H])[H])(C([H])([H])[H])C([H])([H])C([H])([H])C([H])([H])C3(C([H])([H])[H])C2([H])C(=O)C([H])([H])C1([H])C([H])=C(C([H])([H])[H])C([H])([H])C14O[H]

$$$$
90:0:1
     RDKit          3D

 60 64  0  0  1  0  0  0  0  0999 V2000
   -3.4938    3.3437    2.6767 C   0  0  0  0  0  0  0  0  0  0  0  0
   -2.0903    3.4460    3.2224 C   0  0  0  0  0  0  0  0  0  0  0  0
   -1.3268    4.5247    3.2944 C   0  0  0  0  0  0  0  0  0  0  0  0
   -0.0018    4.2610    3.9615 C   0  0  1  0  0  0  0  0  0  0  0  0
   -0.0759    5.0119    5.3210 C   0  0  0  0  0  0  0  0  0  0  0  0
    1.2199    5.0754    6.1261 C   0  0  0  0  0  0  0  0  0  0  0  0
    1.7680    6.1474    6.3667 O   0  0  0  0  0  0  0  0  0  0  0  0
    1.8115    3.7518    6.6274 C   0  0  1  0  0  0  0  0  0  0  0  0
    0.6068    2.9210    7.6298 C   0  0  1  0  0  0  0  0  0  0  0  0
   -0.7738    1.8432    7.4760 C   0  0  0  0  0  0  0  0  0  0  0  0
   -0.8185    0.4069    6.4794 C   0  0  1  0  0  0  0  0  0  0  0  0
   -2.1372    0.0804    6.0820 O   0  0  0  0  0  0  0  0  0  0  0  0
    0.3328    0.3470    5.1359 C   0  0  2  0  0  0  0  0  0  0  0  0
    1.2945   -0.9253    4.8277 C   0  0  0  0  0  0  0  0  0  0  0  0
    1.4557   -1.9310    5.9996 C   0  0  0  0  0  0  0  0  0  0  0  0
    0.6433   -1.7750    3.7044 C   0  0  0  0  0  0  0  0  0  0  0  0
    2.7214   -0.4835    4.2340 C   0  0  0  0  0  0  0  0  0  0  0  0
    3.8349    0.2856    5.0697 C   0  0  0  0  0  0  0  0  0  0  0  0
    3.8162    1.8541    5.4209 C   0  0  0  0  0  0  0  0  0  0  0  0
    2.4529    2.7576    5.2674 C   0  0  2  0  0  0  0  0  0  0  0  0
    3.0204    3.7180    4.1573 C   0  0  0  0  0  0  0  0  0  0  0  0
    1.2209    1.7215    4.7276 C   0  0  1  0  0  0  0  0  0  0  0  0
    1.3209    1.4811    6.1773 C   0  0  0  0  0  0  0  0  0  0  0  0
    1.9830    0.7893    6.9934 O   0  0  0  0  0  0  0  0  0  0  0  0
    0.4583    2.4384    6.4785 O   0  0  0  0  0  0  0  0  0  0  0  0
    0.1388    2.6633    3.8997 C   0  0  2  0  0  0  0  0  0  0  0  0
    0.6257    2.4260    2.5858 O   0  0  0  0  0  0  0  0  0  0  0  0
   -1.3777    2.2585    3.7875 C   0  0  0  0  0  0  0  0  0  0  0  0
   -4.1669    2.9841    3.4541 H   0  0  0  0  0  0  0  0  0  0  0  0
   -3.5267    2.6365    1.8480 H   0  0  0  0  0  0  0  0  0  0  0  0
   -3.8589    4.3076    2.3240 H   0  0  0  0  0  0  0  0  0  0  0  0
   -1.5875    5.4964    2.9087 H   0  0  0  0  0  0  0  0  0  0  0  0
    0.6739    4.7723    3.2782 H   0  0  0  0  0  0  0  0  0  0  0  0
   -0.3775    6.0474    5.1447 H   0  0  0  0  0  0  0  0  0  0  0  0
   -0.8528    4.5746    5.9494 H   0  0  0  0  0  0  0  0  0  0  0  0
    2.6447    4.0387    7.2674 H   0  0  0  0  0  0  0  0  0  0  0  0
    0.0364    3.7899    7.9665 H   0  0  0  0  0  0  0  0  0  0  0  0
   -0.9939    1.5096    8.4940 H   0  0  0  0  0  0  0  0  0  0  0  0
   -1.6548    2.4477    7.2238 H   0  0  0  0  0  0  0  0  0  0  0  0
   -0.5442   -0.4040    7.1521 H   0  0  0  0  0  0  0  0  0  0  0  0
   -2.3840    0.6663    5.3761 H   0  0  0  0  0  0  0  0  0  0  0  0
   -0.3476    0.2048    4.3149 H   0  0  0  0  0  0  0  0  0  0  0  0
    2.0019   -2.8179    5.6775 H   0  0  0  0  0  0  0  0  0  0  0  0
    0.4895   -2.2819    6.3636 H   0  0  0  0  0  0  0  0  0  0  0  0
    2.0081   -1.5521    6.8560 H   0  0  0  0  0  0  0  0  0  0  0  0
    1.2434   -2.6517    3.4573 H   0  0  0  0  0  0  0  0  0  0  0  0
    0.5342   -1.2034    2.7795 H   0  0  0  0  0  0  0  0  0  0  0  0
   -0.3449   -2.1401    3.9949 H   0  0  0  0  0  0  0  0  0  0  0  0
    3.2082   -1.4131    3.9362 H   0  0  0  0  0  0  0  0  0  0  0  0
    2.5781    0.0439    3.2898 H   0  0  0  0  0  0  0  0  0  0  0  0
    4.0024   -0.2707    5.9932 H   0  0  0  0  0  0  0  0  0  0  0  0
    4.7679    0.1218    4.5298 H   0  0  0  0  0  0  0  0  0  0  0  0
    4.1689    1.9659    6.4464 H   0  0  0  0  0  0  0  0  0  0  0  0
    4.6586    2.2497    4.8619 H   0  0  0  0  0  0  0  0  0  0  0  0
    3.1110    3.2026    3.1980 H   0  0  0  0  0  0  0  0  0  0  0  0
    4.0064    4.1071    4.4178 H   0  0  0  0  0  0  0  0  0  0  0  0
    2.5093    4.6486    3.9745 H   0  0  0  0  0  0  0  0  0  0  0  0
    0.3183    3.1162    1.9926 H   0  0  0  0  0  0  0  0  0  0  0  0
   -1.8367    2.1236    4.7579 H   0  0  0  0  0  0  0  0  0  0  0  0
   -1.5698    1.3978    3.1438 H   0  0  0  0  0  0  0  0  0  0  0  0
  1  2  1  0
  1 29  1  0
  1 30  1  0
  1 31  1  0
  2 28  1  0
  2  3  2  0
  3  4  1  0
  3 32  1  0
  4 26  1  0
  4  5  1  0
  4 33  1  6
  5  6  1  0
  5 34  1  0
  5 35  1  0
  6  7  2  0
  6  8  1  0
  8 20  1  0
  8  9  1  0
  8 36  1  1
  9 25  1  0
  9 10  1  0
  9 37  1  1
 10 11  1  0
 10 38  1  0
 10 39  1  0
 11 12  1  0
 11 13  1  0
 11 40  1  1
 12 41  1  0
 13 22  1  0
 13 14  1  0
 13 42  1  6
 14 15  1  0
 14 16  1  0
 14 17  1  0
 15 43  1  0
 15 44  1  0
 15 45  1  0
 16 46  1  0
 16 47  1  0
 16 48  1  0
 17 18  1  0
 17 49  1  0
 17 50  1  0
 18 19  1  0
 18 51  1  0
 18 52  1  0
 19 20  1  0
 19 53  1  0
 19 54  1  0
 20 21  1  6
 20 22  1  0
 21 55  1  0
 21 56  1  0
 21 57  1  0
 22 23  1  1
 22 26  1  0
 23 24  2  0
 23 25  1  0
 26 27  1  6
 26 28  1  0
 27 58  1  0
 28 59  1  0
 28 60  1  0
M  END
>  <i_m_ct_stereo_status>  (278) 
1

>  <s_m_source_file>  (278) 
/var/tmp/pbs.5076255.sched01/tmp4tnmxshi/11480k6dy83.sdf

>  <i_m_source_file_index>  (278) 
12

>  <i_lp_mmshare_version>  (278) 
48012

>  <i_f3d_flags>  (278) 
0

>  <s_epik_input>  (278) 
W0NIM11DKD1bQ0hdMSlbQ0gyXVtDQEBdMihbT0hdKVtDQEBIXTFbQ0gyXUMoPU8pW0NAQEhdKFtDQEBIXShPQzM9TylbQ0gyXVtDQEBIXShbT0hdKVtDSF00W0NAQF0yMzUpW0NAQF01KFtDSDNdKVtDSDJdW0NIMl1bQ0gyXUM0KFtDSDNdKVtDSDNd

>  <s_epik_cmdline>  (278) 
J2VwaWtfcHl0aG9uJywgJy1waHQnLCAnMi4wJywgJy1waCcsICc3LjAnLCAnLXRuJywgJzgnLCAnLW1hJywgJzIwMCcsICctaW1hZScsICc8aW5maWxlLm1hZT4nLCAnLW9tYWUnLCAnPG91dGZpbGUubWFlPic=

>  <r_lp_tautomer_probability>  (278) 
1

>  <r_epik_Ionization_Penalty>  (278) 
1.06109e-07

>  <r_epik_Ionization_Penalty_Charging>  (278) 
0

>  <r_epik_Ionization_Penalty_Neutral>  (278) 
1.06109e-07

>  <r_epik_State_Penalty>  (278) 
-0

>  <r_epik_Charging_Adjusted_Penalty>  (278) 
0

>  <i_epik_Tot_Q>  (278) 
0

>  <i_epik_Tot_abs_Q>  (278) 
0

>  <s_epik_Chemistry_Notes>  (278) 
This compound has an ester and may undergo hydrolysis at high or low pH.

>  <s_lp_Force_Field>  (278) 
OPLS3e

>  <r_lp_Energy>  (278) 
515.489

>  <b_lp_Chiralities_Consistent>  (278) 
1

>  <s_lp_Variant>  (278) 
90:0-1

>  <s_i_glide_gridfile>  (278) 
pfpi4k_grid

>  <i_i_glide_lignum>  (278) 
12

>  <i_i_glide_rotatable_bonds>  (278) 
2

>  <r_i_docking_score>  (278) 
-3.04665

>  <r_i_glide_ligand_efficiency>  (278) 
-0.108809

>  <r_i_glide_ligand_efficiency_sa>  (278) 
-0.330408

>  <r_i_glide_ligand_efficiency_ln>  (278) 
-0.703255

>  <r_i_glide_gscore>  (278) 
-3.04665

>  <r_i_glide_lipo>  (278) 
-0.0260509

>  <r_i_glide_hbond>  (278) 
-0.32

>  <r_i_glide_metal>  (278) 
-0

>  <r_i_glide_rewards>  (278) 
-0.760246

>  <r_i_glide_evdw>  (278) 
-21.8622

>  <r_i_glide_ecoul>  (278) 
-5.64047

>  <r_i_glide_erotb>  (278) 
0

>  <r_i_glide_esite>  (278) 
-0.0011682

>  <r_i_glide_emodel>  (278) 
-33.2205

>  <r_i_glide_energy>  (278) 
-27.5027

>  <r_i_glide_einternal>  (278) 
0.46874

>  <r_i_glide_intrahb_reward>  (278) 
-0

>  <i_i_glide_confnum>  (278) 
2

>  <i_i_glide_posenum>  (278) 
15

>  <r_i_glide_eff_state_penalty>  (278) 
0

>  <ligand_id>  (278) 
90

>  <original_smiles>  (278) 
CC1=CC2CC(=O)C3C4CC(O)C5C(C)(C)CCCC3(C)C5(C(=O)O4)C2(O)C1

>  <smiles>  (278) 
[H]OC1([H])C([H])([H])C2([H])OC(=O)C34C1([H])C(C([H])([H])[H])(C([H])([H])[H])C([H])([H])C([H])([H])C([H])([H])C3(C([H])([H])[H])C2([H])C(=O)C([H])([H])C1([H])C([H])=C(C([H])([H])[H])C([H])([H])C14O[H]

$$$$
90:0:2
     RDKit          3D

 60 64  0  0  1  0  0  0  0  0999 V2000
   -3.3691    3.4084    2.4995 C   0  0  0  0  0  0  0  0  0  0  0  0
   -2.0770    2.8491    3.0577 C   0  0  0  0  0  0  0  0  0  0  0  0
   -1.4452    1.7436    2.6840 C   0  0  0  0  0  0  0  0  0  0  0  0
   -0.1500    1.5286    3.4151 C   0  0  1  0  0  0  0  0  0  0  0  0
    0.9382    1.6844    2.3220 C   0  0  0  0  0  0  0  0  0  0  0  0
    2.3618    1.3374    2.7371 C   0  0  0  0  0  0  0  0  0  0  0  0
    2.9735    0.4131    2.2103 O   0  0  0  0  0  0  0  0  0  0  0  0
    3.0006    2.1841    3.8461 C   0  0  1  0  0  0  0  0  0  0  0  0
    3.0067    3.8881    3.3459 C   0  0  1  0  0  0  0  0  0  0  0  0
    1.9738    5.3078    3.3630 C   0  0  0  0  0  0  0  0  0  0  0  0
    1.0473    5.8568    4.7337 C   0  0  1  0  0  0  0  0  0  0  0  0
   -0.0939    6.5486    4.2860 O   0  0  0  0  0  0  0  0  0  0  0  0
    0.6628    4.6382    5.9646 C   0  0  2  0  0  0  0  0  0  0  0  0
    0.8838    4.8521    7.5583 C   0  0  0  0  0  0  0  0  0  0  0  0
    1.8313    6.0248    7.9334 C   0  0  0  0  0  0  0  0  0  0  0  0
   -0.4728    5.2520    8.2026 C   0  0  0  0  0  0  0  0  0  0  0  0
    1.3120    3.4956    8.3079 C   0  0  0  0  0  0  0  0  0  0  0  0
    2.7085    2.7627    8.1017 C   0  0  0  0  0  0  0  0  0  0  0  0
    3.1020    1.8471    6.8416 C   0  0  0  0  0  0  0  0  0  0  0  0
    2.2329    1.8808    5.4480 C   0  0  2  0  0  0  0  0  0  0  0  0
    1.7733    0.3749    5.5190 C   0  0  0  0  0  0  0  0  0  0  0  0
    0.9816    3.0102    5.6593 C   0  0  1  0  0  0  0  0  0  0  0  0
    2.1768    3.8144    5.3484 C   0  0  0  0  0  0  0  0  0  0  0  0
    3.1710    4.3231    5.9268 O   0  0  0  0  0  0  0  0  0  0  0  0
    1.9694    3.7551    4.0440 O   0  0  0  0  0  0  0  0  0  0  0  0
   -0.2465    2.5427    4.6549 C   0  0  2  0  0  0  0  0  0  0  0  0
   -1.0175    1.8168    5.5956 O   0  0  0  0  0  0  0  0  0  0  0  0
   -1.2978    3.5715    4.1055 C   0  0  0  0  0  0  0  0  0  0  0  0
   -3.1915    4.4034    2.0932 H   0  0  0  0  0  0  0  0  0  0  0  0
   -4.1204    3.4824    3.2814 H   0  0  0  0  0  0  0  0  0  0  0  0
   -3.7758    2.7779    1.7116 H   0  0  0  0  0  0  0  0  0  0  0  0
   -1.7895    1.0645    1.9241 H   0  0  0  0  0  0  0  0  0  0  0  0
   -0.2545    0.4844    3.7058 H   0  0  0  0  0  0  0  0  0  0  0  0
    0.6858    1.0569    1.4603 H   0  0  0  0  0  0  0  0  0  0  0  0
    0.9403    2.7074    1.9533 H   0  0  0  0  0  0  0  0  0  0  0  0
    4.0342    1.8452    3.8918 H   0  0  0  0  0  0  0  0  0  0  0  0
    2.9887    3.7528    2.2646 H   0  0  0  0  0  0  0  0  0  0  0  0
    2.6193    6.1431    3.0799 H   0  0  0  0  0  0  0  0  0  0  0  0
    1.2900    5.2429    2.5059 H   0  0  0  0  0  0  0  0  0  0  0  0
    1.6654    6.6145    5.2159 H   0  0  0  0  0  0  0  0  0  0  0  0
    0.1739    7.1572    3.5990 H   0  0  0  0  0  0  0  0  0  0  0  0
   -0.4106    4.7168    5.9659 H   0  0  0  0  0  0  0  0  0  0  0  0
    1.8318    6.1941    9.0106 H   0  0  0  0  0  0  0  0  0  0  0  0
    1.5077    6.9600    7.4746 H   0  0  0  0  0  0  0  0  0  0  0  0
    2.8733    5.8725    7.6656 H   0  0  0  0  0  0  0  0  0  0  0  0
   -0.3757    5.4193    9.2769 H   0  0  0  0  0  0  0  0  0  0  0  0
   -1.2302    4.4746    8.0757 H   0  0  0  0  0  0  0  0  0  0  0  0
   -0.8688    6.1752    7.7737 H   0  0  0  0  0  0  0  0  0  0  0  0
    1.2942    3.7373    9.3712 H   0  0  0  0  0  0  0  0  0  0  0  0
    0.5195    2.7525    8.2046 H   0  0  0  0  0  0  0  0  0  0  0  0
    3.4981    3.5019    8.2480 H   0  0  0  0  0  0  0  0  0  0  0  0
    2.8330    2.1201    8.9738 H   0  0  0  0  0  0  0  0  0  0  0  0
    4.1367    2.0734    6.5813 H   0  0  0  0  0  0  0  0  0  0  0  0
    3.2066    0.8508    7.2695 H   0  0  0  0  0  0  0  0  0  0  0  0
    1.0334    0.2158    6.3059 H   0  0  0  0  0  0  0  0  0  0  0  0
    2.6076   -0.3008    5.7205 H   0  0  0  0  0  0  0  0  0  0  0  0
    1.3989   -0.0849    4.6186 H   0  0  0  0  0  0  0  0  0  0  0  0
   -0.4491    1.1573    5.9645 H   0  0  0  0  0  0  0  0  0  0  0  0
   -0.8187    4.3744    3.5588 H   0  0  0  0  0  0  0  0  0  0  0  0
   -1.9878    3.9670    4.8511 H   0  0  0  0  0  0  0  0  0  0  0  0
  1  2  1  0
  1 29  1  0
  1 30  1  0
  1 31  1  0
  2 28  1  0
  2  3  2  0
  3  4  1  0
  3 32  1  0
  4 26  1  0
  4  5  1  0
  4 33  1  1
  5  6  1  0
  5 34  1  0
  5 35  1  0
  6  7  2  0
  6  8  1  0
  8 20  1  0
  8  9  1  0
  8 36  1  1
  9 25  1  0
  9 10  1  0
  9 37  1  1
 10 11  1  0
 10 38  1  0
 10 39  1  0
 11 12  1  0
 11 13  1  0
 11 40  1  1
 12 41  1  0
 13 22  1  0
 13 14  1  0
 13 42  1  1
 14 15  1  0
 14 16  1  0
 14 17  1  0
 15 43  1  0
 15 44  1  0
 15 45  1  0
 16 46  1  0
 16 47  1  0
 16 48  1  0
 17 18  1  0
 17 49  1  0
 17 50  1  0
 18 19  1  0
 18 51  1  0
 18 52  1  0
 19 20  1  0
 19 53  1  0
 19 54  1  0
 20 21  1  6
 20 22  1  0
 21 55  1  0
 21 56  1  0
 21 57  1  0
 22 23  1  6
 22 26  1  0
 23 24  2  0
 23 25  1  0
 26 27  1  1
 26 28  1  0
 27 58  1  0
 28 59  1  0
 28 60  1  0
M  END
>  <i_m_ct_stereo_status>  (279) 
1

>  <s_m_source_file>  (279) 
/var/tmp/pbs.5076255.sched01/tmp4tnmxshi/11480k6dy83.sdf

>  <i_m_source_file_index>  (279) 
12

>  <i_lp_mmshare_version>  (279) 
48012

>  <i_f3d_flags>  (279) 
0

>  <s_epik_input>  (279) 
W0NIM11DKD1bQ0hdMSlbQ0gyXVtDQEBdMihbT0hdKVtDQEBIXTFbQ0gyXUMoPU8pW0NAQEhdKFtDQEBIXShPQzM9TylbQ0gyXVtDQEBIXShbT0hdKVtDSF00W0NAQF0yMzUpW0NAQF01KFtDSDNdKVtDSDJdW0NIMl1bQ0gyXUM0KFtDSDNdKVtDSDNd

>  <s_epik_cmdline>  (279) 
J2VwaWtfcHl0aG9uJywgJy1waHQnLCAnMi4wJywgJy1waCcsICc3LjAnLCAnLXRuJywgJzgnLCAnLW1hJywgJzIwMCcsICctaW1hZScsICc8aW5maWxlLm1hZT4nLCAnLW9tYWUnLCAnPG91dGZpbGUubWFlPic=

>  <r_lp_tautomer_probability>  (279) 
1

>  <r_epik_Ionization_Penalty>  (279) 
1.06109e-07

>  <r_epik_Ionization_Penalty_Charging>  (279) 
0

>  <r_epik_Ionization_Penalty_Neutral>  (279) 
1.06109e-07

>  <r_epik_State_Penalty>  (279) 
-0

>  <r_epik_Charging_Adjusted_Penalty>  (279) 
0

>  <i_epik_Tot_Q>  (279) 
0

>  <i_epik_Tot_abs_Q>  (279) 
0

>  <s_epik_Chemistry_Notes>  (279) 
This compound has an ester and may undergo hydrolysis at high or low pH.

>  <s_lp_Force_Field>  (279) 
OPLS3e

>  <r_lp_Energy>  (279) 
515.489

>  <b_lp_Chiralities_Consistent>  (279) 
1

>  <s_lp_Variant>  (279) 
90:0-1

>  <s_i_glide_gridfile>  (279) 
pfpi4k_grid

>  <i_i_glide_lignum>  (279) 
12

>  <i_i_glide_rotatable_bonds>  (279) 
2

>  <r_i_docking_score>  (279) 
-2.9112

>  <r_i_glide_ligand_efficiency>  (279) 
-0.103972

>  <r_i_glide_ligand_efficiency_sa>  (279) 
-0.315719

>  <r_i_glide_ligand_efficiency_ln>  (279) 
-0.671991

>  <r_i_glide_gscore>  (279) 
-2.9112

>  <r_i_glide_lipo>  (279) 
-0.0355285

>  <r_i_glide_hbond>  (279) 
0

>  <r_i_glide_metal>  (279) 
-0

>  <r_i_glide_rewards>  (279) 
-0.775707

>  <r_i_glide_evdw>  (279) 
-22.6241

>  <r_i_glide_ecoul>  (279) 
-6.45579

>  <r_i_glide_erotb>  (279) 
0

>  <r_i_glide_esite>  (279) 
-0.00039569

>  <r_i_glide_emodel>  (279) 
-34.6708

>  <r_i_glide_energy>  (279) 
-29.0798

>  <r_i_glide_einternal>  (279) 
0.476066

>  <r_i_glide_intrahb_reward>  (279) 
-0

>  <i_i_glide_confnum>  (279) 
1

>  <i_i_glide_posenum>  (279) 
35

>  <r_i_glide_eff_state_penalty>  (279) 
0

>  <ligand_id>  (279) 
90

>  <original_smiles>  (279) 
CC1=CC2CC(=O)C3C4CC(O)C5C(C)(C)CCCC3(C)C5(C(=O)O4)C2(O)C1

>  <smiles>  (279) 
[H]OC1([H])C([H])([H])C2([H])OC(=O)C34C1([H])C(C([H])([H])[H])(C([H])([H])[H])C([H])([H])C([H])([H])C([H])([H])C3(C([H])([H])[H])C2([H])C(=O)C([H])([H])C1([H])C([H])=C(C([H])([H])[H])C([H])([H])C14O[H]

$$$$
91:0:0
     RDKit          3D

 67 72  0  0  1  0  0  0  0  0999 V2000
    3.5776   -6.9540    3.3558 C   0  0  0  0  0  0  0  0  0  0  0  0
    3.0736   -5.7175    3.2166 C   0  0  0  0  0  0  0  0  0  0  0  0
    2.9886   -4.6431    4.0194 C   0  0  0  0  0  0  0  0  0  0  0  0
    1.9334   -4.1671    3.3430 C   0  0  0  0  0  0  0  0  0  0  0  0
    0.8421   -3.1480    3.6833 C   0  0  0  0  0  0  0  0  0  0  0  0
    1.3032   -1.7414    4.0912 C   0  0  0  0  0  0  0  0  0  0  0  0
    0.5133   -0.8015    4.1175 O   0  0  0  0  0  0  0  0  0  0  0  0
    2.6255   -1.6663    4.2689 O   0  0  0  0  0  0  0  0  0  0  0  0
    3.4165   -0.5870    3.7955 C   0  0  1  0  0  0  0  0  0  0  0  0
    3.6745    0.2954    5.0324 C   0  0  0  0  0  0  0  0  0  0  0  0
    4.6586   -1.1409    2.9531 C   0  0  2  0  0  0  0  0  0  0  0  0
    5.8871   -0.3025    3.4090 C   0  0  0  0  0  0  0  0  0  0  0  0
    4.4430   -0.6250    1.2615 C   0  0  1  0  0  0  0  0  0  0  0  0
    5.5410    0.1139    0.7597 O   0  0  0  0  0  0  0  0  0  0  0  0
    3.9771   -1.7887    0.0369 C   0  0  1  0  0  0  0  0  0  0  0  0
    4.8357   -2.6760   -1.0559 C   0  0  1  0  0  0  0  0  0  0  0  0
    6.0942   -1.9654   -1.5456 C   0  0  0  0  0  0  0  0  0  0  0  0
    5.0976   -4.2757   -0.6812 C   0  0  0  0  0  0  0  0  0  0  0  0
    4.6456   -4.8165    0.8524 C   0  0  1  0  0  0  0  0  0  0  0  0
    4.7804   -6.2145    0.7625 O   0  0  0  0  0  0  0  0  0  0  0  0
    5.3971   -4.1652    2.2973 C   0  0  1  0  0  0  0  0  0  0  0  0
    6.1108   -5.1937    2.9578 O   0  0  0  0  0  0  0  0  0  0  0  0
    6.3546   -3.4833    1.5223 C   0  0  0  0  0  0  0  0  0  0  0  0
    5.2553   -2.6586    1.1944 O   0  0  0  0  0  0  0  0  0  0  0  0
    3.7077   -2.8504    0.9849 C   0  0  1  0  0  0  0  0  0  0  0  0
    2.6187   -2.2242    1.6099 O   0  0  0  0  0  0  0  0  0  0  0  0
    3.2175   -4.3548    0.8897 C   0  0  1  0  0  0  0  0  0  0  0  0
    2.3932   -4.5043   -0.4064 C   0  0  0  0  0  0  0  0  0  0  0  0
    2.3144   -5.0126    2.1036 C   0  0  1  0  0  0  0  0  0  0  0  0
    1.2695   -5.8671    1.6752 O   0  0  0  0  0  0  0  0  0  0  0  0
    5.0042   -2.8327    3.4170 C   0  0  2  0  0  0  0  0  0  0  0  0
    4.7761   -3.2799    4.9215 C   0  0  0  0  0  0  0  0  0  0  0  0
    3.6176   -4.2431    5.2956 C   0  0  0  0  0  0  0  0  0  0  0  0
    3.4889   -7.7148    2.5880 H   0  0  0  0  0  0  0  0  0  0  0  0
    4.0360   -7.2323    4.2903 H   0  0  0  0  0  0  0  0  0  0  0  0
    0.2798   -2.9735    2.7795 H   0  0  0  0  0  0  0  0  0  0  0  0
    0.1193   -3.5516    4.3838 H   0  0  0  0  0  0  0  0  0  0  0  0
    2.8107    0.0195    3.1243 H   0  0  0  0  0  0  0  0  0  0  0  0
    4.1783    1.2253    4.7786 H   0  0  0  0  0  0  0  0  0  0  0  0
    4.2514   -0.2183    5.7996 H   0  0  0  0  0  0  0  0  0  0  0  0
    2.7260    0.5749    5.4831 H   0  0  0  0  0  0  0  0  0  0  0  0
    6.7797   -0.5826    2.8487 H   0  0  0  0  0  0  0  0  0  0  0  0
    6.1313   -0.4538    4.4561 H   0  0  0  0  0  0  0  0  0  0  0  0
    5.7534    0.7717    3.2892 H   0  0  0  0  0  0  0  0  0  0  0  0
    3.6562    0.1183    1.2521 H   0  0  0  0  0  0  0  0  0  0  0  0
    5.2515    0.6469    0.0305 H   0  0  0  0  0  0  0  0  0  0  0  0
    3.0511   -1.4864   -0.4707 H   0  0  0  0  0  0  0  0  0  0  0  0
    4.2198   -2.6837   -1.9476 H   0  0  0  0  0  0  0  0  0  0  0  0
    6.8358   -1.8743   -0.7516 H   0  0  0  0  0  0  0  0  0  0  0  0
    5.8249   -0.9658   -1.8954 H   0  0  0  0  0  0  0  0  0  0  0  0
    6.5492   -2.5049   -2.3799 H   0  0  0  0  0  0  0  0  0  0  0  0
    4.6201   -4.8889   -1.4416 H   0  0  0  0  0  0  0  0  0  0  0  0
    6.1231   -4.5313   -0.9279 H   0  0  0  0  0  0  0  0  0  0  0  0
    4.6052   -6.5409    1.6328 H   0  0  0  0  0  0  0  0  0  0  0  0
    6.8410   -4.8071    3.4152 H   0  0  0  0  0  0  0  0  0  0  0  0
    7.0757   -2.8896    2.0379 H   0  0  0  0  0  0  0  0  0  0  0  0
    6.9208   -4.0710    0.8048 H   0  0  0  0  0  0  0  0  0  0  0  0
    2.2692   -1.5600    1.0283 H   0  0  0  0  0  0  0  0  0  0  0  0
    1.4418   -4.0448   -0.2128 H   0  0  0  0  0  0  0  0  0  0  0  0
    2.2972   -5.5488   -0.7058 H   0  0  0  0  0  0  0  0  0  0  0  0
    2.7157   -3.9237   -1.2628 H   0  0  0  0  0  0  0  0  0  0  0  0
    1.6838   -6.6396    1.3087 H   0  0  0  0  0  0  0  0  0  0  0  0
    6.0185   -2.5942    3.6756 H   0  0  0  0  0  0  0  0  0  0  0  0
    5.6882   -3.7600    5.2752 H   0  0  0  0  0  0  0  0  0  0  0  0
    4.7191   -2.3898    5.5446 H   0  0  0  0  0  0  0  0  0  0  0  0
    2.8942   -3.7491    5.9492 H   0  0  0  0  0  0  0  0  0  0  0  0
    3.9944   -5.1161    5.8333 H   0  0  0  0  0  0  0  0  0  0  0  0
  1  2  2  0
  1 34  1  0
  1 35  1  0
  2 29  1  0
  2  3  1  0
  3 33  1  0
  3  4  2  0
  4 29  1  0
  4  5  1  0
  5  6  1  0
  5 36  1  0
  5 37  1  0
  6  7  2  0
  6  8  1  0
  8  9  1  0
  9 10  1  0
  9 11  1  0
  9 38  1  6
 10 39  1  0
 10 40  1  0
 10 41  1  0
 11 31  1  0
 11 12  1  1
 11 13  1  0
 12 42  1  0
 12 43  1  0
 12 44  1  0
 13 14  1  0
 13 15  1  0
 13 45  1  1
 14 46  1  0
 15 25  1  0
 15 16  1  0
 15 47  1  6
 16 17  1  0
 16 18  1  0
 16 48  1  6
 17 49  1  0
 17 50  1  0
 17 51  1  0
 18 19  1  0
 18 52  1  0
 18 53  1  0
 19 27  1  0
 19 20  1  6
 19 21  1  0
 20 54  1  0
 21 22  1  1
 21 23  1  0
 21 31  1  0
 22 55  1  0
 23 24  1  0
 23 56  1  0
 23 57  1  0
 24 25  1  0
 25 26  1  1
 25 27  1  0
 26 58  1  0
 27 28  1  6
 27 29  1  0
 28 59  1  0
 28 60  1  0
 28 61  1  0
 29 30  1  6
 30 62  1  0
 31 32  1  0
 31 63  1  1
 32 33  1  0
 32 64  1  0
 32 65  1  0
 33 66  1  0
 33 67  1  0
M  END
>  <i_m_ct_stereo_status>  (280) 
1

>  <s_m_source_file>  (280) 
/var/tmp/pbs.5076255.sched01/tmp4tnmxshi/11480k6dy83.sdf

>  <i_m_source_file_index>  (280) 
13

>  <i_lp_mmshare_version>  (280) 
48012

>  <i_f3d_flags>  (280) 
0

>  <s_epik_input>  (280) 
W0NIM11bQ0BASF0xT0MoPU8pW0NIMl1DKD1DKEMyPVtDSDJdKVtDSDJdW0NIMl0zKVtDQEBdMihbT0hdKVtDQEBdKFtDSDNdKShbQ0BAXShbT0hdKShPW0NIMl00KVtDQEBIXShbQ0BASF01W09IXSlbQ0BASF0oW0NIM10pW0NIMl02KVtDQF02KFtPSF0pW0NAXTQoW09IXSlbQ0BIXTNbQ0BdMTVbQ0gzXQ==

>  <s_epik_cmdline>  (280) 
J2VwaWtfcHl0aG9uJywgJy1waHQnLCAnMi4wJywgJy1waCcsICc3LjAnLCAnLXRuJywgJzgnLCAnLW1hJywgJzIwMCcsICctaW1hZScsICc8aW5maWxlLm1hZT4nLCAnLW9tYWUnLCAnPG91dGZpbGUubWFlPic=

>  <r_lp_tautomer_probability>  (280) 
1

>  <r_epik_Ionization_Penalty>  (280) 
1.47411e-06

>  <r_epik_Ionization_Penalty_Charging>  (280) 
0

>  <r_epik_Ionization_Penalty_Neutral>  (280) 
1.47411e-06

>  <r_epik_State_Penalty>  (280) 
-0

>  <r_epik_Charging_Adjusted_Penalty>  (280) 
0

>  <i_epik_Tot_Q>  (280) 
0

>  <i_epik_Tot_abs_Q>  (280) 
0

>  <s_epik_Chemistry_Notes>  (280) 
This compound has an ester and may undergo hydrolysis at high or low pH.

>  <s_lp_Force_Field>  (280) 
OPLS3e

>  <r_lp_Energy>  (280) 
499.546

>  <b_lp_Chiralities_Consistent>  (280) 
1

>  <s_lp_Variant>  (280) 
91:0-1

>  <s_i_glide_gridfile>  (280) 
pfpi4k_grid

>  <i_i_glide_lignum>  (280) 
13

>  <i_i_glide_rotatable_bonds>  (280) 
5

>  <r_i_docking_score>  (280) 
-2.91537

>  <r_i_glide_ligand_efficiency>  (280) 
-0.0883444

>  <r_i_glide_ligand_efficiency_sa>  (280) 
-0.283368

>  <r_i_glide_ligand_efficiency_ln>  (280) 
-0.648362

>  <r_i_glide_gscore>  (280) 
-2.91537

>  <r_i_glide_lipo>  (280) 
-0.633805

>  <r_i_glide_hbond>  (280) 
-0.121437

>  <r_i_glide_metal>  (280) 
-0

>  <r_i_glide_rewards>  (280) 
-0.258955

>  <r_i_glide_evdw>  (280) 
-15.2183

>  <r_i_glide_ecoul>  (280) 
-7.55745

>  <r_i_glide_erotb>  (280) 
0

>  <r_i_glide_esite>  (280) 
-0.00663871

>  <r_i_glide_emodel>  (280) 
-25.6774

>  <r_i_glide_energy>  (280) 
-22.7757

>  <r_i_glide_einternal>  (280) 
1.67916

>  <r_i_glide_intrahb_reward>  (280) 
-0

>  <i_i_glide_confnum>  (280) 
2

>  <i_i_glide_posenum>  (280) 
21

>  <r_i_glide_eff_state_penalty>  (280) 
0

>  <ligand_id>  (280) 
91

>  <original_smiles>  (280) 
C=C1C2=C3CC(=O)OC(C)C4(C)C(O)C5C(C)CC6(O)C(O)(COC5(O)C6(C)C13O)C4CC2

>  <smiles>  (280) 
[H]OC12C(=C([H])[H])C3=C1C([H])([H])C(=O)OC([H])(C([H])([H])[H])C1(C([H])([H])[H])C([H])(O[H])C4([H])C5(O[H])OC([H])([H])C(O[H])(C1([H])C([H])([H])C3([H])[H])C(O[H])(C([H])([H])C4([H])C([H])([H])[H])C25C([H])([H])[H]

$$$$
91:0:1
     RDKit          3D

 67 72  0  0  1  0  0  0  0  0999 V2000
    4.4391   -7.4810    3.5679 C   0  0  0  0  0  0  0  0  0  0  0  0
    3.6497   -6.3924    3.5499 C   0  0  0  0  0  0  0  0  0  0  0  0
    3.4121   -5.3852    4.3983 C   0  0  0  0  0  0  0  0  0  0  0  0
    2.2158   -5.1567    3.8592 C   0  0  0  0  0  0  0  0  0  0  0  0
    0.9425   -4.4188    4.3096 C   0  0  0  0  0  0  0  0  0  0  0  0
    1.1396   -2.9533    4.7649 C   0  0  0  0  0  0  0  0  0  0  0  0
    0.1744   -2.2101    4.9617 O   0  0  0  0  0  0  0  0  0  0  0  0
    2.4347   -2.5810    4.8062 O   0  0  0  0  0  0  0  0  0  0  0  0
    2.9240   -1.3320    4.3217 C   0  0  1  0  0  0  0  0  0  0  0  0
    3.1208   -0.4418    5.5688 C   0  0  0  0  0  0  0  0  0  0  0  0
    4.1559   -1.5569    3.3092 C   0  0  2  0  0  0  0  0  0  0  0  0
    5.2327   -0.4780    3.6585 C   0  0  0  0  0  0  0  0  0  0  0  0
    3.6202   -1.0736    1.6733 C   0  0  1  0  0  0  0  0  0  0  0  0
    4.4339   -0.0888    1.0578 O   0  0  0  0  0  0  0  0  0  0  0  0
    3.2794   -2.2951    0.4688 C   0  0  1  0  0  0  0  0  0  0  0  0
    4.1698   -2.9241   -0.7608 C   0  0  1  0  0  0  0  0  0  0  0  0
    5.1660   -1.9213   -1.3663 C   0  0  0  0  0  0  0  0  0  0  0  0
    4.8250   -4.4308   -0.4899 C   0  0  0  0  0  0  0  0  0  0  0  0
    4.6993   -5.0907    1.0601 C   0  0  1  0  0  0  0  0  0  0  0  0
    5.1663   -6.4074    0.8834 O   0  0  0  0  0  0  0  0  0  0  0  0
    5.4560   -4.3169    2.4491 C   0  0  1  0  0  0  0  0  0  0  0  0
    6.4224   -5.1793    3.0048 O   0  0  0  0  0  0  0  0  0  0  0  0
    6.1679   -3.4021    1.6206 C   0  0  0  0  0  0  0  0  0  0  0  0
    4.8604   -2.8652    1.4299 O   0  0  0  0  0  0  0  0  0  0  0  0
    3.3831   -3.4021    1.3861 C   0  0  1  0  0  0  0  0  0  0  0  0
    2.2774   -3.0618    2.1643 O   0  0  0  0  0  0  0  0  0  0  0  0
    3.2108   -4.9748    1.2733 C   0  0  1  0  0  0  0  0  0  0  0  0
    2.2287   -5.2649    0.0949 C   0  0  0  0  0  0  0  0  0  0  0  0
    2.6253   -5.8585    2.5456 C   0  0  1  0  0  0  0  0  0  0  0  0
    1.7550   -6.9219    2.2080 O   0  0  0  0  0  0  0  0  0  0  0  0
    4.9165   -3.1354    3.6582 C   0  0  2  0  0  0  0  0  0  0  0  0
    4.9764   -3.6570    5.1552 C   0  0  0  0  0  0  0  0  0  0  0  0
    4.1082   -4.8626    5.6034 C   0  0  0  0  0  0  0  0  0  0  0  0
    4.4438   -8.2059    2.7627 H   0  0  0  0  0  0  0  0  0  0  0  0
    5.0653   -7.6781    4.4298 H   0  0  0  0  0  0  0  0  0  0  0  0
    0.2506   -4.4057    3.4665 H   0  0  0  0  0  0  0  0  0  0  0  0
    0.4492   -4.9805    5.1010 H   0  0  0  0  0  0  0  0  0  0  0  0
    2.1193   -0.8591    3.7620 H   0  0  0  0  0  0  0  0  0  0  0  0
    3.3712    0.5861    5.3049 H   0  0  0  0  0  0  0  0  0  0  0  0
    3.8883   -0.8236    6.2416 H   0  0  0  0  0  0  0  0  0  0  0  0
    2.1926   -0.3924    6.1406 H   0  0  0  0  0  0  0  0  0  0  0  0
    6.0955   -0.5373    2.9907 H   0  0  0  0  0  0  0  0  0  0  0  0
    5.6231   -0.5881    4.6712 H   0  0  0  0  0  0  0  0  0  0  0  0
    4.8399    0.5369    3.5713 H   0  0  0  0  0  0  0  0  0  0  0  0
    2.6854   -0.5244    1.7976 H   0  0  0  0  0  0  0  0  0  0  0  0
    4.2046    0.7557    1.4165 H   0  0  0  0  0  0  0  0  0  0  0  0
    2.2546   -2.2188    0.1023 H   0  0  0  0  0  0  0  0  0  0  0  0
    3.4535   -3.0557   -1.5735 H   0  0  0  0  0  0  0  0  0  0  0  0
    5.9615   -1.6907   -0.6559 H   0  0  0  0  0  0  0  0  0  0  0  0
    4.6687   -0.9853   -1.6257 H   0  0  0  0  0  0  0  0  0  0  0  0
    5.6207   -2.3242   -2.2727 H   0  0  0  0  0  0  0  0  0  0  0  0
    4.3575   -5.1094   -1.1951 H   0  0  0  0  0  0  0  0  0  0  0  0
    5.8442   -4.4530   -0.8812 H   0  0  0  0  0  0  0  0  0  0  0  0
    4.6514   -6.8047    0.1935 H   0  0  0  0  0  0  0  0  0  0  0  0
    6.8478   -5.6371    2.2955 H   0  0  0  0  0  0  0  0  0  0  0  0
    6.8334   -2.6694    2.0674 H   0  0  0  0  0  0  0  0  0  0  0  0
    6.7429   -3.8278    0.7990 H   0  0  0  0  0  0  0  0  0  0  0  0
    2.1383   -2.1316    2.1028 H   0  0  0  0  0  0  0  0  0  0  0  0
    1.2089   -5.2350    0.4470 H   0  0  0  0  0  0  0  0  0  0  0  0
    2.3814   -6.2520   -0.3178 H   0  0  0  0  0  0  0  0  0  0  0  0
    2.2457   -4.5756   -0.7480 H   0  0  0  0  0  0  0  0  0  0  0  0
    2.2996   -7.6562    1.9634 H   0  0  0  0  0  0  0  0  0  0  0  0
    5.8800   -2.6809    3.8297 H   0  0  0  0  0  0  0  0  0  0  0  0
    6.0046   -3.9369    5.3822 H   0  0  0  0  0  0  0  0  0  0  0  0
    4.7939   -2.8268    5.8293 H   0  0  0  0  0  0  0  0  0  0  0  0
    3.3830   -4.5711    6.3638 H   0  0  0  0  0  0  0  0  0  0  0  0
    4.7273   -5.6437    6.0459 H   0  0  0  0  0  0  0  0  0  0  0  0
  1  2  2  0
  1 34  1  0
  1 35  1  0
  2 29  1  0
  2  3  1  0
  3 33  1  0
  3  4  2  0
  4 29  1  0
  4  5  1  0
  5  6  1  0
  5 36  1  0
  5 37  1  0
  6  7  2  0
  6  8  1  0
  8  9  1  0
  9 10  1  0
  9 11  1  0
  9 38  1  6
 10 39  1  0
 10 40  1  0
 10 41  1  0
 11 31  1  0
 11 12  1  1
 11 13  1  0
 12 42  1  0
 12 43  1  0
 12 44  1  0
 13 14  1  0
 13 15  1  0
 13 45  1  1
 14 46  1  0
 15 25  1  0
 15 16  1  0
 15 47  1  6
 16 17  1  0
 16 18  1  0
 16 48  1  6
 17 49  1  0
 17 50  1  0
 17 51  1  0
 18 19  1  0
 18 52  1  0
 18 53  1  0
 19 27  1  0
 19 20  1  6
 19 21  1  0
 20 54  1  0
 21 22  1  1
 21 23  1  0
 21 31  1  0
 22 55  1  0
 23 24  1  0
 23 56  1  0
 23 57  1  0
 24 25  1  0
 25 26  1  1
 25 27  1  0
 26 58  1  0
 27 28  1  6
 27 29  1  0
 28 59  1  0
 28 60  1  0
 28 61  1  0
 29 30  1  6
 30 62  1  0
 31 32  1  0
 31 63  1  1
 32 33  1  0
 32 64  1  0
 32 65  1  0
 33 66  1  0
 33 67  1  0
M  END
>  <i_m_ct_stereo_status>  (281) 
1

>  <s_m_source_file>  (281) 
/var/tmp/pbs.5076255.sched01/tmp4tnmxshi/11480k6dy83.sdf

>  <i_m_source_file_index>  (281) 
13

>  <i_lp_mmshare_version>  (281) 
48012

>  <i_f3d_flags>  (281) 
0

>  <s_epik_input>  (281) 
W0NIM11bQ0BASF0xT0MoPU8pW0NIMl1DKD1DKEMyPVtDSDJdKVtDSDJdW0NIMl0zKVtDQEBdMihbT0hdKVtDQEBdKFtDSDNdKShbQ0BAXShbT0hdKShPW0NIMl00KVtDQEBIXShbQ0BASF01W09IXSlbQ0BASF0oW0NIM10pW0NIMl02KVtDQF02KFtPSF0pW0NAXTQoW09IXSlbQ0BIXTNbQ0BdMTVbQ0gzXQ==

>  <s_epik_cmdline>  (281) 
J2VwaWtfcHl0aG9uJywgJy1waHQnLCAnMi4wJywgJy1waCcsICc3LjAnLCAnLXRuJywgJzgnLCAnLW1hJywgJzIwMCcsICctaW1hZScsICc8aW5maWxlLm1hZT4nLCAnLW9tYWUnLCAnPG91dGZpbGUubWFlPic=

>  <r_lp_tautomer_probability>  (281) 
1

>  <r_epik_Ionization_Penalty>  (281) 
1.47411e-06

>  <r_epik_Ionization_Penalty_Charging>  (281) 
0

>  <r_epik_Ionization_Penalty_Neutral>  (281) 
1.47411e-06

>  <r_epik_State_Penalty>  (281) 
-0

>  <r_epik_Charging_Adjusted_Penalty>  (281) 
0

>  <i_epik_Tot_Q>  (281) 
0

>  <i_epik_Tot_abs_Q>  (281) 
0

>  <s_epik_Chemistry_Notes>  (281) 
This compound has an ester and may undergo hydrolysis at high or low pH.

>  <s_lp_Force_Field>  (281) 
OPLS3e

>  <r_lp_Energy>  (281) 
499.546

>  <b_lp_Chiralities_Consistent>  (281) 
1

>  <s_lp_Variant>  (281) 
91:0-1

>  <s_i_glide_gridfile>  (281) 
pfpi4k_grid

>  <i_i_glide_lignum>  (281) 
13

>  <i_i_glide_rotatable_bonds>  (281) 
5

>  <r_i_docking_score>  (281) 
-2.05455

>  <r_i_glide_ligand_efficiency>  (281) 
-0.0622591

>  <r_i_glide_ligand_efficiency_sa>  (281) 
-0.199698

>  <r_i_glide_ligand_efficiency_ln>  (281) 
-0.456922

>  <r_i_glide_gscore>  (281) 
-2.05455

>  <r_i_glide_lipo>  (281) 
-0.335875

>  <r_i_glide_hbond>  (281) 
0

>  <r_i_glide_metal>  (281) 
-0

>  <r_i_glide_rewards>  (281) 
-0.272528

>  <r_i_glide_evdw>  (281) 
-22.5521

>  <r_i_glide_ecoul>  (281) 
-2.12362

>  <r_i_glide_erotb>  (281) 
0

>  <r_i_glide_esite>  (281) 
0

>  <r_i_glide_emodel>  (281) 
-26.8794

>  <r_i_glide_energy>  (281) 
-24.6757

>  <r_i_glide_einternal>  (281) 
1.30703

>  <r_i_glide_intrahb_reward>  (281) 
-0

>  <i_i_glide_confnum>  (281) 
2

>  <i_i_glide_posenum>  (281) 
5

>  <r_i_glide_eff_state_penalty>  (281) 
0

>  <ligand_id>  (281) 
91

>  <original_smiles>  (281) 
C=C1C2=C3CC(=O)OC(C)C4(C)C(O)C5C(C)CC6(O)C(O)(COC5(O)C6(C)C13O)C4CC2

>  <smiles>  (281) 
[H]OC12C(=C([H])[H])C3=C1C([H])([H])C(=O)OC([H])(C([H])([H])[H])C1(C([H])([H])[H])C([H])(O[H])C4([H])C5(O[H])OC([H])([H])C(O[H])(C1([H])C([H])([H])C3([H])[H])C(O[H])(C([H])([H])C4([H])C([H])([H])[H])C25C([H])([H])[H]

$$$$
91:0:2
     RDKit          3D

 67 72  0  0  1  0  0  0  0  0999 V2000
    4.1767   -7.5605    4.5728 C   0  0  0  0  0  0  0  0  0  0  0  0
    3.4012   -6.4769    4.3834 C   0  0  0  0  0  0  0  0  0  0  0  0
    3.2030   -5.3274    5.0407 C   0  0  0  0  0  0  0  0  0  0  0  0
    1.9791   -5.1839    4.5201 C   0  0  0  0  0  0  0  0  0  0  0  0
    0.7312   -4.3509    4.8766 C   0  0  0  0  0  0  0  0  0  0  0  0
    0.9664   -2.8313    5.0524 C   0  0  0  0  0  0  0  0  0  0  0  0
    0.0231   -2.0462    5.1673 O   0  0  0  0  0  0  0  0  0  0  0  0
    2.2697   -2.4902    4.9580 O   0  0  0  0  0  0  0  0  0  0  0  0
    2.7547   -1.3492    4.2481 C   0  0  1  0  0  0  0  0  0  0  0  0
    3.0100   -0.2540    5.3058 C   0  0  0  0  0  0  0  0  0  0  0  0
    3.9508   -1.7722    3.2495 C   0  0  2  0  0  0  0  0  0  0  0  0
    5.0453   -0.6657    3.3511 C   0  0  0  0  0  0  0  0  0  0  0  0
    3.3430   -1.5841    1.5792 C   0  0  1  0  0  0  0  0  0  0  0  0
    4.1234   -0.7218    0.7625 O   0  0  0  0  0  0  0  0  0  0  0  0
    2.9320   -2.9907    0.6253 C   0  0  1  0  0  0  0  0  0  0  0  0
    3.7608   -3.8594   -0.5027 C   0  0  1  0  0  0  0  0  0  0  0  0
    4.7426   -3.0010   -1.3213 C   0  0  0  0  0  0  0  0  0  0  0  0
    4.4108   -5.3084    0.0105 C   0  0  0  0  0  0  0  0  0  0  0  0
    4.3518   -5.6669    1.6558 C   0  0  1  0  0  0  0  0  0  0  0  0
    4.7755   -7.0176    1.7086 O   0  0  0  0  0  0  0  0  0  0  0  0
    5.1892   -4.6636    2.8437 C   0  0  1  0  0  0  0  0  0  0  0  0
    6.1886   -5.4160    3.5028 O   0  0  0  0  0  0  0  0  0  0  0  0
    5.8674   -3.9270    1.8319 C   0  0  0  0  0  0  0  0  0  0  0  0
    4.5573   -3.4134    1.6007 O   0  0  0  0  0  0  0  0  0  0  0  0
    3.0832   -3.9246    1.7153 C   0  0  1  0  0  0  0  0  0  0  0  0
    2.0505   -3.4438    2.4973 O   0  0  0  0  0  0  0  0  0  0  0  0
    2.8687   -5.4902    1.9052 C   0  0  1  0  0  0  0  0  0  0  0  0
    1.8221   -5.9773    0.8424 C   0  0  0  0  0  0  0  0  0  0  0  0
    2.3363   -6.1217    3.3454 C   0  0  1  0  0  0  0  0  0  0  0  0
    1.4422   -7.2119    3.2451 O   0  0  0  0  0  0  0  0  0  0  0  0
    4.7237   -3.2713    3.8425 C   0  0  2  0  0  0  0  0  0  0  0  0
    4.8225   -3.5157    5.4124 C   0  0  0  0  0  0  0  0  0  0  0  0
    3.9570   -4.6055    6.1000 C   0  0  0  0  0  0  0  0  0  0  0  0
    4.1381   -8.4140    3.9127 H   0  0  0  0  0  0  0  0  0  0  0  0
    4.8350   -7.6142    5.4263 H   0  0  0  0  0  0  0  0  0  0  0  0
    0.0032   -4.4807    4.0777 H   0  0  0  0  0  0  0  0  0  0  0  0
    0.2676   -4.7498    5.7753 H   0  0  0  0  0  0  0  0  0  0  0  0
    1.9331   -0.9718    3.6425 H   0  0  0  0  0  0  0  0  0  0  0  0
    3.2594    0.7045    4.8503 H   0  0  0  0  0  0  0  0  0  0  0  0
    3.8016   -0.5182    6.0052 H   0  0  0  0  0  0  0  0  0  0  0  0
    2.1087   -0.0842    5.8947 H   0  0  0  0  0  0  0  0  0  0  0  0
    5.8759   -0.8606    2.6700 H   0  0  0  0  0  0  0  0  0  0  0  0
    5.4734   -0.5976    4.3500 H   0  0  0  0  0  0  0  0  0  0  0  0
    4.6535    0.3190    3.0923 H   0  0  0  0  0  0  0  0  0  0  0  0
    2.4131   -1.0186    1.6447 H   0  0  0  0  0  0  0  0  0  0  0  0
    3.6014   -0.5156    0.0021 H   0  0  0  0  0  0  0  0  0  0  0  0
    1.8949   -2.9315    0.2926 H   0  0  0  0  0  0  0  0  0  0  0  0
    3.0102   -4.1202   -1.2504 H   0  0  0  0  0  0  0  0  0  0  0  0
    5.5699   -2.6607   -0.6979 H   0  0  0  0  0  0  0  0  0  0  0  0
    4.2462   -2.1205   -1.7287 H   0  0  0  0  0  0  0  0  0  0  0  0
    5.1541   -3.5698   -2.1548 H   0  0  0  0  0  0  0  0  0  0  0  0
    3.9121   -6.1038   -0.5372 H   0  0  0  0  0  0  0  0  0  0  0  0
    5.4103   -5.4182   -0.4110 H   0  0  0  0  0  0  0  0  0  0  0  0
    4.2900   -7.5091    1.0643 H   0  0  0  0  0  0  0  0  0  0  0  0
    6.8147   -4.8212    3.8775 H   0  0  0  0  0  0  0  0  0  0  0  0
    6.5685   -3.1388    2.1034 H   0  0  0  0  0  0  0  0  0  0  0  0
    6.3940   -4.5142    1.0844 H   0  0  0  0  0  0  0  0  0  0  0  0
    2.2460   -3.7005    3.3868 H   0  0  0  0  0  0  0  0  0  0  0  0
    0.8151   -5.8373    1.2302 H   0  0  0  0  0  0  0  0  0  0  0  0
    1.9305   -7.0416    0.6399 H   0  0  0  0  0  0  0  0  0  0  0  0
    1.8221   -5.4588   -0.1106 H   0  0  0  0  0  0  0  0  0  0  0  0
    1.9704   -7.9902    3.1469 H   0  0  0  0  0  0  0  0  0  0  0  0
    5.7106   -2.8167    3.8924 H   0  0  0  0  0  0  0  0  0  0  0  0
    5.8515   -3.7647    5.6546 H   0  0  0  0  0  0  0  0  0  0  0  0
    4.6712   -2.5754    5.9275 H   0  0  0  0  0  0  0  0  0  0  0  0
    3.2694   -4.1678    6.8271 H   0  0  0  0  0  0  0  0  0  0  0  0
    4.5879   -5.3073    6.6530 H   0  0  0  0  0  0  0  0  0  0  0  0
  1  2  2  0
  1 34  1  0
  1 35  1  0
  2 29  1  0
  2  3  1  0
  3 33  1  0
  3  4  2  0
  4 29  1  0
  4  5  1  0
  5  6  1  0
  5 36  1  0
  5 37  1  0
  6  7  2  0
  6  8  1  0
  8  9  1  0
  9 10  1  0
  9 11  1  0
  9 38  1  6
 10 39  1  0
 10 40  1  0
 10 41  1  0
 11 31  1  0
 11 12  1  6
 11 13  1  0
 12 42  1  0
 12 43  1  0
 12 44  1  0
 13 14  1  0
 13 15  1  0
 13 45  1  1
 14 46  1  0
 15 25  1  0
 15 16  1  0
 15 47  1  6
 16 17  1  0
 16 18  1  0
 16 48  1  6
 17 49  1  0
 17 50  1  0
 17 51  1  0
 18 19  1  0
 18 52  1  0
 18 53  1  0
 19 27  1  0
 19 20  1  6
 19 21  1  0
 20 54  1  0
 21 22  1  1
 21 23  1  0
 21 31  1  0
 22 55  1  0
 23 24  1  0
 23 56  1  0
 23 57  1  0
 24 25  1  0
 25 26  1  1
 25 27  1  0
 26 58  1  0
 27 28  1  6
 27 29  1  0
 28 59  1  0
 28 60  1  0
 28 61  1  0
 29 30  1  6
 30 62  1  0
 31 32  1  0
 31 63  1  6
 32 33  1  0
 32 64  1  0
 32 65  1  0
 33 66  1  0
 33 67  1  0
M  END
>  <i_m_ct_stereo_status>  (282) 
1

>  <s_m_source_file>  (282) 
/var/tmp/pbs.5076255.sched01/tmp4tnmxshi/11480k6dy83.sdf

>  <i_m_source_file_index>  (282) 
13

>  <i_lp_mmshare_version>  (282) 
48012

>  <i_f3d_flags>  (282) 
0

>  <s_epik_input>  (282) 
W0NIM11bQ0BASF0xT0MoPU8pW0NIMl1DKD1DKEMyPVtDSDJdKVtDSDJdW0NIMl0zKVtDQEBdMihbT0hdKVtDQEBdKFtDSDNdKShbQ0BAXShbT0hdKShPW0NIMl00KVtDQEBIXShbQ0BASF01W09IXSlbQ0BASF0oW0NIM10pW0NIMl02KVtDQF02KFtPSF0pW0NAXTQoW09IXSlbQ0BIXTNbQ0BdMTVbQ0gzXQ==

>  <s_epik_cmdline>  (282) 
J2VwaWtfcHl0aG9uJywgJy1waHQnLCAnMi4wJywgJy1waCcsICc3LjAnLCAnLXRuJywgJzgnLCAnLW1hJywgJzIwMCcsICctaW1hZScsICc8aW5maWxlLm1hZT4nLCAnLW9tYWUnLCAnPG91dGZpbGUubWFlPic=

>  <r_lp_tautomer_probability>  (282) 
1

>  <r_epik_Ionization_Penalty>  (282) 
1.47411e-06

>  <r_epik_Ionization_Penalty_Charging>  (282) 
0

>  <r_epik_Ionization_Penalty_Neutral>  (282) 
1.47411e-06

>  <r_epik_State_Penalty>  (282) 
-0

>  <r_epik_Charging_Adjusted_Penalty>  (282) 
0

>  <i_epik_Tot_Q>  (282) 
0

>  <i_epik_Tot_abs_Q>  (282) 
0

>  <s_epik_Chemistry_Notes>  (282) 
This compound has an ester and may undergo hydrolysis at high or low pH.

>  <s_lp_Force_Field>  (282) 
OPLS3e

>  <r_lp_Energy>  (282) 
499.546

>  <b_lp_Chiralities_Consistent>  (282) 
1

>  <s_lp_Variant>  (282) 
91:0-1

>  <s_i_glide_gridfile>  (282) 
pfpi4k_grid

>  <i_i_glide_lignum>  (282) 
13

>  <i_i_glide_rotatable_bonds>  (282) 
5

>  <r_i_docking_score>  (282) 
-1.74273

>  <r_i_glide_ligand_efficiency>  (282) 
-0.0528099

>  <r_i_glide_ligand_efficiency_sa>  (282) 
-0.16939

>  <r_i_glide_ligand_efficiency_ln>  (282) 
-0.387573

>  <r_i_glide_gscore>  (282) 
-1.74273

>  <r_i_glide_lipo>  (282) 
-0.255644

>  <r_i_glide_hbond>  (282) 
0

>  <r_i_glide_metal>  (282) 
-0

>  <r_i_glide_rewards>  (282) 
-0.259956

>  <r_i_glide_evdw>  (282) 
-24.3892

>  <r_i_glide_ecoul>  (282) 
-0.0480138

>  <r_i_glide_erotb>  (282) 
0

>  <r_i_glide_esite>  (282) 
-0.000466094

>  <r_i_glide_emodel>  (282) 
-26.6384

>  <r_i_glide_energy>  (282) 
-24.4372

>  <r_i_glide_einternal>  (282) 
0.599648

>  <r_i_glide_intrahb_reward>  (282) 
-0

>  <i_i_glide_confnum>  (282) 
2

>  <i_i_glide_posenum>  (282) 
37

>  <r_i_glide_eff_state_penalty>  (282) 
0

>  <ligand_id>  (282) 
91

>  <original_smiles>  (282) 
C=C1C2=C3CC(=O)OC(C)C4(C)C(O)C5C(C)CC6(O)C(O)(COC5(O)C6(C)C13O)C4CC2

>  <smiles>  (282) 
[H]OC12C(=C([H])[H])C3=C1C([H])([H])C(=O)OC([H])(C([H])([H])[H])C1(C([H])([H])[H])C([H])(O[H])C4([H])C5(O[H])OC([H])([H])C(O[H])(C1([H])C([H])([H])C3([H])[H])C(O[H])(C([H])([H])C4([H])C([H])([H])[H])C25C([H])([H])[H]

$$$$
92:0:0
     RDKit          3D

 69 75  0  0  1  0  0  0  0  0999 V2000
    4.9418  -11.7196    4.5329 C   0  0  0  0  0  0  0  0  0  0  0  0
    3.7638  -11.2894    4.1222 C   0  0  0  0  0  0  0  0  0  0  0  0
    2.6360  -10.7551    4.9735 C   0  0  0  0  0  0  0  0  0  0  0  0
    2.4048   -9.3756    4.7969 O   0  0  0  0  0  0  0  0  0  0  0  0
    2.0247   -8.9245    3.4869 C   0  0  1  0  0  0  0  0  0  0  0  0
    0.9143   -9.7619    2.8275 C   0  0  0  0  0  0  0  0  0  0  0  0
   -0.2334   -9.0810    2.5940 C   0  0  0  0  0  0  0  0  0  0  0  0
   -1.5810   -9.5993    2.1241 C   0  0  0  0  0  0  0  0  0  0  0  0
   -0.0354   -7.7020    2.9809 C   0  0  0  0  0  0  0  0  0  0  0  0
   -0.8078   -6.7586    2.8560 O   0  0  0  0  0  0  0  0  0  0  0  0
    1.3592   -7.5763    3.5233 C   0  0  1  0  0  0  0  0  0  0  0  0
    1.9596   -6.3345    4.0795 C   0  0  0  0  0  0  0  0  0  0  0  0
    2.5069   -6.9115    2.7616 C   0  0  2  0  0  0  0  0  0  0  0  0
    2.3306   -6.0625    1.5970 O   0  0  0  0  0  0  0  0  0  0  0  0
    3.0537   -4.8566    1.3819 C   0  0  1  0  0  0  0  0  0  0  0  0
    2.5604   -4.2759    0.1994 O   0  0  0  0  0  0  0  0  0  0  0  0
    2.7648   -3.8380    2.5413 C   0  0  0  0  0  0  0  0  0  0  0  0
    3.5026   -2.4741    2.4719 C   0  0  1  0  0  0  0  0  0  0  0  0
    2.7963   -1.4245    3.3555 C   0  0  0  0  0  0  0  0  0  0  0  0
    5.0014   -2.5799    2.8648 C   0  0  1  0  0  0  0  0  0  0  0  0
    5.1555   -2.7934    4.2570 O   0  0  0  0  0  0  0  0  0  0  0  0
    5.7597   -3.6781    2.0987 C   0  0  2  0  0  0  0  0  0  0  0  0
    5.1732   -3.8158    0.7692 O   0  0  0  0  0  0  0  0  0  0  0  0
    4.5745   -5.1061    1.1425 C   0  0  2  0  0  0  0  0  0  0  0  0
    4.8008   -5.9604   -0.1057 C   0  0  0  0  0  0  0  0  0  0  0  0
    5.5141   -5.1565    2.3908 C   0  0  1  0  0  0  0  0  0  0  0  0
    6.8232   -5.9432    2.5965 C   0  0  2  0  0  0  0  0  0  0  0  0
    7.4719   -6.5905    1.4891 O   0  0  0  0  0  0  0  0  0  0  0  0
    6.9498   -7.4438    2.5223 C   0  0  1  0  0  0  0  0  0  0  0  0
    7.9691   -8.1195    3.4149 C   0  0  0  0  0  0  0  0  0  0  0  0
    5.7868   -8.3063    2.1236 C   0  0  0  0  0  0  0  0  0  0  0  0
    4.6342   -8.4404    3.1745 C   0  0  1  0  0  0  0  0  0  0  0  0
    4.7563   -7.6042    4.3186 O   0  0  0  0  0  0  0  0  0  0  0  0
    3.1686   -8.3181    2.6230 C   0  0  1  0  0  0  0  0  0  0  0  0
    3.1136   -8.8417    1.2921 O   0  0  0  0  0  0  0  0  0  0  0  0
    5.1887  -11.8263    5.5971 H   0  0  0  0  0  0  0  0  0  0  0  0
    5.6720  -12.0944    3.8319 H   0  0  0  0  0  0  0  0  0  0  0  0
    3.5621  -11.2989    3.0172 H   0  0  0  0  0  0  0  0  0  0  0  0
    1.7188  -11.3583    4.8769 H   0  0  0  0  0  0  0  0  0  0  0  0
    2.8981  -10.8559    6.0346 H   0  0  0  0  0  0  0  0  0  0  0  0
    0.9087  -10.8336    2.6408 H   0  0  0  0  0  0  0  0  0  0  0  0
   -2.3426   -9.5363    2.9079 H   0  0  0  0  0  0  0  0  0  0  0  0
   -1.5001  -10.6369    1.8015 H   0  0  0  0  0  0  0  0  0  0  0  0
   -1.9433   -9.0322    1.2853 H   0  0  0  0  0  0  0  0  0  0  0  0
    1.3150   -5.4491    4.0646 H   0  0  0  0  0  0  0  0  0  0  0  0
    2.5438   -6.4223    5.0124 H   0  0  0  0  0  0  0  0  0  0  0  0
    2.9195   -4.7237   -0.5540 H   0  0  0  0  0  0  0  0  0  0  0  0
    1.6908   -3.6611    2.5560 H   0  0  0  0  0  0  0  0  0  0  0  0
    3.0393   -4.2363    3.5157 H   0  0  0  0  0  0  0  0  0  0  0  0
    3.4543   -2.1004    1.4477 H   0  0  0  0  0  0  0  0  0  0  0  0
    2.7348   -1.7423    4.3972 H   0  0  0  0  0  0  0  0  0  0  0  0
    1.7832   -1.2461    3.0055 H   0  0  0  0  0  0  0  0  0  0  0  0
    3.3225   -0.4694    3.3413 H   0  0  0  0  0  0  0  0  0  0  0  0
    5.4682   -1.6170    2.6570 H   0  0  0  0  0  0  0  0  0  0  0  0
    4.7955   -3.6453    4.4648 H   0  0  0  0  0  0  0  0  0  0  0  0
    6.8324   -3.4827    2.0563 H   0  0  0  0  0  0  0  0  0  0  0  0
    4.2014   -6.8593   -0.0654 H   0  0  0  0  0  0  0  0  0  0  0  0
    5.8456   -6.2223   -0.2271 H   0  0  0  0  0  0  0  0  0  0  0  0
    4.5318   -5.4158   -1.0114 H   0  0  0  0  0  0  0  0  0  0  0  0
    4.9262   -5.2020    3.3005 H   0  0  0  0  0  0  0  0  0  0  0  0
    7.5229   -5.4737    3.2795 H   0  0  0  0  0  0  0  0  0  0  0  0
    7.5342   -8.4083    4.3819 H   0  0  0  0  0  0  0  0  0  0  0  0
    8.7844   -7.4265    3.6082 H   0  0  0  0  0  0  0  0  0  0  0  0
    8.3784   -9.0038    2.9220 H   0  0  0  0  0  0  0  0  0  0  0  0
    5.5040   -8.0483    1.1052 H   0  0  0  0  0  0  0  0  0  0  0  0
    6.1802   -9.3147    2.0163 H   0  0  0  0  0  0  0  0  0  0  0  0
    4.8245   -9.4068    3.5513 H   0  0  0  0  0  0  0  0  0  0  0  0
    4.1804   -8.0334    4.9394 H   0  0  0  0  0  0  0  0  0  0  0  0
    3.3987   -9.7441    1.3322 H   0  0  0  0  0  0  0  0  0  0  0  0
  1  2  2  0
  1 36  1  0
  1 37  1  0
  2  3  1  0
  2 38  1  0
  3  4  1  0
  3 39  1  0
  3 40  1  0
  5  4  1  1
  5 11  1  0
  5 34  1  0
  5  6  1  0
  6  7  2  0
  6 41  1  0
  7  8  1  0
  7  9  1  0
  8 42  1  0
  8 43  1  0
  8 44  1  0
  9 10  2  0
  9 11  1  0
 11 13  1  0
 11 12  1  1
 12 13  1  0
 12 45  1  0
 12 46  1  0
 13 34  1  0
 13 14  1  6
 14 15  1  0
 15 24  1  0
 15 16  1  6
 15 17  1  0
 16 47  1  0
 17 18  1  0
 17 48  1  0
 17 49  1  0
 18 19  1  0
 18 20  1  0
 18 50  1  6
 19 51  1  0
 19 52  1  0
 19 53  1  0
 20 21  1  0
 20 22  1  0
 20 54  1  6
 21 55  1  0
 22 26  1  0
 22 23  1  0
 22 56  1  6
 23 24  1  0
 24 25  1  6
 24 26  1  0
 25 57  1  0
 25 58  1  0
 25 59  1  0
 26 27  1  0
 26 60  1  1
 27 29  1  0
 27 28  1  0
 27 61  1  1
 28 29  1  0
 29 30  1  1
 29 31  1  0
 30 62  1  0
 30 63  1  0
 30 64  1  0
 31 32  1  0
 31 65  1  0
 31 66  1  0
 32 33  1  0
 32 34  1  0
 32 67  1  1
 33 68  1  0
 34 35  1  6
 35 69  1  0
M  END
>  <i_m_ct_stereo_status>  (283) 
1

>  <s_m_source_file>  (283) 
/var/tmp/pbs.5076255.sched01/tmp4tnmxshi/11480k6dy83.sdf

>  <i_m_source_file_index>  (283) 
14

>  <i_lp_mmshare_version>  (283) 
48012

>  <i_f3d_flags>  (283) 
0

>  <s_epik_input>  (283) 
W0NIMl09W0NIXVtDSDJdT1tDQF0xKFtDSF09QyhbQ0gzXSlDMj1PKVtDQEBdKFtPSF0pKFtDQEBdMyhbQ0BdMTI0KVtDSDJdNClbQ0BIXShbT0hdKVtDSDJdW0NAXTUoW0NIM10pW0NAQEhdKE81KVtDQEhdNltDQEBIXTdbQ0BIXShbT0hdKVtDQEhdKFtDSDNdKVtDSDJdW0NAQF0oTzMpKFtPSF0pW0NAXTYoTzcpW0NIM10=

>  <s_epik_cmdline>  (283) 
J2VwaWtfcHl0aG9uJywgJy1waHQnLCAnMi4wJywgJy1waCcsICc3LjAnLCAnLXRuJywgJzgnLCAnLW1hJywgJzIwMCcsICctaW1hZScsICc8aW5maWxlLm1hZT4nLCAnLW9tYWUnLCAnPG91dGZpbGUubWFlPic=

>  <r_lp_tautomer_probability>  (283) 
1

>  <r_epik_Ionization_Penalty>  (283) 
3.73922e-05

>  <r_epik_Ionization_Penalty_Charging>  (283) 
0

>  <r_epik_Ionization_Penalty_Neutral>  (283) 
3.73922e-05

>  <r_epik_State_Penalty>  (283) 
-0

>  <r_epik_Charging_Adjusted_Penalty>  (283) 
0

>  <i_epik_Tot_Q>  (283) 
0

>  <i_epik_Tot_abs_Q>  (283) 
0

>  <s_lp_Force_Field>  (283) 
OPLS3e

>  <r_lp_Energy>  (283) 
56.6438

>  <b_lp_Chiralities_Consistent>  (283) 
1

>  <s_lp_Variant>  (283) 
92:0-1

>  <s_i_glide_gridfile>  (283) 
pfpi4k_grid

>  <i_i_glide_lignum>  (283) 
14

>  <i_i_glide_rotatable_bonds>  (283) 
7

>  <r_i_docking_score>  (283) 
-3.35755

>  <r_i_glide_ligand_efficiency>  (283) 
-0.09593

>  <r_i_glide_ligand_efficiency_sa>  (283) 
-0.313794

>  <r_i_glide_ligand_efficiency_ln>  (283) 
-0.737057

>  <r_i_glide_gscore>  (283) 
-3.35755

>  <r_i_glide_lipo>  (283) 
-0.495746

>  <r_i_glide_hbond>  (283) 
-0.16

>  <r_i_glide_metal>  (283) 
-0

>  <r_i_glide_rewards>  (283) 
-0.564481

>  <r_i_glide_evdw>  (283) 
-25.3578

>  <r_i_glide_ecoul>  (283) 
-7.15293

>  <r_i_glide_erotb>  (283) 
0.253723

>  <r_i_glide_esite>  (283) 
-0.0502181

>  <r_i_glide_emodel>  (283) 
-42.1772

>  <r_i_glide_energy>  (283) 
-32.5107

>  <r_i_glide_einternal>  (283) 
1.23202

>  <r_i_glide_intrahb_reward>  (283) 
-0.5

>  <i_i_glide_confnum>  (283) 
5

>  <i_i_glide_posenum>  (283) 
21

>  <r_i_glide_eff_state_penalty>  (283) 
0

>  <ligand_id>  (283) 
92

>  <original_smiles>  (283) 
C=CCOC12C=C(C)C(=O)C13CC31OC3(O)CC(C)C(O)C4OC3(C)C4C3OC3(C)CC(O)C21O

>  <smiles>  (283) 
[H]OC1([H])C2([H])OC3(C([H])([H])[H])C(O[H])(OC45C([H])([H])C46C(=O)C(C([H])([H])[H])=C([H])C6(OC([H])([H])C([H])=C([H])[H])C5(O[H])C([H])(O[H])C([H])([H])C4(C([H])([H])[H])OC4([H])C23[H])C([H])([H])C1([H])C([H])([H])[H]

$$$$
92:0:1
     RDKit          3D

 69 75  0  0  1  0  0  0  0  0999 V2000
    1.9098   -8.5983    8.1988 C   0  0  0  0  0  0  0  0  0  0  0  0
    2.0513   -9.4572    7.1671 C   0  0  0  0  0  0  0  0  0  0  0  0
    1.4274   -9.2735    5.8019 C   0  0  0  0  0  0  0  0  0  0  0  0
    2.4542   -9.2123    4.8155 O   0  0  0  0  0  0  0  0  0  0  0  0
    2.0441   -8.8235    3.5030 C   0  0  1  0  0  0  0  0  0  0  0  0
    0.9533   -9.7049    2.8721 C   0  0  0  0  0  0  0  0  0  0  0  0
   -0.1614   -9.0354    2.5936 C   0  0  0  0  0  0  0  0  0  0  0  0
   -1.5008   -9.5861    2.1303 C   0  0  0  0  0  0  0  0  0  0  0  0
    0.0430   -7.6287    2.8909 C   0  0  0  0  0  0  0  0  0  0  0  0
   -0.7739   -6.6986    2.7646 O   0  0  0  0  0  0  0  0  0  0  0  0
    1.4202   -7.4557    3.4969 C   0  0  1  0  0  0  0  0  0  0  0  0
    2.0064   -6.2150    4.0164 C   0  0  0  0  0  0  0  0  0  0  0  0
    2.6155   -6.8529    2.7404 C   0  0  2  0  0  0  0  0  0  0  0  0
    2.3976   -6.0623    1.5306 O   0  0  0  0  0  0  0  0  0  0  0  0
    3.0934   -4.8333    1.2782 C   0  0  1  0  0  0  0  0  0  0  0  0
    2.5567   -4.3079    0.0756 O   0  0  0  0  0  0  0  0  0  0  0  0
    2.7865   -3.7786    2.4074 C   0  0  0  0  0  0  0  0  0  0  0  0
    3.5178   -2.4161    2.2880 C   0  0  1  0  0  0  0  0  0  0  0  0
    2.7947   -1.3451    3.1344 C   0  0  0  0  0  0  0  0  0  0  0  0
    5.0118   -2.4952    2.6863 C   0  0  1  0  0  0  0  0  0  0  0  0
    5.1494   -2.6648    4.0879 O   0  0  0  0  0  0  0  0  0  0  0  0
    5.7766   -3.6067    1.9639 C   0  0  2  0  0  0  0  0  0  0  0  0
    5.2041   -3.7959    0.6548 O   0  0  0  0  0  0  0  0  0  0  0  0
    4.6285   -5.0655    1.0569 C   0  0  2  0  0  0  0  0  0  0  0  0
    4.8536   -5.9571   -0.1656 C   0  0  0  0  0  0  0  0  0  0  0  0
    5.5613   -5.0784    2.3067 C   0  0  1  0  0  0  0  0  0  0  0  0
    6.8303   -5.8849    2.5516 C   0  0  2  0  0  0  0  0  0  0  0  0
    7.4679   -6.5848    1.4698 O   0  0  0  0  0  0  0  0  0  0  0  0
    6.9527   -7.3772    2.5708 C   0  0  1  0  0  0  0  0  0  0  0  0
    8.0161   -8.0003    3.4401 C   0  0  0  0  0  0  0  0  0  0  0  0
    5.8380   -8.3243    2.1801 C   0  0  0  0  0  0  0  0  0  0  0  0
    4.6531   -8.4627    3.1812 C   0  0  1  0  0  0  0  0  0  0  0  0
    4.8143   -7.6266    4.3113 O   0  0  0  0  0  0  0  0  0  0  0  0
    3.2109   -8.2951    2.6245 C   0  0  1  0  0  0  0  0  0  0  0  0
    3.1474   -8.8237    1.3061 O   0  0  0  0  0  0  0  0  0  0  0  0
    1.3406   -7.6972    8.1018 H   0  0  0  0  0  0  0  0  0  0  0  0
    2.3745   -8.8206    9.1452 H   0  0  0  0  0  0  0  0  0  0  0  0
    2.6339  -10.3486    7.2979 H   0  0  0  0  0  0  0  0  0  0  0  0
    0.7703  -10.1215    5.5969 H   0  0  0  0  0  0  0  0  0  0  0  0
    0.8001   -8.3829    5.8187 H   0  0  0  0  0  0  0  0  0  0  0  0
    1.0231  -10.7778    2.7564 H   0  0  0  0  0  0  0  0  0  0  0  0
   -2.2425   -9.5087    2.9122 H   0  0  0  0  0  0  0  0  0  0  0  0
   -1.4015  -10.6406    1.8353 H   0  0  0  0  0  0  0  0  0  0  0  0
   -1.8627   -9.0346    1.2869 H   0  0  0  0  0  0  0  0  0  0  0  0
    1.3503   -5.3440    3.9532 H   0  0  0  0  0  0  0  0  0  0  0  0
    2.5643   -6.2710    4.9485 H   0  0  0  0  0  0  0  0  0  0  0  0
    2.9568   -4.7670   -0.6493 H   0  0  0  0  0  0  0  0  0  0  0  0
    1.7100   -3.6176    2.4147 H   0  0  0  0  0  0  0  0  0  0  0  0
    3.0672   -4.1392    3.3919 H   0  0  0  0  0  0  0  0  0  0  0  0
    3.4614   -2.0784    1.2510 H   0  0  0  0  0  0  0  0  0  0  0  0
    2.7317   -1.6337    4.1858 H   0  0  0  0  0  0  0  0  0  0  0  0
    1.7787   -1.1860    2.7768 H   0  0  0  0  0  0  0  0  0  0  0  0
    3.3132   -0.3892    3.0941 H   0  0  0  0  0  0  0  0  0  0  0  0
    5.4676   -1.5334    2.4556 H   0  0  0  0  0  0  0  0  0  0  0  0
    4.7999   -3.5062    4.3250 H   0  0  0  0  0  0  0  0  0  0  0  0
    6.8463   -3.4115    1.9152 H   0  0  0  0  0  0  0  0  0  0  0  0
    4.2612   -6.8709   -0.1093 H   0  0  0  0  0  0  0  0  0  0  0  0
    5.9015   -6.2211   -0.2691 H   0  0  0  0  0  0  0  0  0  0  0  0
    4.6008   -5.4473   -1.0956 H   0  0  0  0  0  0  0  0  0  0  0  0
    4.9558   -5.1035    3.2124 H   0  0  0  0  0  0  0  0  0  0  0  0
    7.5409   -5.3865    3.1949 H   0  0  0  0  0  0  0  0  0  0  0  0
    7.5997   -8.2654    4.4158 H   0  0  0  0  0  0  0  0  0  0  0  0
    8.8218   -7.2824    3.5974 H   0  0  0  0  0  0  0  0  0  0  0  0
    8.4426   -8.8812    2.9610 H   0  0  0  0  0  0  0  0  0  0  0  0
    5.5090   -8.0518    1.1864 H   0  0  0  0  0  0  0  0  0  0  0  0
    6.2800   -9.3136    2.0491 H   0  0  0  0  0  0  0  0  0  0  0  0
    4.7343   -9.4738    3.5816 H   0  0  0  0  0  0  0  0  0  0  0  0
    4.1935   -7.9243    4.9581 H   0  0  0  0  0  0  0  0  0  0  0  0
    3.4432   -9.7195    1.3475 H   0  0  0  0  0  0  0  0  0  0  0  0
  1  2  2  0
  1 36  1  0
  1 37  1  0
  2  3  1  0
  2 38  1  0
  3  4  1  0
  3 39  1  0
  3 40  1  0
  5  4  1  1
  5 11  1  0
  5 34  1  0
  5  6  1  0
  6  7  2  0
  6 41  1  0
  7  8  1  0
  7  9  1  0
  8 42  1  0
  8 43  1  0
  8 44  1  0
  9 10  2  0
  9 11  1  0
 11 13  1  0
 11 12  1  1
 12 13  1  0
 12 45  1  0
 12 46  1  0
 13 34  1  0
 13 14  1  6
 14 15  1  0
 15 24  1  0
 15 16  1  6
 15 17  1  0
 16 47  1  0
 17 18  1  0
 17 48  1  0
 17 49  1  0
 18 19  1  0
 18 20  1  0
 18 50  1  6
 19 51  1  0
 19 52  1  0
 19 53  1  0
 20 21  1  0
 20 22  1  0
 20 54  1  6
 21 55  1  0
 22 26  1  0
 22 23  1  0
 22 56  1  6
 23 24  1  0
 24 25  1  6
 24 26  1  0
 25 57  1  0
 25 58  1  0
 25 59  1  0
 26 27  1  0
 26 60  1  1
 27 29  1  0
 27 28  1  0
 27 61  1  1
 28 29  1  0
 29 30  1  1
 29 31  1  0
 30 62  1  0
 30 63  1  0
 30 64  1  0
 31 32  1  0
 31 65  1  0
 31 66  1  0
 32 33  1  0
 32 34  1  0
 32 67  1  1
 33 68  1  0
 34 35  1  6
 35 69  1  0
M  END
>  <i_m_ct_stereo_status>  (284) 
1

>  <s_m_source_file>  (284) 
/var/tmp/pbs.5076255.sched01/tmp4tnmxshi/11480k6dy83.sdf

>  <i_m_source_file_index>  (284) 
14

>  <i_lp_mmshare_version>  (284) 
48012

>  <i_f3d_flags>  (284) 
0

>  <s_epik_input>  (284) 
W0NIMl09W0NIXVtDSDJdT1tDQF0xKFtDSF09QyhbQ0gzXSlDMj1PKVtDQEBdKFtPSF0pKFtDQEBdMyhbQ0BdMTI0KVtDSDJdNClbQ0BIXShbT0hdKVtDSDJdW0NAXTUoW0NIM10pW0NAQEhdKE81KVtDQEhdNltDQEBIXTdbQ0BIXShbT0hdKVtDQEhdKFtDSDNdKVtDSDJdW0NAQF0oTzMpKFtPSF0pW0NAXTYoTzcpW0NIM10=

>  <s_epik_cmdline>  (284) 
J2VwaWtfcHl0aG9uJywgJy1waHQnLCAnMi4wJywgJy1waCcsICc3LjAnLCAnLXRuJywgJzgnLCAnLW1hJywgJzIwMCcsICctaW1hZScsICc8aW5maWxlLm1hZT4nLCAnLW9tYWUnLCAnPG91dGZpbGUubWFlPic=

>  <r_lp_tautomer_probability>  (284) 
1

>  <r_epik_Ionization_Penalty>  (284) 
3.73922e-05

>  <r_epik_Ionization_Penalty_Charging>  (284) 
0

>  <r_epik_Ionization_Penalty_Neutral>  (284) 
3.73922e-05

>  <r_epik_State_Penalty>  (284) 
-0

>  <r_epik_Charging_Adjusted_Penalty>  (284) 
0

>  <i_epik_Tot_Q>  (284) 
0

>  <i_epik_Tot_abs_Q>  (284) 
0

>  <s_lp_Force_Field>  (284) 
OPLS3e

>  <r_lp_Energy>  (284) 
56.6438

>  <b_lp_Chiralities_Consistent>  (284) 
1

>  <s_lp_Variant>  (284) 
92:0-1

>  <s_i_glide_gridfile>  (284) 
pfpi4k_grid

>  <i_i_glide_lignum>  (284) 
14

>  <i_i_glide_rotatable_bonds>  (284) 
7

>  <r_i_docking_score>  (284) 
-3.35517

>  <r_i_glide_ligand_efficiency>  (284) 
-0.0958619

>  <r_i_glide_ligand_efficiency_sa>  (284) 
-0.313571

>  <r_i_glide_ligand_efficiency_ln>  (284) 
-0.736533

>  <r_i_glide_gscore>  (284) 
-3.35517

>  <r_i_glide_lipo>  (284) 
-0.49147

>  <r_i_glide_hbond>  (284) 
-0.16

>  <r_i_glide_metal>  (284) 
-0

>  <r_i_glide_rewards>  (284) 
-0.564481

>  <r_i_glide_evdw>  (284) 
-24.4623

>  <r_i_glide_ecoul>  (284) 
-7.45636

>  <r_i_glide_erotb>  (284) 
0.253723

>  <r_i_glide_esite>  (284) 
-0.0513688

>  <r_i_glide_emodel>  (284) 
-42.7593

>  <r_i_glide_energy>  (284) 
-31.9187

>  <r_i_glide_einternal>  (284) 
1.74642

>  <r_i_glide_intrahb_reward>  (284) 
-0.5

>  <i_i_glide_confnum>  (284) 
2

>  <i_i_glide_posenum>  (284) 
35

>  <r_i_glide_eff_state_penalty>  (284) 
0

>  <ligand_id>  (284) 
92

>  <original_smiles>  (284) 
C=CCOC12C=C(C)C(=O)C13CC31OC3(O)CC(C)C(O)C4OC3(C)C4C3OC3(C)CC(O)C21O

>  <smiles>  (284) 
[H]OC1([H])C2([H])OC3(C([H])([H])[H])C(O[H])(OC45C([H])([H])C46C(=O)C(C([H])([H])[H])=C([H])C6(OC([H])([H])C([H])=C([H])[H])C5(O[H])C([H])(O[H])C([H])([H])C4(C([H])([H])[H])OC4([H])C23[H])C([H])([H])C1([H])C([H])([H])[H]

$$$$
92:0:2
     RDKit          3D

 69 75  0  0  1  0  0  0  0  0999 V2000
    1.7710   -8.5036    8.2484 C   0  0  0  0  0  0  0  0  0  0  0  0
    1.8945   -9.3136    7.1793 C   0  0  0  0  0  0  0  0  0  0  0  0
    1.3265   -9.0375    5.8095 C   0  0  0  0  0  0  0  0  0  0  0  0
    2.3816   -9.0237    4.8518 O   0  0  0  0  0  0  0  0  0  0  0  0
    2.0267   -8.6650    3.5226 C   0  0  1  0  0  0  0  0  0  0  0  0
    0.9915   -9.6019    2.8878 C   0  0  0  0  0  0  0  0  0  0  0  0
   -0.1442   -8.9582    2.5485 C   0  0  0  0  0  0  0  0  0  0  0  0
   -1.4649   -9.5442    2.1002 C   0  0  0  0  0  0  0  0  0  0  0  0
    0.0329   -7.5406    2.7864 C   0  0  0  0  0  0  0  0  0  0  0  0
   -0.7914   -6.6504    2.5626 O   0  0  0  0  0  0  0  0  0  0  0  0
    1.3727   -7.3173    3.4151 C   0  0  1  0  0  0  0  0  0  0  0  0
    1.9324   -6.0229    3.8732 C   0  0  0  0  0  0  0  0  0  0  0  0
    2.5730   -6.7236    2.6610 C   0  0  2  0  0  0  0  0  0  0  0  0
    2.3924   -6.0210    1.4062 O   0  0  0  0  0  0  0  0  0  0  0  0
    3.0653   -4.7943    1.0872 C   0  0  1  0  0  0  0  0  0  0  0  0
    2.5707   -4.3512   -0.1583 O   0  0  0  0  0  0  0  0  0  0  0  0
    2.7100   -3.6810    2.1418 C   0  0  0  0  0  0  0  0  0  0  0  0
    3.4159   -2.3063    1.9590 C   0  0  1  0  0  0  0  0  0  0  0  0
    2.6479   -1.2059    2.7235 C   0  0  0  0  0  0  0  0  0  0  0  0
    4.8969   -2.3314    2.4101 C   0  0  1  0  0  0  0  0  0  0  0  0
    4.9931   -2.4540    3.8152 O   0  0  0  0  0  0  0  0  0  0  0  0
    5.7101   -3.4707    1.7826 C   0  0  2  0  0  0  0  0  0  0  0  0
    5.1737   -3.7472    0.4650 O   0  0  0  0  0  0  0  0  0  0  0  0
    4.6060   -5.0085    0.9322 C   0  0  2  0  0  0  0  0  0  0  0  0
    4.8898   -5.9634   -0.2202 C   0  0  0  0  0  0  0  0  0  0  0  0
    5.4969   -4.9177    2.2053 C   0  0  1  0  0  0  0  0  0  0  0  0
    6.7844   -5.6876    2.5376 C   0  0  2  0  0  0  0  0  0  0  0  0
    7.4674   -6.4404    1.5324 O   0  0  0  0  0  0  0  0  0  0  0  0
    6.9364   -7.1792    2.6440 C   0  0  1  0  0  0  0  0  0  0  0  0
    7.9781   -7.7243    3.5958 C   0  0  0  0  0  0  0  0  0  0  0  0
    5.8475   -8.1711    2.2865 C   0  0  0  0  0  0  0  0  0  0  0  0
    4.6328   -8.2562    3.2659 C   0  0  1  0  0  0  0  0  0  0  0  0
    4.7817   -7.3555    4.3498 O   0  0  0  0  0  0  0  0  0  0  0  0
    3.2017   -8.1589    2.6521 C   0  0  1  0  0  0  0  0  0  0  0  0
    3.1990   -8.7627    1.3650 O   0  0  0  0  0  0  0  0  0  0  0  0
    1.2517   -7.5634    8.1873 H   0  0  0  0  0  0  0  0  0  0  0  0
    2.1966   -8.7880    9.1951 H   0  0  0  0  0  0  0  0  0  0  0  0
    2.4353  -10.2448    7.2824 H   0  0  0  0  0  0  0  0  0  0  0  0
    0.6221   -9.8355    5.5732 H   0  0  0  0  0  0  0  0  0  0  0  0
    0.7597   -8.1022    5.8297 H   0  0  0  0  0  0  0  0  0  0  0  0
    1.0453  -10.6850    2.8412 H   0  0  0  0  0  0  0  0  0  0  0  0
   -2.2443   -9.4632    2.8601 H   0  0  0  0  0  0  0  0  0  0  0  0
   -1.3383  -10.6106    1.8388 H   0  0  0  0  0  0  0  0  0  0  0  0
   -1.7842   -9.0227    1.2150 H   0  0  0  0  0  0  0  0  0  0  0  0
    1.2488   -5.1714    3.7375 H   0  0  0  0  0  0  0  0  0  0  0  0
    2.4517   -6.0243    4.8337 H   0  0  0  0  0  0  0  0  0  0  0  0
    2.9710   -4.8490   -0.8632 H   0  0  0  0  0  0  0  0  0  0  0  0
    1.6345   -3.5339    2.1123 H   0  0  0  0  0  0  0  0  0  0  0  0
    2.9702   -3.9677    3.1587 H   0  0  0  0  0  0  0  0  0  0  0  0
    3.3899   -2.0319    0.9048 H   0  0  0  0  0  0  0  0  0  0  0  0
    2.5463   -1.4332    3.7865 H   0  0  0  0  0  0  0  0  0  0  0  0
    1.6463   -1.0912    2.3191 H   0  0  0  0  0  0  0  0  0  0  0  0
    3.1451   -0.2398    2.6428 H   0  0  0  0  0  0  0  0  0  0  0  0
    5.3464   -1.3705    2.1435 H   0  0  0  0  0  0  0  0  0  0  0  0
    4.5809   -1.6961    4.2096 H   0  0  0  0  0  0  0  0  0  0  0  0
    6.7748   -3.2572    1.7690 H   0  0  0  0  0  0  0  0  0  0  0  0
    4.3214   -6.8797   -0.1181 H   0  0  0  0  0  0  0  0  0  0  0  0
    5.9472   -6.2035   -0.2823 H   0  0  0  0  0  0  0  0  0  0  0  0
    4.6308   -5.5110   -1.1742 H   0  0  0  0  0  0  0  0  0  0  0  0
    4.8769   -4.8719    3.0900 H   0  0  0  0  0  0  0  0  0  0  0  0
    7.4627   -5.1242    3.1587 H   0  0  0  0  0  0  0  0  0  0  0  0
    7.5303   -7.9366    4.5709 H   0  0  0  0  0  0  0  0  0  0  0  0
    8.7614   -6.9788    3.7374 H   0  0  0  0  0  0  0  0  0  0  0  0
    8.4368   -8.6203    3.1809 H   0  0  0  0  0  0  0  0  0  0  0  0
    5.5554   -7.9595    1.2678 H   0  0  0  0  0  0  0  0  0  0  0  0
    6.3120   -9.1547    2.2322 H   0  0  0  0  0  0  0  0  0  0  0  0
    4.7185   -9.2416    3.7213 H   0  0  0  0  0  0  0  0  0  0  0  0
    4.7080   -6.4670    4.0232 H   0  0  0  0  0  0  0  0  0  0  0  0
    3.4892   -9.6606    1.4630 H   0  0  0  0  0  0  0  0  0  0  0  0
  1  2  2  0
  1 36  1  0
  1 37  1  0
  2  3  1  0
  2 38  1  0
  3  4  1  0
  3 39  1  0
  3 40  1  0
  5  4  1  1
  5 11  1  0
  5 34  1  0
  5  6  1  0
  6  7  2  0
  6 41  1  0
  7  8  1  0
  7  9  1  0
  8 42  1  0
  8 43  1  0
  8 44  1  0
  9 10  2  0
  9 11  1  0
 11 13  1  0
 11 12  1  1
 12 13  1  0
 12 45  1  0
 12 46  1  0
 13 34  1  0
 13 14  1  6
 14 15  1  0
 15 24  1  0
 15 16  1  6
 15 17  1  0
 16 47  1  0
 17 18  1  0
 17 48  1  0
 17 49  1  0
 18 19  1  0
 18 20  1  0
 18 50  1  6
 19 51  1  0
 19 52  1  0
 19 53  1  0
 20 21  1  0
 20 22  1  0
 20 54  1  6
 21 55  1  0
 22 26  1  0
 22 23  1  0
 22 56  1  6
 23 24  1  0
 24 25  1  6
 24 26  1  0
 25 57  1  0
 25 58  1  0
 25 59  1  0
 26 27  1  0
 26 60  1  1
 27 29  1  0
 27 28  1  0
 27 61  1  1
 28 29  1  0
 29 30  1  1
 29 31  1  0
 30 62  1  0
 30 63  1  0
 30 64  1  0
 31 32  1  0
 31 65  1  0
 31 66  1  0
 32 33  1  0
 32 34  1  0
 32 67  1  1
 33 68  1  0
 34 35  1  6
 35 69  1  0
M  END
>  <i_m_ct_stereo_status>  (285) 
1

>  <s_m_source_file>  (285) 
/var/tmp/pbs.5076255.sched01/tmp4tnmxshi/11480k6dy83.sdf

>  <i_m_source_file_index>  (285) 
14

>  <i_lp_mmshare_version>  (285) 
48012

>  <i_f3d_flags>  (285) 
0

>  <s_epik_input>  (285) 
W0NIMl09W0NIXVtDSDJdT1tDQF0xKFtDSF09QyhbQ0gzXSlDMj1PKVtDQEBdKFtPSF0pKFtDQEBdMyhbQ0BdMTI0KVtDSDJdNClbQ0BIXShbT0hdKVtDSDJdW0NAXTUoW0NIM10pW0NAQEhdKE81KVtDQEhdNltDQEBIXTdbQ0BIXShbT0hdKVtDQEhdKFtDSDNdKVtDSDJdW0NAQF0oTzMpKFtPSF0pW0NAXTYoTzcpW0NIM10=

>  <s_epik_cmdline>  (285) 
J2VwaWtfcHl0aG9uJywgJy1waHQnLCAnMi4wJywgJy1waCcsICc3LjAnLCAnLXRuJywgJzgnLCAnLW1hJywgJzIwMCcsICctaW1hZScsICc8aW5maWxlLm1hZT4nLCAnLW9tYWUnLCAnPG91dGZpbGUubWFlPic=

>  <r_lp_tautomer_probability>  (285) 
1

>  <r_epik_Ionization_Penalty>  (285) 
3.73922e-05

>  <r_epik_Ionization_Penalty_Charging>  (285) 
0

>  <r_epik_Ionization_Penalty_Neutral>  (285) 
3.73922e-05

>  <r_epik_State_Penalty>  (285) 
-0

>  <r_epik_Charging_Adjusted_Penalty>  (285) 
0

>  <i_epik_Tot_Q>  (285) 
0

>  <i_epik_Tot_abs_Q>  (285) 
0

>  <s_lp_Force_Field>  (285) 
OPLS3e

>  <r_lp_Energy>  (285) 
56.6438

>  <b_lp_Chiralities_Consistent>  (285) 
1

>  <s_lp_Variant>  (285) 
92:0-1

>  <s_i_glide_gridfile>  (285) 
pfpi4k_grid

>  <i_i_glide_lignum>  (285) 
14

>  <i_i_glide_rotatable_bonds>  (285) 
7

>  <r_i_docking_score>  (285) 
-2.96765

>  <r_i_glide_ligand_efficiency>  (285) 
-0.0847899

>  <r_i_glide_ligand_efficiency_sa>  (285) 
-0.277353

>  <r_i_glide_ligand_efficiency_ln>  (285) 
-0.651464

>  <r_i_glide_gscore>  (285) 
-2.96765

>  <r_i_glide_lipo>  (285) 
-0.470454

>  <r_i_glide_hbond>  (285) 
-0.16

>  <r_i_glide_metal>  (285) 
-0

>  <r_i_glide_rewards>  (285) 
-0.0644812

>  <r_i_glide_evdw>  (285) 
-23.7195

>  <r_i_glide_ecoul>  (285) 
-8.53728

>  <r_i_glide_erotb>  (285) 
0.253723

>  <r_i_glide_esite>  (285) 
-0.0598675

>  <r_i_glide_emodel>  (285) 
-37.1724

>  <r_i_glide_energy>  (285) 
-32.2568

>  <r_i_glide_einternal>  (285) 
1.63698

>  <r_i_glide_intrahb_reward>  (285) 
-0

>  <i_i_glide_confnum>  (285) 
4

>  <i_i_glide_posenum>  (285) 
8

>  <r_i_glide_eff_state_penalty>  (285) 
0

>  <ligand_id>  (285) 
92

>  <original_smiles>  (285) 
C=CCOC12C=C(C)C(=O)C13CC31OC3(O)CC(C)C(O)C4OC3(C)C4C3OC3(C)CC(O)C21O

>  <smiles>  (285) 
[H]OC1([H])C2([H])OC3(C([H])([H])[H])C(O[H])(OC45C([H])([H])C46C(=O)C(C([H])([H])[H])=C([H])C6(OC([H])([H])C([H])=C([H])[H])C5(O[H])C([H])(O[H])C([H])([H])C4(C([H])([H])[H])OC4([H])C23[H])C([H])([H])C1([H])C([H])([H])[H]

$$$$
93:0:0
     RDKit          3D

 27 32  0  0  1  0  0  0  0  0999 V2000
    2.2231   -4.6337   -0.3051 O   0  0  0  0  0  0  0  0  0  0  0  0
    2.8898   -3.3838   -0.3458 C   0  0  2  0  0  0  0  0  0  0  0  0
    3.2067   -3.0554   -1.9427 C   0  0  2  0  0  0  0  0  0  0  0  0
    4.5647   -3.1864   -2.9312 C   0  0  1  0  0  0  0  0  0  0  0  0
    4.0595   -1.8602   -3.4755 C   0  0  0  0  0  0  0  0  0  0  0  0
    3.9183   -1.7802   -1.9625 C   0  0  2  0  0  0  0  0  0  0  0  0
    5.1444   -2.3151   -1.2781 C   0  0  2  0  0  0  0  0  0  0  0  0
    6.0064   -2.9424   -2.1458 C   0  0  1  0  0  0  0  0  0  0  0  0
    6.5128   -3.3360   -0.5691 C   0  0  2  0  0  0  0  0  0  0  0  0
    5.6890   -3.2234    0.8522 C   0  0  2  0  0  0  0  0  0  0  0  0
    4.0151   -3.3499    0.8615 C   0  0  1  0  0  0  0  0  0  0  0  0
    4.9297   -4.3654    0.5190 C   0  0  1  0  0  0  0  0  0  0  0  0
    5.3496   -4.0163   -0.8132 C   0  0  1  0  0  0  0  0  0  0  0  0
    2.6179   -5.2056   -0.9617 H   0  0  0  0  0  0  0  0  0  0  0  0
    2.1458   -2.6652   -0.0100 H   0  0  0  0  0  0  0  0  0  0  0  0
    2.2752   -3.0460   -2.5180 H   0  0  0  0  0  0  0  0  0  0  0  0
    4.5355   -4.0065   -3.6572 H   0  0  0  0  0  0  0  0  0  0  0  0
    4.8414   -1.2065   -3.8770 H   0  0  0  0  0  0  0  0  0  0  0  0
    3.1358   -1.8691   -4.0552 H   0  0  0  0  0  0  0  0  0  0  0  0
    3.3841   -0.9379   -1.5188 H   0  0  0  0  0  0  0  0  0  0  0  0
    5.5761   -1.4304   -0.7647 H   0  0  0  0  0  0  0  0  0  0  0  0
    6.6862   -2.2549   -2.6417 H   0  0  0  0  0  0  0  0  0  0  0  0
    7.3551   -4.0430   -0.5443 H   0  0  0  0  0  0  0  0  0  0  0  0
    6.2364   -3.2005    1.8069 H   0  0  0  0  0  0  0  0  0  0  0  0
    3.5583   -3.4273    1.8485 H   0  0  0  0  0  0  0  0  0  0  0  0
    5.1253   -5.3159    1.0034 H   0  0  0  0  0  0  0  0  0  0  0  0
    5.4272   -4.9125   -1.4761 H   0  0  0  0  0  0  0  0  0  0  0  0
  1  2  1  0
  1 14  1  0
  2 11  1  0
  2  3  1  0
  2 15  1  1
  3  6  1  0
  3  4  1  0
  3 16  1  6
  4  8  1  0
  4  5  1  0
  4 17  1  6
  5  6  1  0
  5 18  1  0
  5 19  1  0
  6  7  1  0
  6 20  1  6
  7 13  1  0
  7  8  1  0
  7 21  1  1
  8  9  1  0
  8 22  1  6
  9 13  1  0
  9 10  1  0
  9 23  1  1
 10 12  1  0
 10 11  1  0
 10 24  1  1
 11 12  1  0
 11 25  1  1
 12 13  1  0
 12 26  1  1
 13 27  1  6
M  END
>  <i_m_ct_stereo_status>  (286) 
1

>  <s_m_source_file>  (286) 
/var/tmp/pbs.5076255.sched01/tmp4tnmxshi/11480k6dy83.sdf

>  <i_m_source_file_index>  (286) 
15

>  <i_lp_mmshare_version>  (286) 
48012

>  <i_f3d_flags>  (286) 
2

>  <s_epik_input>  (286) 
W09IXVtDQEhdMVtDQEBIXShbQ0BIXTIzKVtDQEBIXTJbQ0BIXTRbQ0BASF0zW0NAQEhdKFtDQEhdNVtDSDJdNilbQ0BIXTRbQ0BIXTZbQ0BASF0xNQ==

>  <s_epik_cmdline>  (286) 
J2VwaWtfcHl0aG9uJywgJy1waHQnLCAnMi4wJywgJy1waCcsICc3LjAnLCAnLXRuJywgJzgnLCAnLW1hJywgJzIwMCcsICctaW1hZScsICc8aW5maWxlLm1hZT4nLCAnLW9tYWUnLCAnPG91dGZpbGUubWFlPic=

>  <r_lp_tautomer_probability>  (286) 
1

>  <r_epik_Ionization_Penalty>  (286) 
1.9822e-06

>  <r_epik_Ionization_Penalty_Charging>  (286) 
0

>  <r_epik_Ionization_Penalty_Neutral>  (286) 
1.9822e-06

>  <r_epik_State_Penalty>  (286) 
-0

>  <r_epik_Charging_Adjusted_Penalty>  (286) 
0

>  <i_epik_Tot_Q>  (286) 
0

>  <i_epik_Tot_abs_Q>  (286) 
0

>  <s_lp_Force_Field>  (286) 
OPLS3e

>  <r_lp_Energy>  (286) 
296.2

>  <b_lp_Chiralities_Consistent>  (286) 
0

>  <s_lp_Variant>  (286) 
93:0-1

>  <s_i_glide_gridfile>  (286) 
pfpi4k_grid

>  <i_i_glide_lignum>  (286) 
15

>  <i_i_glide_rotatable_bonds>  (286) 
1

>  <r_i_docking_score>  (286) 
-4.71708

>  <r_i_glide_ligand_efficiency>  (286) 
-0.362852

>  <r_i_glide_ligand_efficiency_sa>  (286) 
-0.853187

>  <r_i_glide_ligand_efficiency_ln>  (286) 
-1.32318

>  <r_i_glide_gscore>  (286) 
-4.71708

>  <r_i_glide_lipo>  (286) 
-0.67881

>  <r_i_glide_hbond>  (286) 
-0.32

>  <r_i_glide_metal>  (286) 
-0

>  <r_i_glide_rewards>  (286) 
-2.2211

>  <r_i_glide_evdw>  (286) 
-18.5013

>  <r_i_glide_ecoul>  (286) 
-3.81402

>  <r_i_glide_erotb>  (286) 
0

>  <r_i_glide_esite>  (286) 
0

>  <r_i_glide_emodel>  (286) 
-29.1808

>  <r_i_glide_energy>  (286) 
-22.3153

>  <r_i_glide_einternal>  (286) 
0.544249

>  <r_i_glide_intrahb_reward>  (286) 
-0

>  <i_i_glide_confnum>  (286) 
2

>  <i_i_glide_posenum>  (286) 
2

>  <r_i_glide_eff_state_penalty>  (286) 
0

>  <ligand_id>  (286) 
93

>  <original_smiles>  (286) 
OC1C2C3CC2C2C3C3C4C1C4C23

>  <smiles>  (286) 
[H]OC1([H])C2([H])C3([H])C([H])([H])C2([H])C2([H])C3([H])C3([H])C4([H])C1([H])C4([H])C23[H]

$$$$
93:0:1
     RDKit          3D

 27 32  0  0  1  0  0  0  0  0999 V2000
    8.1316   -2.2983   -1.0863 O   0  0  0  0  0  0  0  0  0  0  0  0
    6.9362   -3.0587   -0.8784 C   0  0  2  0  0  0  0  0  0  0  0  0
    6.0572   -2.9862   -2.2926 C   0  0  2  0  0  0  0  0  0  0  0  0
    4.7095   -2.1157   -2.8212 C   0  0  1  0  0  0  0  0  0  0  0  0
    4.3262   -3.4443   -3.4414 C   0  0  0  0  0  0  0  0  0  0  0  0
    4.8388   -3.7519   -2.0449 C   0  0  2  0  0  0  0  0  0  0  0  0
    4.2857   -2.7911   -1.0461 C   0  0  2  0  0  0  0  0  0  0  0  0
    3.6332   -1.7365   -1.6251 C   0  0  1  0  0  0  0  0  0  0  0  0
    3.8639   -1.3309    0.0085 C   0  0  2  0  0  0  0  0  0  0  0  0
    4.8898   -1.9966    1.1213 C   0  0  2  0  0  0  0  0  0  0  0  0
    6.3439   -2.6850    0.6030 C   0  0  2  0  0  0  0  0  0  0  0  0
    5.9808   -1.3216    0.5108 C   0  0  1  0  0  0  0  0  0  0  0  0
    5.0843   -1.2635   -0.6090 C   0  0  1  0  0  0  0  0  0  0  0  0
    8.6852   -2.7437   -1.7105 H   0  0  0  0  0  0  0  0  0  0  0  0
    7.2935   -4.0845   -0.7426 H   0  0  0  0  0  0  0  0  0  0  0  0
    6.6334   -3.3753   -3.1320 H   0  0  0  0  0  0  0  0  0  0  0  0
    4.9157   -1.3307   -3.5543 H   0  0  0  0  0  0  0  0  0  0  0  0
    3.2496   -3.5961   -3.5482 H   0  0  0  0  0  0  0  0  0  0  0  0
    4.9279   -3.8085   -4.2719 H   0  0  0  0  0  0  0  0  0  0  0  0
    4.9980   -4.7886   -1.7552 H   0  0  0  0  0  0  0  0  0  0  0  0
    3.6393   -3.4162   -0.3848 H   0  0  0  0  0  0  0  0  0  0  0  0
    2.5945   -1.9699   -1.8618 H   0  0  0  0  0  0  0  0  0  0  0  0
    3.5206   -0.3173    0.2630 H   0  0  0  0  0  0  0  0  0  0  0  0
    4.7018   -1.8586    2.1892 H   0  0  0  0  0  0  0  0  0  0  0  0
    7.0290   -2.9432    1.4103 H   0  0  0  0  0  0  0  0  0  0  0  0
    6.4088   -0.4576    1.0048 H   0  0  0  0  0  0  0  0  0  0  0  0
    5.2417   -0.3513   -1.2418 H   0  0  0  0  0  0  0  0  0  0  0  0
  1  2  1  0
  1 14  1  0
  2 11  1  0
  2  3  1  0
  2 15  1  1
  3  6  1  0
  3  4  1  0
  3 16  1  6
  4  8  1  0
  4  5  1  0
  4 17  1  6
  5  6  1  0
  5 18  1  0
  5 19  1  0
  6  7  1  0
  6 20  1  1
  7 13  1  0
  7  8  1  0
  7 21  1  1
  8  9  1  0
  8 22  1  6
  9 13  1  0
  9 10  1  0
  9 23  1  1
 10 12  1  0
 10 11  1  0
 10 24  1  1
 11 12  1  0
 11 25  1  1
 12 13  1  0
 12 26  1  1
 13 27  1  6
M  END
>  <i_m_ct_stereo_status>  (287) 
1

>  <s_m_source_file>  (287) 
/var/tmp/pbs.5076255.sched01/tmp4tnmxshi/11480k6dy83.sdf

>  <i_m_source_file_index>  (287) 
15

>  <i_lp_mmshare_version>  (287) 
48012

>  <i_f3d_flags>  (287) 
2

>  <s_epik_input>  (287) 
W09IXVtDQEhdMVtDQEBIXShbQ0BIXTIzKVtDQEBIXTJbQ0BIXTRbQ0BASF0zW0NAQEhdKFtDQEhdNVtDSDJdNilbQ0BIXTRbQ0BIXTZbQ0BASF0xNQ==

>  <s_epik_cmdline>  (287) 
J2VwaWtfcHl0aG9uJywgJy1waHQnLCAnMi4wJywgJy1waCcsICc3LjAnLCAnLXRuJywgJzgnLCAnLW1hJywgJzIwMCcsICctaW1hZScsICc8aW5maWxlLm1hZT4nLCAnLW9tYWUnLCAnPG91dGZpbGUubWFlPic=

>  <r_lp_tautomer_probability>  (287) 
1

>  <r_epik_Ionization_Penalty>  (287) 
1.9822e-06

>  <r_epik_Ionization_Penalty_Charging>  (287) 
0

>  <r_epik_Ionization_Penalty_Neutral>  (287) 
1.9822e-06

>  <r_epik_State_Penalty>  (287) 
-0

>  <r_epik_Charging_Adjusted_Penalty>  (287) 
0

>  <i_epik_Tot_Q>  (287) 
0

>  <i_epik_Tot_abs_Q>  (287) 
0

>  <s_lp_Force_Field>  (287) 
OPLS3e

>  <r_lp_Energy>  (287) 
296.2

>  <b_lp_Chiralities_Consistent>  (287) 
0

>  <s_lp_Variant>  (287) 
93:0-1

>  <s_i_glide_gridfile>  (287) 
pfpi4k_grid

>  <i_i_glide_lignum>  (287) 
15

>  <i_i_glide_rotatable_bonds>  (287) 
1

>  <r_i_docking_score>  (287) 
-4.66497

>  <r_i_glide_ligand_efficiency>  (287) 
-0.358844

>  <r_i_glide_ligand_efficiency_sa>  (287) 
-0.843762

>  <r_i_glide_ligand_efficiency_ln>  (287) 
-1.30856

>  <r_i_glide_gscore>  (287) 
-4.66497

>  <r_i_glide_lipo>  (287) 
-0.656755

>  <r_i_glide_hbond>  (287) 
-0.160205

>  <r_i_glide_metal>  (287) 
-0

>  <r_i_glide_rewards>  (287) 
-2.2211

>  <r_i_glide_evdw>  (287) 
-19.5123

>  <r_i_glide_ecoul>  (287) 
-4.34196

>  <r_i_glide_erotb>  (287) 
0

>  <r_i_glide_esite>  (287) 
0

>  <r_i_glide_emodel>  (287) 
-30.708

>  <r_i_glide_energy>  (287) 
-23.8543

>  <r_i_glide_einternal>  (287) 
0.511564

>  <r_i_glide_intrahb_reward>  (287) 
-0

>  <i_i_glide_confnum>  (287) 
2

>  <i_i_glide_posenum>  (287) 
4

>  <r_i_glide_eff_state_penalty>  (287) 
0

>  <ligand_id>  (287) 
93

>  <original_smiles>  (287) 
OC1C2C3CC2C2C3C3C4C1C4C23

>  <smiles>  (287) 
[H]OC1([H])C2([H])C3([H])C([H])([H])C2([H])C2([H])C3([H])C3([H])C4([H])C1([H])C4([H])C23[H]

$$$$
93:0:2
     RDKit          3D

 27 32  0  0  1  0  0  0  0  0999 V2000
    5.9727   -4.9988    0.7807 O   0  0  0  0  0  0  0  0  0  0  0  0
    4.9436   -4.0480    0.9535 C   0  0  2  0  0  0  0  0  0  0  0  0
    3.8987   -4.2236   -0.3198 C   0  0  2  0  0  0  0  0  0  0  0  0
    3.6471   -3.4049   -1.7757 C   0  0  1  0  0  0  0  0  0  0  0  0
    2.1862   -3.6170   -1.4263 C   0  0  0  0  0  0  0  0  0  0  0  0
    2.8698   -3.2003   -0.1354 C   0  0  2  0  0  0  0  0  0  0  0  0
    3.7941   -2.0478   -0.3782 C   0  0  2  0  0  0  0  0  0  0  0  0
    3.9693   -1.7794   -1.7132 C   0  0  1  0  0  0  0  0  0  0  0  0
    5.1591   -0.9165   -0.8600 C   0  0  2  0  0  0  0  0  0  0  0  0
    5.7015   -1.1048    0.6881 C   0  0  2  0  0  0  0  0  0  0  0  0
    5.6417   -2.6276    1.4057 C   0  0  2  0  0  0  0  0  0  0  0  0
    6.4369   -2.2471    0.2964 C   0  0  1  0  0  0  0  0  0  0  0  0
    5.5138   -2.2345   -0.8108 C   0  0  1  0  0  0  0  0  0  0  0  0
    5.5766   -5.8514    0.6574 H   0  0  0  0  0  0  0  0  0  0  0  0
    4.4232   -4.3857    1.8489 H   0  0  0  0  0  0  0  0  0  0  0  0
    3.5029   -5.2424   -0.3443 H   0  0  0  0  0  0  0  0  0  0  0  0
    3.9727   -3.9187   -2.6844 H   0  0  0  0  0  0  0  0  0  0  0  0
    1.5242   -2.8730   -1.8820 H   0  0  0  0  0  0  0  0  0  0  0  0
    1.8000   -4.6365   -1.4566 H   0  0  0  0  0  0  0  0  0  0  0  0
    2.3179   -3.2426    0.8051 H   0  0  0  0  0  0  0  0  0  0  0  0
    3.3267   -1.2122    0.1818 H   0  0  0  0  0  0  0  0  0  0  0  0
    3.1797   -1.1385   -2.1072 H   0  0  0  0  0  0  0  0  0  0  0  0
    5.8318   -0.3768   -1.5262 H   0  0  0  0  0  0  0  0  0  0  0  0
    6.2273   -0.2857    1.1917 H   0  0  0  0  0  0  0  0  0  0  0  0
    6.1567   -2.7026    2.3658 H   0  0  0  0  0  0  0  0  0  0  0  0
    7.5142   -2.1992    0.2099 H   0  0  0  0  0  0  0  0  0  0  0  0
    5.9511   -2.6522   -1.7446 H   0  0  0  0  0  0  0  0  0  0  0  0
  1  2  1  0
  1 14  1  0
  2 11  1  0
  2  3  1  0
  2 15  1  1
  3  6  1  0
  3  4  1  0
  3 16  1  6
  4  8  1  0
  4  5  1  0
  4 17  1  6
  5  6  1  0
  5 18  1  0
  5 19  1  0
  6  7  1  0
  6 20  1  1
  7 13  1  0
  7  8  1  0
  7 21  1  1
  8  9  1  0
  8 22  1  6
  9 13  1  0
  9 10  1  0
  9 23  1  6
 10 12  1  0
 10 11  1  0
 10 24  1  1
 11 12  1  0
 11 25  1  1
 12 13  1  0
 12 26  1  6
 13 27  1  6
M  END
>  <i_m_ct_stereo_status>  (288) 
1

>  <s_m_source_file>  (288) 
/var/tmp/pbs.5076255.sched01/tmp4tnmxshi/11480k6dy83.sdf

>  <i_m_source_file_index>  (288) 
15

>  <i_lp_mmshare_version>  (288) 
48012

>  <i_f3d_flags>  (288) 
2

>  <s_epik_input>  (288) 
W09IXVtDQEhdMVtDQEBIXShbQ0BIXTIzKVtDQEBIXTJbQ0BIXTRbQ0BASF0zW0NAQEhdKFtDQEhdNVtDSDJdNilbQ0BIXTRbQ0BIXTZbQ0BASF0xNQ==

>  <s_epik_cmdline>  (288) 
J2VwaWtfcHl0aG9uJywgJy1waHQnLCAnMi4wJywgJy1waCcsICc3LjAnLCAnLXRuJywgJzgnLCAnLW1hJywgJzIwMCcsICctaW1hZScsICc8aW5maWxlLm1hZT4nLCAnLW9tYWUnLCAnPG91dGZpbGUubWFlPic=

>  <r_lp_tautomer_probability>  (288) 
1

>  <r_epik_Ionization_Penalty>  (288) 
1.9822e-06

>  <r_epik_Ionization_Penalty_Charging>  (288) 
0

>  <r_epik_Ionization_Penalty_Neutral>  (288) 
1.9822e-06

>  <r_epik_State_Penalty>  (288) 
-0

>  <r_epik_Charging_Adjusted_Penalty>  (288) 
0

>  <i_epik_Tot_Q>  (288) 
0

>  <i_epik_Tot_abs_Q>  (288) 
0

>  <s_lp_Force_Field>  (288) 
OPLS3e

>  <r_lp_Energy>  (288) 
296.2

>  <b_lp_Chiralities_Consistent>  (288) 
0

>  <s_lp_Variant>  (288) 
93:0-1

>  <s_i_glide_gridfile>  (288) 
pfpi4k_grid

>  <i_i_glide_lignum>  (288) 
15

>  <i_i_glide_rotatable_bonds>  (288) 
1

>  <r_i_docking_score>  (288) 
-3.29523

>  <r_i_glide_ligand_efficiency>  (288) 
-0.253479

>  <r_i_glide_ligand_efficiency_sa>  (288) 
-0.596015

>  <r_i_glide_ligand_efficiency_ln>  (288) 
-0.924342

>  <r_i_glide_gscore>  (288) 
-3.29523

>  <r_i_glide_lipo>  (288) 
-0.31237

>  <r_i_glide_hbond>  (288) 
0

>  <r_i_glide_metal>  (288) 
-0

>  <r_i_glide_rewards>  (288) 
-2.2211

>  <r_i_glide_evdw>  (288) 
-14.0515

>  <r_i_glide_ecoul>  (288) 
-0.394581

>  <r_i_glide_erotb>  (288) 
0

>  <r_i_glide_esite>  (288) 
0

>  <r_i_glide_emodel>  (288) 
-19.3467

>  <r_i_glide_energy>  (288) 
-14.4461

>  <r_i_glide_einternal>  (288) 
0.334529

>  <r_i_glide_intrahb_reward>  (288) 
-0

>  <i_i_glide_confnum>  (288) 
1

>  <i_i_glide_posenum>  (288) 
33

>  <r_i_glide_eff_state_penalty>  (288) 
0

>  <ligand_id>  (288) 
93

>  <original_smiles>  (288) 
OC1C2C3CC2C2C3C3C4C1C4C23

>  <smiles>  (288) 
[H]OC1([H])C2([H])C3([H])C([H])([H])C2([H])C2([H])C3([H])C3([H])C4([H])C1([H])C4([H])C23[H]

$$$$
94:0:0
     RDKit          3D

 36 39  0  0  1  0  0  0  0  0999 V2000
    2.6227   -3.2790   -3.8778 C   0  0  0  0  0  0  0  0  0  0  0  0
    2.4904   -2.8883   -2.5965 C   0  0  0  0  0  0  0  0  0  0  0  0
    3.5108   -2.0769   -1.8030 C   0  0  2  0  0  0  0  0  0  0  0  0
    5.0295   -2.1580   -2.3509 C   0  0  0  0  0  0  0  0  0  0  0  0
    6.1761   -2.6082   -1.3275 C   0  0  0  0  0  0  0  0  0  0  0  0
    7.3389   -2.2700   -1.5110 O   0  0  0  0  0  0  0  0  0  0  0  0
    5.7710   -3.4611   -0.0573 C   0  0  1  0  0  0  0  0  0  0  0  0
    5.4656   -2.8107    1.3923 C   0  0  1  0  0  0  0  0  0  0  0  0
    5.3981   -1.3057    1.2894 C   0  0  0  0  0  0  0  0  0  0  0  0
    4.3447   -1.0550    0.2138 C   0  0  0  0  0  0  0  0  0  0  0  0
    3.6582   -2.4388   -0.3114 C   0  0  1  0  0  0  0  0  0  0  0  0
    2.8255   -2.6630    0.9680 C   0  0  0  0  0  0  0  0  0  0  0  0
    3.9876   -3.1992    1.9441 C   0  0  1  0  0  0  0  0  0  0  0  0
    3.9025   -4.7191    1.9041 C   0  0  0  0  0  0  0  0  0  0  0  0
    3.9057   -5.0776    0.4167 C   0  0  0  0  0  0  0  0  0  0  0  0
    4.3955   -3.8668   -0.4425 C   0  0  2  0  0  0  0  0  0  0  0  0
    3.4927   -3.0342   -4.4721 H   0  0  0  0  0  0  0  0  0  0  0  0
    1.8427   -3.8500   -4.3614 H   0  0  0  0  0  0  0  0  0  0  0  0
    1.5813   -3.1535   -2.0735 H   0  0  0  0  0  0  0  0  0  0  0  0
    3.1288   -1.0587   -1.8955 H   0  0  0  0  0  0  0  0  0  0  0  0
    5.1142   -2.8634   -3.1757 H   0  0  0  0  0  0  0  0  0  0  0  0
    5.3017   -1.1854   -2.7536 H   0  0  0  0  0  0  0  0  0  0  0  0
    6.4133   -4.3360    0.0355 H   0  0  0  0  0  0  0  0  0  0  0  0
    6.2300   -3.1092    2.1095 H   0  0  0  0  0  0  0  0  0  0  0  0
    5.0887   -0.8666    2.2386 H   0  0  0  0  0  0  0  0  0  0  0  0
    6.3627   -0.8672    1.0268 H   0  0  0  0  0  0  0  0  0  0  0  0
    3.6073   -0.3236    0.5517 H   0  0  0  0  0  0  0  0  0  0  0  0
    4.8424   -0.4617   -0.5576 H   0  0  0  0  0  0  0  0  0  0  0  0
    2.3571   -1.7600    1.3699 H   0  0  0  0  0  0  0  0  0  0  0  0
    2.0105   -3.3744    0.8327 H   0  0  0  0  0  0  0  0  0  0  0  0
    3.8413   -2.8491    2.9708 H   0  0  0  0  0  0  0  0  0  0  0  0
    4.7560   -5.1644    2.4197 H   0  0  0  0  0  0  0  0  0  0  0  0
    2.9959   -5.0866    2.3931 H   0  0  0  0  0  0  0  0  0  0  0  0
    4.5449   -5.9436    0.2459 H   0  0  0  0  0  0  0  0  0  0  0  0
    2.9011   -5.3683    0.0972 H   0  0  0  0  0  0  0  0  0  0  0  0
    4.3530   -4.3078   -1.4455 H   0  0  0  0  0  0  0  0  0  0  0  0
  1  2  2  0
  1 17  1  0
  1 18  1  0
  2  3  1  0
  2 19  1  0
  3 11  1  0
  3  4  1  0
  3 20  1  1
  4  5  1  0
  4 21  1  0
  4 22  1  0
  5  6  2  0
  5  7  1  0
  7 16  1  0
  7  8  1  0
  7 23  1  1
  8 13  1  0
  8  9  1  0
  8 24  1  1
  9 10  1  0
  9 25  1  0
  9 26  1  0
 11 10  1  1
 10 27  1  0
 10 28  1  0
 11 16  1  0
 11 12  1  0
 12 13  1  0
 12 29  1  0
 12 30  1  0
 13 14  1  0
 13 31  1  1
 14 15  1  0
 14 32  1  0
 14 33  1  0
 15 16  1  0
 15 34  1  0
 15 35  1  0
 16 36  1  6
M  END
>  <i_m_ct_stereo_status>  (289) 
1

>  <s_m_source_file>  (289) 
/var/tmp/pbs.5076255.sched01/tmp4tnmxshi/11480k6dy83.sdf

>  <i_m_source_file_index>  (289) 
16

>  <i_lp_mmshare_version>  (289) 
48012

>  <i_f3d_flags>  (289) 
0

>  <s_epik_input>  (289) 
W0NIMl09W0NIXVtDQEBIXTFbQ0gyXUMoPU8pW0NASF0oW0NAQEhdMltDQF0xMzQpW0NAQEhdKFtDSDJdW0NIMl0zKVtDQEBIXShbQ0gyXTQpW0NIMl1bQ0gyXTI=

>  <s_epik_cmdline>  (289) 
J2VwaWtfcHl0aG9uJywgJy1waHQnLCAnMi4wJywgJy1waCcsICc3LjAnLCAnLXRuJywgJzgnLCAnLW1hJywgJzIwMCcsICctaW1hZScsICc8aW5maWxlLm1hZT4nLCAnLW9tYWUnLCAnPG91dGZpbGUubWFlPic=

>  <r_lp_tautomer_probability>  (289) 
1

>  <r_epik_Ionization_Penalty>  (289) 
6.80156e-14

>  <r_epik_Ionization_Penalty_Charging>  (289) 
0

>  <r_epik_Ionization_Penalty_Neutral>  (289) 
6.80156e-14

>  <r_epik_State_Penalty>  (289) 
-0

>  <r_epik_Charging_Adjusted_Penalty>  (289) 
0

>  <i_epik_Tot_Q>  (289) 
0

>  <i_epik_Tot_abs_Q>  (289) 
0

>  <s_lp_Force_Field>  (289) 
OPLS3e

>  <r_lp_Energy>  (289) 
156.716

>  <b_lp_Chiralities_Consistent>  (289) 
1

>  <s_lp_Variant>  (289) 
94:0-1

>  <s_i_glide_gridfile>  (289) 
pfpi4k_grid

>  <i_i_glide_lignum>  (289) 
16

>  <i_i_glide_rotatable_bonds>  (289) 
1

>  <r_i_docking_score>  (289) 
-4.03103

>  <r_i_glide_ligand_efficiency>  (289) 
-0.251939

>  <r_i_glide_ligand_efficiency_sa>  (289) 
-0.634847

>  <r_i_glide_ligand_efficiency_ln>  (289) 
-1.0685

>  <r_i_glide_gscore>  (289) 
-4.03103

>  <r_i_glide_lipo>  (289) 
-0.471996

>  <r_i_glide_hbond>  (289) 
-0.16

>  <r_i_glide_metal>  (289) 
-0

>  <r_i_glide_rewards>  (289) 
-1.93419

>  <r_i_glide_evdw>  (289) 
-22.2972

>  <r_i_glide_ecoul>  (289) 
-2.20334

>  <r_i_glide_erotb>  (289) 
0

>  <r_i_glide_esite>  (289) 
-0.0194764

>  <r_i_glide_emodel>  (289) 
-30.1026

>  <r_i_glide_energy>  (289) 
-24.5006

>  <r_i_glide_einternal>  (289) 
1.1447

>  <r_i_glide_intrahb_reward>  (289) 
-0

>  <i_i_glide_confnum>  (289) 
1

>  <i_i_glide_posenum>  (289) 
6

>  <r_i_glide_eff_state_penalty>  (289) 
0

>  <ligand_id>  (289) 
94

>  <original_smiles>  (289) 
C=CC1CC(=O)C2C3CCC14CC3CCC24

>  <smiles>  (289) 
[H]C([H])=C([H])C1([H])C([H])([H])C(=O)C2([H])C3([H])C([H])([H])C([H])([H])C14C([H])([H])C3([H])C([H])([H])C([H])([H])C24[H]

$$$$
94:0:1
     RDKit          3D

 36 39  0  0  1  0  0  0  0  0999 V2000
    4.2118    0.0949   -3.0285 C   0  0  0  0  0  0  0  0  0  0  0  0
    3.5641   -1.0619   -3.2033 C   0  0  0  0  0  0  0  0  0  0  0  0
    3.9257   -2.4027   -2.5781 C   0  0  2  0  0  0  0  0  0  0  0  0
    2.6078   -3.2130   -2.1187 C   0  0  0  0  0  0  0  0  0  0  0  0
    2.5609   -3.7702   -0.6138 C   0  0  0  0  0  0  0  0  0  0  0  0
    1.8598   -4.7399   -0.3228 O   0  0  0  0  0  0  0  0  0  0  0  0
    3.4318   -3.0449    0.4921 C   0  0  1  0  0  0  0  0  0  0  0  0
    4.9117   -3.5363    0.9423 C   0  0  1  0  0  0  0  0  0  0  0  0
    5.4087   -4.6114   -0.0012 C   0  0  0  0  0  0  0  0  0  0  0  0
    5.2931   -3.9678   -1.3839 C   0  0  0  0  0  0  0  0  0  0  0  0
    4.8195   -2.4175   -1.3158 C   0  0  1  0  0  0  0  0  0  0  0  0
    6.1564   -1.8930   -0.7605 C   0  0  0  0  0  0  0  0  0  0  0  0
    6.0265   -2.3667    0.7721 C   0  0  1  0  0  0  0  0  0  0  0  0
    5.4963   -1.1587    1.5373 C   0  0  0  0  0  0  0  0  0  0  0  0
    4.2641   -0.6945    0.7575 C   0  0  0  0  0  0  0  0  0  0  0  0
    3.7949   -1.8020   -0.2315 C   0  0  2  0  0  0  0  0  0  0  0  0
    5.0833    0.1433   -2.3936 H   0  0  0  0  0  0  0  0  0  0  0  0
    3.8762    0.9946   -3.5207 H   0  0  0  0  0  0  0  0  0  0  0  0
    2.6926   -1.0605   -3.8438 H   0  0  0  0  0  0  0  0  0  0  0  0
    4.4066   -2.9381   -3.3979 H   0  0  0  0  0  0  0  0  0  0  0  0
    1.7259   -2.5869   -2.2603 H   0  0  0  0  0  0  0  0  0  0  0  0
    2.4547   -4.0400   -2.8077 H   0  0  0  0  0  0  0  0  0  0  0  0
    2.8147   -2.8187    1.3604 H   0  0  0  0  0  0  0  0  0  0  0  0
    4.8939   -3.9060    1.9707 H   0  0  0  0  0  0  0  0  0  0  0  0
    6.4443   -4.8723    0.2219 H   0  0  0  0  0  0  0  0  0  0  0  0
    4.8128   -5.5228    0.0759 H   0  0  0  0  0  0  0  0  0  0  0  0
    6.2170   -4.0794   -1.9535 H   0  0  0  0  0  0  0  0  0  0  0  0
    4.6401   -4.6316   -1.9538 H   0  0  0  0  0  0  0  0  0  0  0  0
    7.0432   -2.3140   -1.2366 H   0  0  0  0  0  0  0  0  0  0  0  0
    6.2315   -0.8117   -0.8466 H   0  0  0  0  0  0  0  0  0  0  0  0
    6.9944   -2.6729    1.1782 H   0  0  0  0  0  0  0  0  0  0  0  0
    5.2314   -1.4369    2.5582 H   0  0  0  0  0  0  0  0  0  0  0  0
    6.2289   -0.3536    1.5905 H   0  0  0  0  0  0  0  0  0  0  0  0
    3.4610   -0.4325    1.4452 H   0  0  0  0  0  0  0  0  0  0  0  0
    4.4936    0.2129    0.1959 H   0  0  0  0  0  0  0  0  0  0  0  0
    2.9396   -1.2996   -0.6766 H   0  0  0  0  0  0  0  0  0  0  0  0
  1  2  2  0
  1 17  1  0
  1 18  1  0
  2  3  1  0
  2 19  1  0
  3 11  1  0
  3  4  1  0
  3 20  1  6
  4  5  1  0
  4 21  1  0
  4 22  1  0
  5  6  2  0
  5  7  1  0
  7 16  1  0
  7  8  1  0
  7 23  1  1
  8 13  1  0
  8  9  1  0
  8 24  1  1
  9 10  1  0
  9 25  1  0
  9 26  1  0
 11 10  1  1
 10 27  1  0
 10 28  1  0
 11 16  1  0
 11 12  1  0
 12 13  1  0
 12 29  1  0
 12 30  1  0
 13 14  1  0
 13 31  1  1
 14 15  1  0
 14 32  1  0
 14 33  1  0
 15 16  1  0
 15 34  1  0
 15 35  1  0
 16 36  1  6
M  END
>  <i_m_ct_stereo_status>  (290) 
1

>  <s_m_source_file>  (290) 
/var/tmp/pbs.5076255.sched01/tmp4tnmxshi/11480k6dy83.sdf

>  <i_m_source_file_index>  (290) 
16

>  <i_lp_mmshare_version>  (290) 
48012

>  <i_f3d_flags>  (290) 
0

>  <s_epik_input>  (290) 
W0NIMl09W0NIXVtDQEBIXTFbQ0gyXUMoPU8pW0NASF0oW0NAQEhdMltDQF0xMzQpW0NAQEhdKFtDSDJdW0NIMl0zKVtDQEBIXShbQ0gyXTQpW0NIMl1bQ0gyXTI=

>  <s_epik_cmdline>  (290) 
J2VwaWtfcHl0aG9uJywgJy1waHQnLCAnMi4wJywgJy1waCcsICc3LjAnLCAnLXRuJywgJzgnLCAnLW1hJywgJzIwMCcsICctaW1hZScsICc8aW5maWxlLm1hZT4nLCAnLW9tYWUnLCAnPG91dGZpbGUubWFlPic=

>  <r_lp_tautomer_probability>  (290) 
1

>  <r_epik_Ionization_Penalty>  (290) 
6.80156e-14

>  <r_epik_Ionization_Penalty_Charging>  (290) 
0

>  <r_epik_Ionization_Penalty_Neutral>  (290) 
6.80156e-14

>  <r_epik_State_Penalty>  (290) 
-0

>  <r_epik_Charging_Adjusted_Penalty>  (290) 
0

>  <i_epik_Tot_Q>  (290) 
0

>  <i_epik_Tot_abs_Q>  (290) 
0

>  <s_lp_Force_Field>  (290) 
OPLS3e

>  <r_lp_Energy>  (290) 
156.716

>  <b_lp_Chiralities_Consistent>  (290) 
1

>  <s_lp_Variant>  (290) 
94:0-1

>  <s_i_glide_gridfile>  (290) 
pfpi4k_grid

>  <i_i_glide_lignum>  (290) 
16

>  <i_i_glide_rotatable_bonds>  (290) 
1

>  <r_i_docking_score>  (290) 
-4.0253

>  <r_i_glide_ligand_efficiency>  (290) 
-0.251582

>  <r_i_glide_ligand_efficiency_sa>  (290) 
-0.633946

>  <r_i_glide_ligand_efficiency_ln>  (290) 
-1.06699

>  <r_i_glide_gscore>  (290) 
-4.0253

>  <r_i_glide_lipo>  (290) 
-0.654211

>  <r_i_glide_hbond>  (290) 
-0.0249711

>  <r_i_glide_metal>  (290) 
-0

>  <r_i_glide_rewards>  (290) 
-1.93419

>  <r_i_glide_evdw>  (290) 
-19.0755

>  <r_i_glide_ecoul>  (290) 
-2.76563

>  <r_i_glide_erotb>  (290) 
0

>  <r_i_glide_esite>  (290) 
-0.0433123

>  <r_i_glide_emodel>  (290) 
-27.8529

>  <r_i_glide_energy>  (290) 
-21.8411

>  <r_i_glide_einternal>  (290) 
0.347008

>  <r_i_glide_intrahb_reward>  (290) 
-0

>  <i_i_glide_confnum>  (290) 
1

>  <i_i_glide_posenum>  (290) 
40

>  <r_i_glide_eff_state_penalty>  (290) 
0

>  <ligand_id>  (290) 
94

>  <original_smiles>  (290) 
C=CC1CC(=O)C2C3CCC14CC3CCC24

>  <smiles>  (290) 
[H]C([H])=C([H])C1([H])C([H])([H])C(=O)C2([H])C3([H])C([H])([H])C([H])([H])C14C([H])([H])C3([H])C([H])([H])C([H])([H])C24[H]

$$$$
94:0:2
     RDKit          3D

 36 39  0  0  1  0  0  0  0  0999 V2000
    3.0382   -2.7551   -3.8067 C   0  0  0  0  0  0  0  0  0  0  0  0
    3.9372   -3.2017   -2.9156 C   0  0  0  0  0  0  0  0  0  0  0  0
    4.7006   -2.3417   -1.9220 C   0  0  2  0  0  0  0  0  0  0  0  0
    6.2795   -2.6879   -1.9021 C   0  0  0  0  0  0  0  0  0  0  0  0
    6.9507   -3.0751   -0.4948 C   0  0  0  0  0  0  0  0  0  0  0  0
    8.1521   -2.9058   -0.3090 O   0  0  0  0  0  0  0  0  0  0  0  0
    6.0254   -3.6546    0.6585 C   0  0  1  0  0  0  0  0  0  0  0  0
    5.3572   -2.7433    1.8211 C   0  0  1  0  0  0  0  0  0  0  0  0
    5.5605   -1.2775    1.5135 C   0  0  0  0  0  0  0  0  0  0  0  0
    4.9729   -1.1060    0.1158 C   0  0  0  0  0  0  0  0  0  0  0  0
    4.2919   -2.4808   -0.4432 C   0  0  1  0  0  0  0  0  0  0  0  0
    3.0590   -2.4047    0.4803 C   0  0  0  0  0  0  0  0  0  0  0  0
    3.7365   -2.8836    1.8616 C   0  0  1  0  0  0  0  0  0  0  0  0
    3.4401   -4.3708    1.9824 C   0  0  0  0  0  0  0  0  0  0  0  0
    3.8849   -4.9741    0.6473 C   0  0  0  0  0  0  0  0  0  0  0  0
    4.8113   -3.9834   -0.1278 C   0  0  2  0  0  0  0  0  0  0  0  0
    2.7722   -1.7074   -3.8668 H   0  0  0  0  0  0  0  0  0  0  0  0
    2.5564   -3.4450   -4.4878 H   0  0  0  0  0  0  0  0  0  0  0  0
    4.1561   -4.2551   -2.9158 H   0  0  0  0  0  0  0  0  0  0  0  0
    4.5495   -1.3128   -2.2610 H   0  0  0  0  0  0  0  0  0  0  0  0
    6.4707   -3.5139   -2.5860 H   0  0  0  0  0  0  0  0  0  0  0  0
    6.8342   -1.8546   -2.3166 H   0  0  0  0  0  0  0  0  0  0  0  0
    6.4663   -4.5571    1.0824 H   0  0  0  0  0  0  0  0  0  0  0  0
    5.7898   -2.9917    2.7920 H   0  0  0  0  0  0  0  0  0  0  0  0
    5.0274   -0.6578    2.2357 H   0  0  0  0  0  0  0  0  0  0  0  0
    6.6157   -0.9979    1.5515 H   0  0  0  0  0  0  0  0  0  0  0  0
    4.2870   -0.2546    0.0848 H   0  0  0  0  0  0  0  0  0  0  0  0
    5.7863   -0.7067   -0.4925 H   0  0  0  0  0  0  0  0  0  0  0  0
    2.6326   -1.4055    0.5789 H   0  0  0  0  0  0  0  0  0  0  0  0
    2.2337   -3.0385    0.1456 H   0  0  0  0  0  0  0  0  0  0  0  0
    3.3169   -2.3489    2.7174 H   0  0  0  0  0  0  0  0  0  0  0  0
    3.9969   -4.8050    2.8161 H   0  0  0  0  0  0  0  0  0  0  0  0
    2.3787   -4.5536    2.1617 H   0  0  0  0  0  0  0  0  0  0  0  0
    4.4027   -5.9160    0.8233 H   0  0  0  0  0  0  0  0  0  0  0  0
    3.0126   -5.2067    0.0314 H   0  0  0  0  0  0  0  0  0  0  0  0
    5.0590   -4.5909   -1.0023 H   0  0  0  0  0  0  0  0  0  0  0  0
  1  2  2  0
  1 17  1  0
  1 18  1  0
  2  3  1  0
  2 19  1  0
  3 11  1  0
  3  4  1  0
  3 20  1  6
  4  5  1  0
  4 21  1  0
  4 22  1  0
  5  6  2  0
  5  7  1  0
  7 16  1  0
  7  8  1  0
  7 23  1  1
  8 13  1  0
  8  9  1  0
  8 24  1  1
  9 10  1  0
  9 25  1  0
  9 26  1  0
 11 10  1  1
 10 27  1  0
 10 28  1  0
 11 16  1  0
 11 12  1  0
 12 13  1  0
 12 29  1  0
 12 30  1  0
 13 14  1  0
 13 31  1  1
 14 15  1  0
 14 32  1  0
 14 33  1  0
 15 16  1  0
 15 34  1  0
 15 35  1  0
 16 36  1  6
M  END
>  <i_m_ct_stereo_status>  (291) 
1

>  <s_m_source_file>  (291) 
/var/tmp/pbs.5076255.sched01/tmp4tnmxshi/11480k6dy83.sdf

>  <i_m_source_file_index>  (291) 
16

>  <i_lp_mmshare_version>  (291) 
48012

>  <i_f3d_flags>  (291) 
0

>  <s_epik_input>  (291) 
W0NIMl09W0NIXVtDQEBIXTFbQ0gyXUMoPU8pW0NASF0oW0NAQEhdMltDQF0xMzQpW0NAQEhdKFtDSDJdW0NIMl0zKVtDQEBIXShbQ0gyXTQpW0NIMl1bQ0gyXTI=

>  <s_epik_cmdline>  (291) 
J2VwaWtfcHl0aG9uJywgJy1waHQnLCAnMi4wJywgJy1waCcsICc3LjAnLCAnLXRuJywgJzgnLCAnLW1hJywgJzIwMCcsICctaW1hZScsICc8aW5maWxlLm1hZT4nLCAnLW9tYWUnLCAnPG91dGZpbGUubWFlPic=

>  <r_lp_tautomer_probability>  (291) 
1

>  <r_epik_Ionization_Penalty>  (291) 
6.80156e-14

>  <r_epik_Ionization_Penalty_Charging>  (291) 
0

>  <r_epik_Ionization_Penalty_Neutral>  (291) 
6.80156e-14

>  <r_epik_State_Penalty>  (291) 
-0

>  <r_epik_Charging_Adjusted_Penalty>  (291) 
0

>  <i_epik_Tot_Q>  (291) 
0

>  <i_epik_Tot_abs_Q>  (291) 
0

>  <s_lp_Force_Field>  (291) 
OPLS3e

>  <r_lp_Energy>  (291) 
156.716

>  <b_lp_Chiralities_Consistent>  (291) 
1

>  <s_lp_Variant>  (291) 
94:0-1

>  <s_i_glide_gridfile>  (291) 
pfpi4k_grid

>  <i_i_glide_lignum>  (291) 
16

>  <i_i_glide_rotatable_bonds>  (291) 
1

>  <r_i_docking_score>  (291) 
-3.82144

>  <r_i_glide_ligand_efficiency>  (291) 
-0.23884

>  <r_i_glide_ligand_efficiency_sa>  (291) 
-0.601839

>  <r_i_glide_ligand_efficiency_ln>  (291) 
-1.01295

>  <r_i_glide_gscore>  (291) 
-3.82144

>  <r_i_glide_lipo>  (291) 
-0.508801

>  <r_i_glide_hbond>  (291) 
0

>  <r_i_glide_metal>  (291) 
-0

>  <r_i_glide_rewards>  (291) 
-2.04182

>  <r_i_glide_evdw>  (291) 
-22.7358

>  <r_i_glide_ecoul>  (291) 
-0.893493

>  <r_i_glide_erotb>  (291) 
0

>  <r_i_glide_esite>  (291) 
0

>  <r_i_glide_emodel>  (291) 
-29.3827

>  <r_i_glide_energy>  (291) 
-23.6293

>  <r_i_glide_einternal>  (291) 
0.229644

>  <r_i_glide_intrahb_reward>  (291) 
-0

>  <i_i_glide_confnum>  (291) 
1

>  <i_i_glide_posenum>  (291) 
38

>  <r_i_glide_eff_state_penalty>  (291) 
0

>  <ligand_id>  (291) 
94

>  <original_smiles>  (291) 
C=CC1CC(=O)C2C3CCC14CC3CCC24

>  <smiles>  (291) 
[H]C([H])=C([H])C1([H])C([H])([H])C(=O)C2([H])C3([H])C([H])([H])C([H])([H])C14C([H])([H])C3([H])C([H])([H])C([H])([H])C24[H]

$$$$
95:0:0
     RDKit          3D

 38 41  0  0  1  0  0  0  0  0999 V2000
    5.7067   -6.4322    1.3475 C   0  0  0  0  0  0  0  0  0  0  0  0
    4.6711   -6.7921    2.2320 C   0  0  0  0  0  0  0  0  0  0  0  0
    3.7220   -5.8284    2.6203 C   0  0  0  0  0  0  0  0  0  0  0  0
    2.7285   -6.1644    3.5066 O   0  0  0  0  0  0  0  0  0  0  0  0
    1.6337   -6.8402    3.0364 C   0  0  0  0  0  0  0  0  0  0  0  0
    1.2794   -8.0889    3.6035 C   0  0  0  0  0  0  0  0  0  0  0  0
    0.1333   -8.7179    3.0981 C   0  0  0  0  0  0  0  0  0  0  0  0
   -0.5732   -8.0576    2.0820 C   0  0  0  0  0  0  0  0  0  0  0  0
   -0.1873   -6.8548    1.5805 N   0  0  0  0  0  0  0  0  0  0  0  0
    0.9106   -6.2535    2.0601 N   0  0  0  0  0  0  0  0  0  0  0  0
    3.8049   -4.5117    2.1329 C   0  0  0  0  0  0  0  0  0  0  0  0
    4.8149   -4.1502    1.2102 C   0  0  0  0  0  0  0  0  0  0  0  0
    4.8544   -2.7574    0.5710 C   0  0  2  0  0  0  0  0  0  0  0  0
    3.4668   -2.0919    0.3455 C   0  0  0  0  0  0  0  0  0  0  0  0
    3.4482   -1.7701   -1.1005 N   0  0  2  0  0  0  0  0  0  0  0  0
    3.2836   -3.0098   -1.9040 C   0  0  0  0  0  0  0  0  0  0  0  0
    4.6503   -3.7007   -1.7957 C   0  0  0  0  0  0  0  0  0  0  0  0
    5.4218   -2.7058   -0.8808 C   0  0  1  0  0  0  0  0  0  0  0  0
    4.8390   -1.3930   -1.3729 C   0  0  0  0  0  0  0  0  0  0  0  0
    5.7854   -5.1213    0.8544 C   0  0  0  0  0  0  0  0  0  0  0  0
    6.4312   -7.1681    1.0262 H   0  0  0  0  0  0  0  0  0  0  0  0
    4.6129   -7.7990    2.6096 H   0  0  0  0  0  0  0  0  0  0  0  0
    1.8831   -8.5150    4.3843 H   0  0  0  0  0  0  0  0  0  0  0  0
   -0.1913   -9.6775    3.4811 H   0  0  0  0  0  0  0  0  0  0  0  0
   -1.4652   -8.4982    1.6545 H   0  0  0  0  0  0  0  0  0  0  0  0
    3.0571   -3.7959    2.4515 H   0  0  0  0  0  0  0  0  0  0  0  0
    5.4648   -2.1151    1.2073 H   0  0  0  0  0  0  0  0  0  0  0  0
    2.5769   -2.6888    0.5553 H   0  0  0  0  0  0  0  0  0  0  0  0
    3.4003   -1.1592    0.9100 H   0  0  0  0  0  0  0  0  0  0  0  0
    2.4647   -3.6247   -1.5275 H   0  0  0  0  0  0  0  0  0  0  0  0
    3.0808   -2.7471   -2.9434 H   0  0  0  0  0  0  0  0  0  0  0  0
    4.5211   -4.7036   -1.3894 H   0  0  0  0  0  0  0  0  0  0  0  0
    5.1374   -3.8085   -2.7663 H   0  0  0  0  0  0  0  0  0  0  0  0
    6.5119   -2.7758   -0.9507 H   0  0  0  0  0  0  0  0  0  0  0  0
    5.0045   -1.2050   -2.4378 H   0  0  0  0  0  0  0  0  0  0  0  0
    5.1410   -0.5167   -0.7922 H   0  0  0  0  0  0  0  0  0  0  0  0
    6.5747   -4.8783    0.1612 H   0  0  0  0  0  0  0  0  0  0  0  0
    2.7232   -1.0758   -1.3083 H   0  0  0  0  0  0  0  0  0  0  0  0
  1 20  2  0
  1  2  1  0
  1 21  1  0
  2  3  2  0
  2 22  1  0
  3  4  1  0
  3 11  1  0
  4  5  1  0
  5 10  1  0
  5  6  2  0
  6  7  1  0
  6 23  1  0
  7  8  2  0
  7 24  1  0
  8  9  1  0
  8 25  1  0
  9 10  2  0
 11 12  2  0
 11 26  1  0
 12 13  1  0
 12 20  1  0
 13 18  1  0
 13 14  1  0
 13 27  1  1
 14 15  1  0
 14 28  1  0
 14 29  1  0
 15 19  1  0
 15 16  1  0
 15 38  1  1
 16 17  1  0
 16 30  1  0
 16 31  1  0
 17 18  1  0
 17 32  1  0
 17 33  1  0
 18 19  1  0
 18 34  1  1
 19 35  1  0
 19 36  1  0
 20 37  1  0
M  CHG  1  15   1
M  END
>  <i_m_ct_stereo_status>  (292) 
1

>  <s_m_source_file>  (292) 
/var/tmp/pbs.5076255.sched01/tmp4tnmxshi/11480k6dy83.sdf

>  <i_m_source_file_index>  (292) 
17

>  <i_lp_mmshare_version>  (292) 
48012

>  <i_f3d_flags>  (292) 
0

>  <s_epik_input>  (292) 
W0NIMl0xW0NIMl1bQ0BASF0oW0NIMl0yKVtDQEBIXShbQ0gyXU4xMiljKFtjSF0zKVtjSF1bY0hdW2NIXWMzT2M0W2NIXVtjSF1bY0hdbm40

>  <s_epik_cmdline>  (292) 
J2VwaWtfcHl0aG9uJywgJy1waHQnLCAnMi4wJywgJy1waCcsICc3LjAnLCAnLXRuJywgJzgnLCAnLW1hJywgJzIwMCcsICctaW1hZScsICc8aW5maWxlLm1hZT4nLCAnLW9tYWUnLCAnPG91dGZpbGUubWFlPic=

>  <r_lp_tautomer_probability>  (292) 
1

>  <r_epik_Ionization_Penalty>  (292) 
0.00072073

>  <r_epik_Ionization_Penalty_Charging>  (292) 
0.000720135

>  <r_epik_Ionization_Penalty_Neutral>  (292) 
5.95155e-07

>  <r_epik_State_Penalty>  (292) 
0.000459167

>  <r_epik_Charging_Adjusted_Penalty>  (292) 
0.0011793

>  <i_epik_Tot_Q>  (292) 
1

>  <i_epik_Tot_abs_Q>  (292) 
1

>  <s_lp_Force_Field>  (292) 
OPLS3e

>  <r_lp_Energy>  (292) 
62.2124

>  <b_lp_Chiralities_Consistent>  (292) 
1

>  <s_lp_Variant>  (292) 
95:0-1

>  <s_i_glide_gridfile>  (292) 
pfpi4k_grid

>  <i_i_glide_lignum>  (292) 
17

>  <i_i_glide_rotatable_bonds>  (292) 
3

>  <r_i_docking_score>  (292) 
-3.69035

>  <r_i_glide_ligand_efficiency>  (292) 
-0.184517

>  <r_i_glide_ligand_efficiency_sa>  (292) 
-0.500857

>  <r_i_glide_ligand_efficiency_ln>  (292) 
-0.923572

>  <r_i_glide_gscore>  (292) 
-3.69035

>  <r_i_glide_lipo>  (292) 
-0.252813

>  <r_i_glide_hbond>  (292) 
-0.122879

>  <r_i_glide_metal>  (292) 
-0

>  <r_i_glide_rewards>  (292) 
-1.57954

>  <r_i_glide_evdw>  (292) 
-22.6761

>  <r_i_glide_ecoul>  (292) 
-7.20226

>  <r_i_glide_erotb>  (292) 
0.743654

>  <r_i_glide_esite>  (292) 
-0.264624

>  <r_i_glide_emodel>  (292) 
-38.246

>  <r_i_glide_energy>  (292) 
-29.8783

>  <r_i_glide_einternal>  (292) 
2.51956

>  <r_i_glide_intrahb_reward>  (292) 
-0

>  <i_i_glide_confnum>  (292) 
6

>  <i_i_glide_posenum>  (292) 
32

>  <r_i_glide_eff_state_penalty>  (292) 
0

>  <ligand_id>  (292) 
95

>  <original_smiles>  (292) 
c1cc(Oc2cccnn2)cc(C2CN3CCC2C3)c1

>  <smiles>  (292) 
[H]c1nnc(Oc2c([H])c([H])c([H])c(C3([H])C4([H])C([H])([H])C([H])([H])[N+]([H])(C3([H])[H])C4([H])[H])c2[H])c([H])c1[H]

$$$$
95:0:1
     RDKit          3D

 38 41  0  0  1  0  0  0  0  0999 V2000
    4.3010   -5.2404    2.5723 C   0  0  0  0  0  0  0  0  0  0  0  0
    3.4736   -6.3562    2.3676 C   0  0  0  0  0  0  0  0  0  0  0  0
    2.4926   -6.3285    1.3597 C   0  0  0  0  0  0  0  0  0  0  0  0
    1.6999   -7.4195    1.1356 O   0  0  0  0  0  0  0  0  0  0  0  0
    0.7368   -7.6993    2.0558 C   0  0  0  0  0  0  0  0  0  0  0  0
    0.8430   -8.8271    2.8780 C   0  0  0  0  0  0  0  0  0  0  0  0
   -0.1963   -9.0472    3.7939 C   0  0  0  0  0  0  0  0  0  0  0  0
   -1.2655   -8.1308    3.7935 C   0  0  0  0  0  0  0  0  0  0  0  0
   -1.3097   -7.0544    2.9666 N   0  0  0  0  0  0  0  0  0  0  0  0
   -0.3201   -6.8366    2.1048 N   0  0  0  0  0  0  0  0  0  0  0  0
    2.3566   -5.1957    0.5345 C   0  0  0  0  0  0  0  0  0  0  0  0
    3.2037   -4.0781    0.7126 C   0  0  0  0  0  0  0  0  0  0  0  0
    3.1389   -2.8654   -0.2248 C   0  0  2  0  0  0  0  0  0  0  0  0
    2.6883   -3.1628   -1.6884 C   0  0  0  0  0  0  0  0  0  0  0  0
    3.7800   -2.6253   -2.5212 N   0  0  2  0  0  0  0  0  0  0  0  0
    4.9739   -3.4973   -2.4271 C   0  0  0  0  0  0  0  0  0  0  0  0
    5.5317   -3.2028   -1.0233 C   0  0  0  0  0  0  0  0  0  0  0  0
    4.4993   -2.1681   -0.5037 C   0  0  1  0  0  0  0  0  0  0  0  0
    4.1860   -1.4282   -1.7977 C   0  0  0  0  0  0  0  0  0  0  0  0
    4.1535   -4.0994    1.7585 C   0  0  0  0  0  0  0  0  0  0  0  0
    5.0688   -5.2601    3.3303 H   0  0  0  0  0  0  0  0  0  0  0  0
    3.5924   -7.2401    2.9780 H   0  0  0  0  0  0  0  0  0  0  0  0
    1.6899   -9.4902    2.7967 H   0  0  0  0  0  0  0  0  0  0  0  0
   -0.1841   -9.8991    4.4672 H   0  0  0  0  0  0  0  0  0  0  0  0
   -2.0931   -8.2484    4.4755 H   0  0  0  0  0  0  0  0  0  0  0  0
    1.6141   -5.2272   -0.2485 H   0  0  0  0  0  0  0  0  0  0  0  0
    2.4617   -2.1438    0.2304 H   0  0  0  0  0  0  0  0  0  0  0  0
    2.5257   -4.2027   -1.9479 H   0  0  0  0  0  0  0  0  0  0  0  0
    1.7620   -2.6429   -1.9302 H   0  0  0  0  0  0  0  0  0  0  0  0
    4.7342   -4.5547   -2.5671 H   0  0  0  0  0  0  0  0  0  0  0  0
    5.7115   -3.2101   -3.1785 H   0  0  0  0  0  0  0  0  0  0  0  0
    5.5922   -4.1263   -0.4452 H   0  0  0  0  0  0  0  0  0  0  0  0
    6.5378   -2.7851   -1.0579 H   0  0  0  0  0  0  0  0  0  0  0  0
    4.8591   -1.5262    0.3046 H   0  0  0  0  0  0  0  0  0  0  0  0
    5.0562   -0.9485   -2.2560 H   0  0  0  0  0  0  0  0  0  0  0  0
    3.3716   -0.7026   -1.7175 H   0  0  0  0  0  0  0  0  0  0  0  0
    4.8207   -3.2641    1.9140 H   0  0  0  0  0  0  0  0  0  0  0  0
    3.4728   -2.4758   -3.4758 H   0  0  0  0  0  0  0  0  0  0  0  0
  1 20  2  0
  1  2  1  0
  1 21  1  0
  2  3  2  0
  2 22  1  0
  3  4  1  0
  3 11  1  0
  4  5  1  0
  5 10  1  0
  5  6  2  0
  6  7  1  0
  6 23  1  0
  7  8  2  0
  7 24  1  0
  8  9  1  0
  8 25  1  0
  9 10  2  0
 11 12  2  0
 11 26  1  0
 12 13  1  0
 12 20  1  0
 13 18  1  0
 13 14  1  0
 13 27  1  1
 14 15  1  0
 14 28  1  0
 14 29  1  0
 15 19  1  0
 15 16  1  0
 15 38  1  6
 16 17  1  0
 16 30  1  0
 16 31  1  0
 17 18  1  0
 17 32  1  0
 17 33  1  0
 18 19  1  0
 18 34  1  1
 19 35  1  0
 19 36  1  0
 20 37  1  0
M  CHG  1  15   1
M  END
>  <i_m_ct_stereo_status>  (293) 
1

>  <s_m_source_file>  (293) 
/var/tmp/pbs.5076255.sched01/tmp4tnmxshi/11480k6dy83.sdf

>  <i_m_source_file_index>  (293) 
17

>  <i_lp_mmshare_version>  (293) 
48012

>  <i_f3d_flags>  (293) 
0

>  <s_epik_input>  (293) 
W0NIMl0xW0NIMl1bQ0BASF0oW0NIMl0yKVtDQEBIXShbQ0gyXU4xMiljKFtjSF0zKVtjSF1bY0hdW2NIXWMzT2M0W2NIXVtjSF1bY0hdbm40

>  <s_epik_cmdline>  (293) 
J2VwaWtfcHl0aG9uJywgJy1waHQnLCAnMi4wJywgJy1waCcsICc3LjAnLCAnLXRuJywgJzgnLCAnLW1hJywgJzIwMCcsICctaW1hZScsICc8aW5maWxlLm1hZT4nLCAnLW9tYWUnLCAnPG91dGZpbGUubWFlPic=

>  <r_lp_tautomer_probability>  (293) 
1

>  <r_epik_Ionization_Penalty>  (293) 
0.00072073

>  <r_epik_Ionization_Penalty_Charging>  (293) 
0.000720135

>  <r_epik_Ionization_Penalty_Neutral>  (293) 
5.95155e-07

>  <r_epik_State_Penalty>  (293) 
0.000459167

>  <r_epik_Charging_Adjusted_Penalty>  (293) 
0.0011793

>  <i_epik_Tot_Q>  (293) 
1

>  <i_epik_Tot_abs_Q>  (293) 
1

>  <s_lp_Force_Field>  (293) 
OPLS3e

>  <r_lp_Energy>  (293) 
62.2124

>  <b_lp_Chiralities_Consistent>  (293) 
1

>  <s_lp_Variant>  (293) 
95:0-1

>  <s_i_glide_gridfile>  (293) 
pfpi4k_grid

>  <i_i_glide_lignum>  (293) 
17

>  <i_i_glide_rotatable_bonds>  (293) 
3

>  <r_i_docking_score>  (293) 
-3.57204

>  <r_i_glide_ligand_efficiency>  (293) 
-0.178602

>  <r_i_glide_ligand_efficiency_sa>  (293) 
-0.4848

>  <r_i_glide_ligand_efficiency_ln>  (293) 
-0.893963

>  <r_i_glide_gscore>  (293) 
-3.57204

>  <r_i_glide_lipo>  (293) 
-0.239912

>  <r_i_glide_hbond>  (293) 
0

>  <r_i_glide_metal>  (293) 
-0

>  <r_i_glide_rewards>  (293) 
-1.57954

>  <r_i_glide_evdw>  (293) 
-22.7643

>  <r_i_glide_ecoul>  (293) 
-7.67748

>  <r_i_glide_erotb>  (293) 
0.743654

>  <r_i_glide_esite>  (293) 
-0.206397

>  <r_i_glide_emodel>  (293) 
-38.2489

>  <r_i_glide_energy>  (293) 
-30.4418

>  <r_i_glide_einternal>  (293) 
3.16116

>  <r_i_glide_intrahb_reward>  (293) 
-0

>  <i_i_glide_confnum>  (293) 
5

>  <i_i_glide_posenum>  (293) 
14

>  <r_i_glide_eff_state_penalty>  (293) 
0

>  <ligand_id>  (293) 
95

>  <original_smiles>  (293) 
c1cc(Oc2cccnn2)cc(C2CN3CCC2C3)c1

>  <smiles>  (293) 
[H]c1nnc(Oc2c([H])c([H])c([H])c(C3([H])C4([H])C([H])([H])C([H])([H])[N+]([H])(C3([H])[H])C4([H])[H])c2[H])c([H])c1[H]

$$$$
95:0:2
     RDKit          3D

 38 41  0  0  1  0  0  0  0  0999 V2000
    4.8870   -6.8012    1.3764 C   0  0  0  0  0  0  0  0  0  0  0  0
    3.5985   -7.3407    1.2792 C   0  0  0  0  0  0  0  0  0  0  0  0
    2.4798   -6.4806    1.2601 C   0  0  0  0  0  0  0  0  0  0  0  0
    1.2105   -6.9782    1.1600 O   0  0  0  0  0  0  0  0  0  0  0  0
    0.5998   -7.4660    2.2932 C   0  0  0  0  0  0  0  0  0  0  0  0
    1.2413   -8.3422    3.1901 C   0  0  0  0  0  0  0  0  0  0  0  0
    0.5073   -8.7904    4.2942 C   0  0  0  0  0  0  0  0  0  0  0  0
   -0.8110   -8.3261    4.4210 C   0  0  0  0  0  0  0  0  0  0  0  0
   -1.3789   -7.4770    3.5366 N   0  0  0  0  0  0  0  0  0  0  0  0
   -0.6791   -7.0653    2.4703 N   0  0  0  0  0  0  0  0  0  0  0  0
    2.6718   -5.0822    1.2820 C   0  0  0  0  0  0  0  0  0  0  0  0
    3.9634   -4.5316    1.3040 C   0  0  0  0  0  0  0  0  0  0  0  0
    4.1734   -3.0184    1.2136 C   0  0  2  0  0  0  0  0  0  0  0  0
    3.0816   -2.2367    0.4289 C   0  0  0  0  0  0  0  0  0  0  0  0
    3.8476   -1.4999   -0.6111 N   0  0  2  0  0  0  0  0  0  0  0  0
    4.3151   -2.4481   -1.6645 C   0  0  0  0  0  0  0  0  0  0  0  0
    5.4479   -3.2323   -0.9851 C   0  0  0  0  0  0  0  0  0  0  0  0
    5.4484   -2.5836    0.4318 C   0  0  1  0  0  0  0  0  0  0  0  0
    5.0979   -1.1485    0.0816 C   0  0  0  0  0  0  0  0  0  0  0  0
    5.0734   -5.4056    1.3898 C   0  0  0  0  0  0  0  0  0  0  0  0
    5.7497   -7.4547    1.3939 H   0  0  0  0  0  0  0  0  0  0  0  0
    3.4684   -8.4112    1.2303 H   0  0  0  0  0  0  0  0  0  0  0  0
    2.2534   -8.6792    3.0455 H   0  0  0  0  0  0  0  0  0  0  0  0
    0.9416   -9.4753    5.0059 H   0  0  0  0  0  0  0  0  0  0  0  0
   -1.4212   -8.6487    5.2508 H   0  0  0  0  0  0  0  0  0  0  0  0
    1.8094   -4.4327    1.2240 H   0  0  0  0  0  0  0  0  0  0  0  0
    4.2349   -2.6323    2.2294 H   0  0  0  0  0  0  0  0  0  0  0  0
    2.3072   -2.8191   -0.0827 H   0  0  0  0  0  0  0  0  0  0  0  0
    2.5969   -1.4986    1.0852 H   0  0  0  0  0  0  0  0  0  0  0  0
    3.5028   -3.0919   -2.0142 H   0  0  0  0  0  0  0  0  0  0  0  0
    4.7075   -1.8805   -2.5161 H   0  0  0  0  0  0  0  0  0  0  0  0
    5.2323   -4.3040   -0.9969 H   0  0  0  0  0  0  0  0  0  0  0  0
    6.4034   -3.0786   -1.4857 H   0  0  0  0  0  0  0  0  0  0  0  0
    6.3855   -2.7002    0.9864 H   0  0  0  0  0  0  0  0  0  0  0  0
    5.8104   -0.6645   -0.5964 H   0  0  0  0  0  0  0  0  0  0  0  0
    4.9122   -0.4987    0.9462 H   0  0  0  0  0  0  0  0  0  0  0  0
    6.0711   -5.0115    1.4272 H   0  0  0  0  0  0  0  0  0  0  0  0
    3.3022   -0.7200   -0.9899 H   0  0  0  0  0  0  0  0  0  0  0  0
  1 20  2  0
  1  2  1  0
  1 21  1  0
  2  3  2  0
  2 22  1  0
  3  4  1  0
  3 11  1  0
  4  5  1  0
  5 10  1  0
  5  6  2  0
  6  7  1  0
  6 23  1  0
  7  8  2  0
  7 24  1  0
  8  9  1  0
  8 25  1  0
  9 10  2  0
 11 12  2  0
 11 26  1  0
 12 13  1  0
 12 20  1  0
 13 18  1  0
 13 14  1  0
 13 27  1  1
 14 15  1  0
 14 28  1  0
 14 29  1  0
 15 19  1  0
 15 16  1  0
 15 38  1  6
 16 17  1  0
 16 30  1  0
 16 31  1  0
 17 18  1  0
 17 32  1  0
 17 33  1  0
 18 19  1  0
 18 34  1  1
 19 35  1  0
 19 36  1  0
 20 37  1  0
M  CHG  1  15   1
M  END
>  <i_m_ct_stereo_status>  (294) 
1

>  <s_m_source_file>  (294) 
/var/tmp/pbs.5076255.sched01/tmp4tnmxshi/11480k6dy83.sdf

>  <i_m_source_file_index>  (294) 
17

>  <i_lp_mmshare_version>  (294) 
48012

>  <i_f3d_flags>  (294) 
0

>  <s_epik_input>  (294) 
W0NIMl0xW0NIMl1bQ0BASF0oW0NIMl0yKVtDQEBIXShbQ0gyXU4xMiljKFtjSF0zKVtjSF1bY0hdW2NIXWMzT2M0W2NIXVtjSF1bY0hdbm40

>  <s_epik_cmdline>  (294) 
J2VwaWtfcHl0aG9uJywgJy1waHQnLCAnMi4wJywgJy1waCcsICc3LjAnLCAnLXRuJywgJzgnLCAnLW1hJywgJzIwMCcsICctaW1hZScsICc8aW5maWxlLm1hZT4nLCAnLW9tYWUnLCAnPG91dGZpbGUubWFlPic=

>  <r_lp_tautomer_probability>  (294) 
1

>  <r_epik_Ionization_Penalty>  (294) 
0.00072073

>  <r_epik_Ionization_Penalty_Charging>  (294) 
0.000720135

>  <r_epik_Ionization_Penalty_Neutral>  (294) 
5.95155e-07

>  <r_epik_State_Penalty>  (294) 
0.000459167

>  <r_epik_Charging_Adjusted_Penalty>  (294) 
0.0011793

>  <i_epik_Tot_Q>  (294) 
1

>  <i_epik_Tot_abs_Q>  (294) 
1

>  <s_lp_Force_Field>  (294) 
OPLS3e

>  <r_lp_Energy>  (294) 
62.2124

>  <b_lp_Chiralities_Consistent>  (294) 
1

>  <s_lp_Variant>  (294) 
95:0-1

>  <s_i_glide_gridfile>  (294) 
pfpi4k_grid

>  <i_i_glide_lignum>  (294) 
17

>  <i_i_glide_rotatable_bonds>  (294) 
3

>  <r_i_docking_score>  (294) 
-3.55202

>  <r_i_glide_ligand_efficiency>  (294) 
-0.177601

>  <r_i_glide_ligand_efficiency_sa>  (294) 
-0.482083

>  <r_i_glide_ligand_efficiency_ln>  (294) 
-0.888952

>  <r_i_glide_gscore>  (294) 
-3.55202

>  <r_i_glide_lipo>  (294) 
-0.369736

>  <r_i_glide_hbond>  (294) 
0

>  <r_i_glide_metal>  (294) 
-0

>  <r_i_glide_rewards>  (294) 
-1.57954

>  <r_i_glide_evdw>  (294) 
-24.4931

>  <r_i_glide_ecoul>  (294) 
-5.86176

>  <r_i_glide_erotb>  (294) 
0.743654

>  <r_i_glide_esite>  (294) 
-0.24247

>  <r_i_glide_emodel>  (294) 
-38.9421

>  <r_i_glide_energy>  (294) 
-30.3549

>  <r_i_glide_einternal>  (294) 
1.46908

>  <r_i_glide_intrahb_reward>  (294) 
-0

>  <i_i_glide_confnum>  (294) 
5

>  <i_i_glide_posenum>  (294) 
39

>  <r_i_glide_eff_state_penalty>  (294) 
0

>  <ligand_id>  (294) 
95

>  <original_smiles>  (294) 
c1cc(Oc2cccnn2)cc(C2CN3CCC2C3)c1

>  <smiles>  (294) 
[H]c1nnc(Oc2c([H])c([H])c([H])c(C3([H])C4([H])C([H])([H])C([H])([H])[N+]([H])(C3([H])[H])C4([H])[H])c2[H])c([H])c1[H]

$$$$
97:0:0
     RDKit          3D

 65 70  0  0  1  0  0  0  0  0999 V2000
    0.8715  -12.0015    4.8603 C   0  0  0  0  0  0  0  0  0  0  0  0
    1.1386  -11.1346    3.7014 N   0  0  0  0  0  0  0  0  0  0  0  0
    2.5836  -10.8596    3.5519 C   0  0  0  0  0  0  0  0  0  0  0  0
    2.8136   -9.9728    2.3263 C   0  0  0  0  0  0  0  0  0  0  0  0
    2.0857   -8.7021    2.4809 N   0  0  0  0  0  0  0  0  0  0  0  0
    2.3347   -7.8539    1.3108 C   0  0  0  0  0  0  0  0  0  0  0  0
    2.7397   -6.4029    1.6550 C   0  0  0  0  0  0  0  0  0  0  0  0
    4.1430   -6.2980    2.1470 N   0  0  2  0  0  0  0  0  0  0  0  0
    4.3786   -6.5800    3.5384 C   0  0  2  0  0  0  0  0  0  0  0  0
    3.6939   -5.3358    4.3085 C   0  0  0  0  0  0  0  0  0  0  0  0
    3.4463   -4.0384    3.4480 C   0  0  0  0  0  0  0  0  0  0  0  0
    2.5225   -3.0404    3.8274 C   0  0  0  0  0  0  0  0  0  0  0  0
    2.2604   -1.9589    2.9541 C   0  0  0  0  0  0  0  0  0  0  0  0
    2.9025   -1.8616    1.6941 C   0  0  0  0  0  0  0  0  0  0  0  0
    2.6227   -0.8031    0.8853 O   0  0  0  0  0  0  0  0  0  0  0  0
    3.8391   -2.8430    1.3021 C   0  0  0  0  0  0  0  0  0  0  0  0
    4.0933   -3.9214    2.1736 C   0  0  0  0  0  0  0  0  0  0  0  0
    4.9805   -5.1031    1.8602 C   0  0  1  0  0  0  0  0  0  0  0  0
    6.1393   -4.6515    2.9032 C   0  0  1  0  0  0  0  0  0  0  0  0
    6.5778   -5.6181    4.0060 C   0  0  0  0  0  0  0  0  0  0  0  0
    5.9534   -6.9029    3.5328 C   0  0  2  0  0  0  0  0  0  0  0  0
    6.6015   -7.1004    2.0503 C   0  0  0  0  0  0  0  0  0  0  0  0
    8.1194   -7.4014    2.0803 C   0  0  0  0  0  0  0  0  0  0  0  0
    6.0317   -8.3311    1.3040 C   0  0  0  0  0  0  0  0  0  0  0  0
    6.2805   -5.7453    1.2676 C   0  0  2  0  0  0  0  0  0  0  0  0
    7.0405   -4.5051    1.6893 C   0  0  0  0  0  0  0  0  0  0  0  0
    0.6546   -8.9847    2.5781 C   0  0  0  0  0  0  0  0  0  0  0  0
    0.3960   -9.8540    3.8049 C   0  0  0  0  0  0  0  0  0  0  0  0
    1.1977  -11.4113    5.7034 H   0  0  0  0  0  0  0  0  0  0  0  0
    1.4487  -12.9311    4.8840 H   0  0  0  0  0  0  0  0  0  0  0  0
   -0.1791  -12.2505    5.0035 H   0  0  0  0  0  0  0  0  0  0  0  0
    2.9633  -10.3614    4.4470 H   0  0  0  0  0  0  0  0  0  0  0  0
    3.1294  -11.7983    3.4547 H   0  0  0  0  0  0  0  0  0  0  0  0
    3.8754   -9.7747    2.2583 H   0  0  0  0  0  0  0  0  0  0  0  0
    2.5558  -10.4931    1.4056 H   0  0  0  0  0  0  0  0  0  0  0  0
    3.0777   -8.3328    0.6702 H   0  0  0  0  0  0  0  0  0  0  0  0
    1.4328   -7.8159    0.6880 H   0  0  0  0  0  0  0  0  0  0  0  0
    2.6610   -5.8384    0.7325 H   0  0  0  0  0  0  0  0  0  0  0  0
    2.0068   -5.9688    2.3269 H   0  0  0  0  0  0  0  0  0  0  0  0
    3.8830   -7.4868    3.8554 H   0  0  0  0  0  0  0  0  0  0  0  0
    2.7077   -5.6558    4.6440 H   0  0  0  0  0  0  0  0  0  0  0  0
    4.2043   -5.0636    5.2277 H   0  0  0  0  0  0  0  0  0  0  0  0
    1.9882   -3.1075    4.7672 H   0  0  0  0  0  0  0  0  0  0  0  0
    1.5605   -1.1905    3.2344 H   0  0  0  0  0  0  0  0  0  0  0  0
    1.9101   -0.9264    0.2260 H   0  0  0  0  0  0  0  0  0  0  0  0
    4.3294   -2.7864    0.3374 H   0  0  0  0  0  0  0  0  0  0  0  0
    6.0378   -3.6462    3.2997 H   0  0  0  0  0  0  0  0  0  0  0  0
    7.6638   -5.6878    4.1051 H   0  0  0  0  0  0  0  0  0  0  0  0
    6.2497   -5.3359    5.0048 H   0  0  0  0  0  0  0  0  0  0  0  0
    6.1967   -7.7337    4.1890 H   0  0  0  0  0  0  0  0  0  0  0  0
    8.5191   -7.4850    1.0677 H   0  0  0  0  0  0  0  0  0  0  0  0
    8.3024   -8.3466    2.5861 H   0  0  0  0  0  0  0  0  0  0  0  0
    8.7255   -6.6534    2.5788 H   0  0  0  0  0  0  0  0  0  0  0  0
    6.7098   -8.7306    0.5527 H   0  0  0  0  0  0  0  0  0  0  0  0
    5.1207   -8.1228    0.7538 H   0  0  0  0  0  0  0  0  0  0  0  0
    5.8663   -9.1415    2.0047 H   0  0  0  0  0  0  0  0  0  0  0  0
    6.2466   -5.8071    0.1872 H   0  0  0  0  0  0  0  0  0  0  0  0
    6.8509   -3.5939    1.1125 H   0  0  0  0  0  0  0  0  0  0  0  0
    8.1061   -4.6681    1.8985 H   0  0  0  0  0  0  0  0  0  0  0  0
    0.0917   -8.0505    2.6544 H   0  0  0  0  0  0  0  0  0  0  0  0
    0.2848   -9.5230    1.7198 H   0  0  0  0  0  0  0  0  0  0  0  0
   -0.6680  -10.0576    3.8472 H   0  0  0  0  0  0  0  0  0  0  0  0
    0.6620   -9.3125    4.7235 H   0  0  0  0  0  0  0  0  0  0  0  0
    4.6414   -7.0398    1.6727 H   0  0  0  0  0  0  0  0  0  0  0  0
    0.8333  -11.6208    2.8732 H   0  0  0  0  0  0  0  0  0  0  0  0
  1  2  1  0
  1 29  1  0
  1 30  1  0
  1 31  1  0
  2 28  1  0
  2  3  1  0
  2 65  1  0
  3  4  1  0
  3 32  1  0
  3 33  1  0
  4  5  1  0
  4 34  1  0
  4 35  1  0
  5  6  1  0
  5 27  1  0
  6  7  1  0
  6 36  1  0
  6 37  1  0
  7  8  1  0
  7 38  1  0
  7 39  1  0
  8 18  1  0
  8  9  1  0
  8 64  1  6
  9 21  1  0
  9 10  1  0
  9 40  1  1
 10 11  1  0
 10 41  1  0
 10 42  1  0
 11 17  2  0
 11 12  1  0
 12 13  2  0
 12 43  1  0
 13 14  1  0
 13 44  1  0
 14 15  1  0
 14 16  2  0
 15 45  1  0
 16 17  1  0
 16 46  1  0
 18 17  1  6
 18 25  1  0
 18 19  1  0
 19 26  1  0
 19 20  1  0
 19 47  1  1
 20 21  1  0
 20 48  1  0
 20 49  1  0
 21 22  1  0
 21 50  1  1
 22 23  1  0
 22 24  1  0
 22 25  1  0
 23 51  1  0
 23 52  1  0
 23 53  1  0
 24 54  1  0
 24 55  1  0
 24 56  1  0
 25 26  1  0
 25 57  1  6
 26 58  1  0
 26 59  1  0
 27 28  1  0
 27 60  1  0
 27 61  1  0
 28 62  1  0
 28 63  1  0
M  CHG  2   2   1   8   1
M  END
>  <i_m_ct_stereo_status>  (295) 
1

>  <s_m_source_file>  (295) 
/var/tmp/pbs.5076255.sched01/tmp4tnmxshi/11480k6dy83.sdf

>  <i_m_source_file_index>  (295) 
19

>  <i_lp_mmshare_version>  (295) 
48012

>  <i_f3d_flags>  (295) 
0

>  <s_epik_input>  (295) 
W0NIM11OMVtDSDJdW0NIMl1OKFtDSDJdW0NIMl0xKVtDSDJdW0NIMl1OMltDQEhdKFtDSDJdYyhjM0MyNDUpW2NIXVtjSF1jKFtPSF0pW2NIXTMpW0NAQEhdNltDSDJdW0NASF00W0NIMl1bQ0BIXTVDNihbQ0gzXSlbQ0gzXQ==

>  <s_epik_cmdline>  (295) 
J2VwaWtfcHl0aG9uJywgJy1waHQnLCAnMi4wJywgJy1waCcsICc3LjAnLCAnLXRuJywgJzgnLCAnLW1hJywgJzIwMCcsICctaW1hZScsICc8aW5maWxlLm1hZT4nLCAnLW9tYWUnLCAnPG91dGZpbGUubWFlPic=

>  <r_lp_tautomer_probability>  (295) 
1

>  <r_epik_Ionization_Penalty>  (295) 
0.0814063

>  <r_epik_Ionization_Penalty_Charging>  (295) 
0.0738399

>  <r_epik_Ionization_Penalty_Neutral>  (295) 
0.00756642

>  <r_epik_State_Penalty>  (295) 
0.0731418

>  <r_epik_Charging_Adjusted_Penalty>  (295) 
0.146982

>  <i_epik_Tot_Q>  (295) 
2

>  <i_epik_Tot_abs_Q>  (295) 
2

>  <s_lp_Force_Field>  (295) 
OPLS3e

>  <r_lp_Energy>  (295) 
193.966

>  <b_lp_Chiralities_Consistent>  (295) 
1

>  <s_lp_Variant>  (295) 
97:0-1

>  <s_i_glide_gridfile>  (295) 
pfpi4k_grid

>  <i_i_glide_lignum>  (295) 
19

>  <i_i_glide_rotatable_bonds>  (295) 
4

>  <r_i_docking_score>  (295) 
-3.20302

>  <r_i_glide_ligand_efficiency>  (295) 
-0.114394

>  <r_i_glide_ligand_efficiency_sa>  (295) 
-0.347367

>  <r_i_glide_ligand_efficiency_ln>  (295) 
-0.739352

>  <r_i_glide_gscore>  (295) 
-3.20302

>  <r_i_glide_lipo>  (295) 
-0.376944

>  <r_i_glide_hbond>  (295) 
-0.16

>  <r_i_glide_metal>  (295) 
-0

>  <r_i_glide_rewards>  (295) 
-0.79384

>  <r_i_glide_evdw>  (295) 
-13.8431

>  <r_i_glide_ecoul>  (295) 
-10.509

>  <r_i_glide_erotb>  (295) 
0.396263

>  <r_i_glide_esite>  (295) 
0

>  <r_i_glide_emodel>  (295) 
-27.129

>  <r_i_glide_energy>  (295) 
-24.3521

>  <r_i_glide_einternal>  (295) 
6.69357

>  <r_i_glide_intrahb_reward>  (295) 
-0

>  <i_i_glide_confnum>  (295) 
2

>  <i_i_glide_posenum>  (295) 
4

>  <r_i_glide_eff_state_penalty>  (295) 
0

>  <ligand_id>  (295) 
97

>  <original_smiles>  (295) 
CN1CCN(CCN2C3Cc4ccc(O)cc4C24C2CC3C(C)(C)C4C2)CC1

>  <smiles>  (295) 
[H]Oc1c([H])c([H])c2c(c1[H])C13C4([H])C([H])([H])C([H])(C(C([H])([H])[H])(C([H])([H])[H])C1([H])C4([H])[H])C([H])(C2([H])[H])[N+]3([H])C([H])([H])C([H])([H])N1C([H])([H])C([H])([H])[N+]([H])(C([H])([H])[H])C([H])([H])C1([H])[H]

$$$$
97:0:1
     RDKit          3D

 65 70  0  0  1  0  0  0  0  0999 V2000
    1.3856  -11.8528    3.2984 C   0  0  0  0  0  0  0  0  0  0  0  0
    1.3282  -10.3988    3.0557 N   0  0  0  0  0  0  0  0  0  0  0  0
    2.5487   -9.7057    3.5237 C   0  0  0  0  0  0  0  0  0  0  0  0
    2.4675   -8.1958    3.2185 C   0  0  0  0  0  0  0  0  0  0  0  0
    1.2788   -7.6029    3.8498 N   0  0  0  0  0  0  0  0  0  0  0  0
    1.2581   -6.1509    3.6132 C   0  0  0  0  0  0  0  0  0  0  0  0
    0.3040   -5.3724    4.5611 C   0  0  0  0  0  0  0  0  0  0  0  0
    0.8850   -5.2000    5.9340 N   0  0  2  0  0  0  0  0  0  0  0  0
    0.0201   -5.4127    7.0683 C   0  0  2  0  0  0  0  0  0  0  0  0
   -0.9958   -4.1569    7.0331 C   0  0  0  0  0  0  0  0  0  0  0  0
   -0.5151   -2.9032    6.1976 C   0  0  0  0  0  0  0  0  0  0  0  0
   -1.4015   -1.9206    5.7143 C   0  0  0  0  0  0  0  0  0  0  0  0
   -0.9328   -0.8886    4.8744 C   0  0  0  0  0  0  0  0  0  0  0  0
    0.4240   -0.8342    4.4956 C   0  0  0  0  0  0  0  0  0  0  0  0
    0.8641    0.1381    3.6482 O   0  0  0  0  0  0  0  0  0  0  0  0
    1.3315   -1.8038    4.9628 C   0  0  0  0  0  0  0  0  0  0  0  0
    0.8571   -2.8202    5.8100 C   0  0  0  0  0  0  0  0  0  0  0  0
    1.6733   -3.9852    6.3112 C   0  0  1  0  0  0  0  0  0  0  0  0
    1.7083   -3.4344    7.8511 C   0  0  1  0  0  0  0  0  0  0  0  0
    1.1947   -4.3524    8.9622 C   0  0  0  0  0  0  0  0  0  0  0  0
    1.0959   -5.6803    8.2451 C   0  0  2  0  0  0  0  0  0  0  0  0
    2.6199   -5.9283    7.7251 C   0  0  0  0  0  0  0  0  0  0  0  0
    3.6296   -6.1829    8.8733 C   0  0  0  0  0  0  0  0  0  0  0  0
    2.7454   -7.2194    6.8803 C   0  0  0  0  0  0  0  0  0  0  0  0
    2.9904   -4.6186    6.8758 C   0  0  2  0  0  0  0  0  0  0  0  0
    3.2152   -3.3420    7.6663 C   0  0  0  0  0  0  0  0  0  0  0  0
    0.0771   -8.2706    3.3378 C   0  0  0  0  0  0  0  0  0  0  0  0
    0.1299   -9.7748    3.6576 C   0  0  0  0  0  0  0  0  0  0  0  0
    1.4388  -12.0783    4.3681 H   0  0  0  0  0  0  0  0  0  0  0  0
    2.2677  -12.2843    2.8174 H   0  0  0  0  0  0  0  0  0  0  0  0
    0.5047  -12.3573    2.8937 H   0  0  0  0  0  0  0  0  0  0  0  0
    2.6762   -9.8699    4.5945 H   0  0  0  0  0  0  0  0  0  0  0  0
    3.4238  -10.1355    3.0383 H   0  0  0  0  0  0  0  0  0  0  0  0
    3.3634   -7.7159    3.6165 H   0  0  0  0  0  0  0  0  0  0  0  0
    2.4730   -8.0191    2.1425 H   0  0  0  0  0  0  0  0  0  0  0  0
    2.2666   -5.7300    3.7157 H   0  0  0  0  0  0  0  0  0  0  0  0
    0.9605   -5.9670    2.5779 H   0  0  0  0  0  0  0  0  0  0  0  0
    0.0668   -4.4302    4.0690 H   0  0  0  0  0  0  0  0  0  0  0  0
   -0.6520   -5.8903    4.6534 H   0  0  0  0  0  0  0  0  0  0  0  0
   -0.5481   -6.3325    6.9409 H   0  0  0  0  0  0  0  0  0  0  0  0
   -1.9201   -4.4938    6.5651 H   0  0  0  0  0  0  0  0  0  0  0  0
   -1.3124   -3.8403    8.0244 H   0  0  0  0  0  0  0  0  0  0  0  0
   -2.4535   -1.9729    5.9445 H   0  0  0  0  0  0  0  0  0  0  0  0
   -1.6227   -0.1501    4.4977 H   0  0  0  0  0  0  0  0  0  0  0  0
    0.1987    0.7432    3.3511 H   0  0  0  0  0  0  0  0  0  0  0  0
    2.3646   -1.7900    4.6454 H   0  0  0  0  0  0  0  0  0  0  0  0
    1.3779   -2.4055    8.0273 H   0  0  0  0  0  0  0  0  0  0  0  0
    1.8637   -4.3818    9.8206 H   0  0  0  0  0  0  0  0  0  0  0  0
    0.2460   -4.0363    9.3851 H   0  0  0  0  0  0  0  0  0  0  0  0
    0.7686   -6.4738    8.9249 H   0  0  0  0  0  0  0  0  0  0  0  0
    4.6387   -6.3049    8.4710 H   0  0  0  0  0  0  0  0  0  0  0  0
    3.3740   -7.1030    9.4049 H   0  0  0  0  0  0  0  0  0  0  0  0
    3.6932   -5.3873    9.6111 H   0  0  0  0  0  0  0  0  0  0  0  0
    3.7626   -7.6145    6.8564 H   0  0  0  0  0  0  0  0  0  0  0  0
    2.5325   -7.0377    5.8450 H   0  0  0  0  0  0  0  0  0  0  0  0
    2.0889   -8.0131    7.2439 H   0  0  0  0  0  0  0  0  0  0  0  0
    3.7624   -4.7533    6.1125 H   0  0  0  0  0  0  0  0  0  0  0  0
    3.5284   -2.4773    7.0744 H   0  0  0  0  0  0  0  0  0  0  0  0
    3.8028   -3.4496    8.5834 H   0  0  0  0  0  0  0  0  0  0  0  0
   -0.8123   -7.8663    3.8182 H   0  0  0  0  0  0  0  0  0  0  0  0
   -0.0313   -8.1062    2.2650 H   0  0  0  0  0  0  0  0  0  0  0  0
   -0.7662  -10.2561    3.2727 H   0  0  0  0  0  0  0  0  0  0  0  0
    0.1356   -9.9370    4.7355 H   0  0  0  0  0  0  0  0  0  0  0  0
    1.5351   -5.9671    6.0224 H   0  0  0  0  0  0  0  0  0  0  0  0
    1.2710  -10.2497    2.0558 H   0  0  0  0  0  0  0  0  0  0  0  0
  1  2  1  0
  1 29  1  0
  1 30  1  0
  1 31  1  0
  2 28  1  0
  2  3  1  0
  2 65  1  0
  3  4  1  0
  3 32  1  0
  3 33  1  0
  4  5  1  0
  4 34  1  0
  4 35  1  0
  5  6  1  0
  5 27  1  0
  6  7  1  0
  6 36  1  0
  6 37  1  0
  7  8  1  0
  7 38  1  0
  7 39  1  0
  8 18  1  0
  8  9  1  0
  8 64  1  1
  9 21  1  0
  9 10  1  0
  9 40  1  6
 10 11  1  0
 10 41  1  0
 10 42  1  0
 11 17  2  0
 11 12  1  0
 12 13  2  0
 12 43  1  0
 13 14  1  0
 13 44  1  0
 14 15  1  0
 14 16  2  0
 15 45  1  0
 16 17  1  0
 16 46  1  0
 18 17  1  6
 18 25  1  0
 18 19  1  0
 19 26  1  0
 19 20  1  0
 19 47  1  6
 20 21  1  0
 20 48  1  0
 20 49  1  0
 21 22  1  0
 21 50  1  1
 22 23  1  0
 22 24  1  0
 22 25  1  0
 23 51  1  0
 23 52  1  0
 23 53  1  0
 24 54  1  0
 24 55  1  0
 24 56  1  0
 25 26  1  0
 25 57  1  6
 26 58  1  0
 26 59  1  0
 27 28  1  0
 27 60  1  0
 27 61  1  0
 28 62  1  0
 28 63  1  0
M  CHG  2   2   1   8   1
M  END
>  <i_m_ct_stereo_status>  (296) 
1

>  <s_m_source_file>  (296) 
/var/tmp/pbs.5076255.sched01/tmp4tnmxshi/11480k6dy83.sdf

>  <i_m_source_file_index>  (296) 
19

>  <i_lp_mmshare_version>  (296) 
48012

>  <i_f3d_flags>  (296) 
0

>  <s_epik_input>  (296) 
W0NIM11OMVtDSDJdW0NIMl1OKFtDSDJdW0NIMl0xKVtDSDJdW0NIMl1OMltDQEhdKFtDSDJdYyhjM0MyNDUpW2NIXVtjSF1jKFtPSF0pW2NIXTMpW0NAQEhdNltDSDJdW0NASF00W0NIMl1bQ0BIXTVDNihbQ0gzXSlbQ0gzXQ==

>  <s_epik_cmdline>  (296) 
J2VwaWtfcHl0aG9uJywgJy1waHQnLCAnMi4wJywgJy1waCcsICc3LjAnLCAnLXRuJywgJzgnLCAnLW1hJywgJzIwMCcsICctaW1hZScsICc8aW5maWxlLm1hZT4nLCAnLW9tYWUnLCAnPG91dGZpbGUubWFlPic=

>  <r_lp_tautomer_probability>  (296) 
1

>  <r_epik_Ionization_Penalty>  (296) 
0.0814063

>  <r_epik_Ionization_Penalty_Charging>  (296) 
0.0738399

>  <r_epik_Ionization_Penalty_Neutral>  (296) 
0.00756642

>  <r_epik_State_Penalty>  (296) 
0.0731418

>  <r_epik_Charging_Adjusted_Penalty>  (296) 
0.146982

>  <i_epik_Tot_Q>  (296) 
2

>  <i_epik_Tot_abs_Q>  (296) 
2

>  <s_lp_Force_Field>  (296) 
OPLS3e

>  <r_lp_Energy>  (296) 
193.966

>  <b_lp_Chiralities_Consistent>  (296) 
1

>  <s_lp_Variant>  (296) 
97:0-1

>  <s_i_glide_gridfile>  (296) 
pfpi4k_grid

>  <i_i_glide_lignum>  (296) 
19

>  <i_i_glide_rotatable_bonds>  (296) 
4

>  <r_i_docking_score>  (296) 
-1.87503

>  <r_i_glide_ligand_efficiency>  (296) 
-0.0669653

>  <r_i_glide_ligand_efficiency_sa>  (296) 
-0.203346

>  <r_i_glide_ligand_efficiency_ln>  (296) 
-0.432811

>  <r_i_glide_gscore>  (296) 
-1.87503

>  <r_i_glide_lipo>  (296) 
-0.0123755

>  <r_i_glide_hbond>  (296) 
0

>  <r_i_glide_metal>  (296) 
-0

>  <r_i_glide_rewards>  (296) 
-0.79384

>  <r_i_glide_evdw>  (296) 
-17.8232

>  <r_i_glide_ecoul>  (296) 
-3.81899

>  <r_i_glide_erotb>  (296) 
0.396263

>  <r_i_glide_esite>  (296) 
-0.00106429

>  <r_i_glide_emodel>  (296) 
-23.6857

>  <r_i_glide_energy>  (296) 
-21.6422

>  <r_i_glide_einternal>  (296) 
2.92261

>  <r_i_glide_intrahb_reward>  (296) 
-0

>  <i_i_glide_confnum>  (296) 
1

>  <i_i_glide_posenum>  (296) 
1

>  <r_i_glide_eff_state_penalty>  (296) 
0

>  <ligand_id>  (296) 
97

>  <original_smiles>  (296) 
CN1CCN(CCN2C3Cc4ccc(O)cc4C24C2CC3C(C)(C)C4C2)CC1

>  <smiles>  (296) 
[H]Oc1c([H])c([H])c2c(c1[H])C13C4([H])C([H])([H])C([H])(C(C([H])([H])[H])(C([H])([H])[H])C1([H])C4([H])[H])C([H])(C2([H])[H])[N+]3([H])C([H])([H])C([H])([H])N1C([H])([H])C([H])([H])[N+]([H])(C([H])([H])[H])C([H])([H])C1([H])[H]

$$$$
97:0:2
     RDKit          3D

 65 70  0  0  1  0  0  0  0  0999 V2000
    2.4300  -12.2566    4.7741 C   0  0  0  0  0  0  0  0  0  0  0  0
    2.2830  -11.0196    3.9773 N   0  0  0  0  0  0  0  0  0  0  0  0
    3.5893  -10.4332    3.6002 C   0  0  0  0  0  0  0  0  0  0  0  0
    3.3879   -9.1649    2.7498 C   0  0  0  0  0  0  0  0  0  0  0  0
    2.5987   -8.1717    3.4997 N   0  0  0  0  0  0  0  0  0  0  0  0
    2.4418   -6.9442    2.7061 C   0  0  0  0  0  0  0  0  0  0  0  0
    2.0757   -5.6978    3.5526 C   0  0  0  0  0  0  0  0  0  0  0  0
    3.1572   -5.3203    4.5150 N   0  0  2  0  0  0  0  0  0  0  0  0
    3.0458   -5.8057    5.8634 C   0  0  2  0  0  0  0  0  0  0  0  0
    1.8118   -4.9691    6.4830 C   0  0  0  0  0  0  0  0  0  0  0  0
    1.4270   -3.6393    5.7264 C   0  0  0  0  0  0  0  0  0  0  0  0
    0.1726   -3.0164    5.8603 C   0  0  0  0  0  0  0  0  0  0  0  0
   -0.1482   -1.8894    5.0639 C   0  0  0  0  0  0  0  0  0  0  0  0
    0.7832   -1.3786    4.1186 C   0  0  0  0  0  0  0  0  0  0  0  0
    0.4343   -0.3114    3.3491 O   0  0  0  0  0  0  0  0  0  0  0  0
    2.0459   -1.9900    3.9723 C   0  0  0  0  0  0  0  0  0  0  0  0
    2.3572   -3.1002    4.7703 C   0  0  0  0  0  0  0  0  0  0  0  0
    3.6152   -3.9110    4.6646 C   0  0  1  0  0  0  0  0  0  0  0  0
    4.2096   -3.3782    6.0852 C   0  0  1  0  0  0  0  0  0  0  0  0
    4.5903   -4.3979    7.1549 C   0  0  0  0  0  0  0  0  0  0  0  0
    4.5697   -5.6870    6.3695 C   0  0  2  0  0  0  0  0  0  0  0  0
    5.6503   -5.4116    5.1839 C   0  0  0  0  0  0  0  0  0  0  0  0
    7.1108   -5.2994    5.6970 C   0  0  0  0  0  0  0  0  0  0  0  0
    5.7340   -6.5831    4.1675 C   0  0  0  0  0  0  0  0  0  0  0  0
    5.1652   -4.0588    4.4846 C   0  0  2  0  0  0  0  0  0  0  0  0
    5.3301   -2.7681    5.2616 C   0  0  0  0  0  0  0  0  0  0  0  0
    1.2821   -8.7540    3.7989 C   0  0  0  0  0  0  0  0  0  0  0  0
    1.4426  -10.0126    4.6680 C   0  0  0  0  0  0  0  0  0  0  0  0
    2.9160  -12.0689    5.7344 H   0  0  0  0  0  0  0  0  0  0  0  0
    3.0322  -13.0043    4.2601 H   0  0  0  0  0  0  0  0  0  0  0  0
    1.4479  -12.6843    4.9692 H   0  0  0  0  0  0  0  0  0  0  0  0
    4.1516  -10.2006    4.5057 H   0  0  0  0  0  0  0  0  0  0  0  0
    4.1708  -11.1692    3.0447 H   0  0  0  0  0  0  0  0  0  0  0  0
    4.3715   -8.7487    2.5238 H   0  0  0  0  0  0  0  0  0  0  0  0
    2.9200   -9.4096    1.7941 H   0  0  0  0  0  0  0  0  0  0  0  0
    3.3431   -6.7353    2.1231 H   0  0  0  0  0  0  0  0  0  0  0  0
    1.6835   -7.1007    1.9405 H   0  0  0  0  0  0  0  0  0  0  0  0
    1.9063   -4.8988    2.8398 H   0  0  0  0  0  0  0  0  0  0  0  0
    1.1242   -5.8347    4.0576 H   0  0  0  0  0  0  0  0  0  0  0  0
    2.7907   -6.8617    5.8761 H   0  0  0  0  0  0  0  0  0  0  0  0
    0.9252   -5.6004    6.4363 H   0  0  0  0  0  0  0  0  0  0  0  0
    1.9224   -4.7571    7.5406 H   0  0  0  0  0  0  0  0  0  0  0  0
   -0.5659   -3.4126    6.5486 H   0  0  0  0  0  0  0  0  0  0  0  0
   -1.1060   -1.4101    5.1538 H   0  0  0  0  0  0  0  0  0  0  0  0
    1.0795   -0.0535    2.7056 H   0  0  0  0  0  0  0  0  0  0  0  0
    2.7533   -1.6273    3.2342 H   0  0  0  0  0  0  0  0  0  0  0  0
    3.7143   -2.5155    6.5328 H   0  0  0  0  0  0  0  0  0  0  0  0
    5.5656   -4.1915    7.6033 H   0  0  0  0  0  0  0  0  0  0  0  0
    3.9152   -4.4179    8.0079 H   0  0  0  0  0  0  0  0  0  0  0  0
    4.8609   -6.5350    6.9843 H   0  0  0  0  0  0  0  0  0  0  0  0
    7.7959   -5.0777    4.8805 H   0  0  0  0  0  0  0  0  0  0  0  0
    7.4268   -6.2428    6.1360 H   0  0  0  0  0  0  0  0  0  0  0  0
    7.2740   -4.5231    6.4361 H   0  0  0  0  0  0  0  0  0  0  0  0
    6.6796   -6.5993    3.6280 H   0  0  0  0  0  0  0  0  0  0  0  0
    5.0021   -6.5280    3.3760 H   0  0  0  0  0  0  0  0  0  0  0  0
    5.6174   -7.5425    4.6664 H   0  0  0  0  0  0  0  0  0  0  0  0
    5.4698   -3.9155    3.4507 H   0  0  0  0  0  0  0  0  0  0  0  0
    5.0393   -1.8569    4.7343 H   0  0  0  0  0  0  0  0  0  0  0  0
    6.2794   -2.6740    5.7996 H   0  0  0  0  0  0  0  0  0  0  0  0
    0.6770   -8.0333    4.3506 H   0  0  0  0  0  0  0  0  0  0  0  0
    0.7446   -8.9899    2.8774 H   0  0  0  0  0  0  0  0  0  0  0  0
    0.4620  -10.4383    4.8853 H   0  0  0  0  0  0  0  0  0  0  0  0
    1.8953   -9.7569    5.6276 H   0  0  0  0  0  0  0  0  0  0  0  0
    3.9777   -5.8066    4.1695 H   0  0  0  0  0  0  0  0  0  0  0  0
    1.8142  -11.2623    3.1155 H   0  0  0  0  0  0  0  0  0  0  0  0
  1  2  1  0
  1 29  1  0
  1 30  1  0
  1 31  1  0
  2 28  1  0
  2  3  1  0
  2 65  1  0
  3  4  1  0
  3 32  1  0
  3 33  1  0
  4  5  1  0
  4 34  1  0
  4 35  1  0
  5  6  1  0
  5 27  1  0
  6  7  1  0
  6 36  1  0
  6 37  1  0
  7  8  1  0
  7 38  1  0
  7 39  1  0
  8 18  1  0
  8  9  1  0
  8 64  1  6
  9 21  1  0
  9 10  1  0
  9 40  1  6
 10 11  1  0
 10 41  1  0
 10 42  1  0
 11 17  2  0
 11 12  1  0
 12 13  2  0
 12 43  1  0
 13 14  1  0
 13 44  1  0
 14 15  1  0
 14 16  2  0
 15 45  1  0
 16 17  1  0
 16 46  1  0
 18 17  1  6
 18 25  1  0
 18 19  1  0
 19 26  1  0
 19 20  1  0
 19 47  1  1
 20 21  1  0
 20 48  1  0
 20 49  1  0
 21 22  1  0
 21 50  1  1
 22 23  1  0
 22 24  1  0
 22 25  1  0
 23 51  1  0
 23 52  1  0
 23 53  1  0
 24 54  1  0
 24 55  1  0
 24 56  1  0
 25 26  1  0
 25 57  1  6
 26 58  1  0
 26 59  1  0
 27 28  1  0
 27 60  1  0
 27 61  1  0
 28 62  1  0
 28 63  1  0
M  CHG  2   2   1   8   1
M  END
>  <i_m_ct_stereo_status>  (297) 
1

>  <s_m_source_file>  (297) 
/var/tmp/pbs.5076255.sched01/tmp4tnmxshi/11480k6dy83.sdf

>  <i_m_source_file_index>  (297) 
19

>  <i_lp_mmshare_version>  (297) 
48012

>  <i_f3d_flags>  (297) 
0

>  <s_epik_input>  (297) 
W0NIM11OMVtDSDJdW0NIMl1OKFtDSDJdW0NIMl0xKVtDSDJdW0NIMl1OMltDQEhdKFtDSDJdYyhjM0MyNDUpW2NIXVtjSF1jKFtPSF0pW2NIXTMpW0NAQEhdNltDSDJdW0NASF00W0NIMl1bQ0BIXTVDNihbQ0gzXSlbQ0gzXQ==

>  <s_epik_cmdline>  (297) 
J2VwaWtfcHl0aG9uJywgJy1waHQnLCAnMi4wJywgJy1waCcsICc3LjAnLCAnLXRuJywgJzgnLCAnLW1hJywgJzIwMCcsICctaW1hZScsICc8aW5maWxlLm1hZT4nLCAnLW9tYWUnLCAnPG91dGZpbGUubWFlPic=

>  <r_lp_tautomer_probability>  (297) 
1

>  <r_epik_Ionization_Penalty>  (297) 
0.0814063

>  <r_epik_Ionization_Penalty_Charging>  (297) 
0.0738399

>  <r_epik_Ionization_Penalty_Neutral>  (297) 
0.00756642

>  <r_epik_State_Penalty>  (297) 
0.0731418

>  <r_epik_Charging_Adjusted_Penalty>  (297) 
0.146982

>  <i_epik_Tot_Q>  (297) 
2

>  <i_epik_Tot_abs_Q>  (297) 
2

>  <s_lp_Force_Field>  (297) 
OPLS3e

>  <r_lp_Energy>  (297) 
193.966

>  <b_lp_Chiralities_Consistent>  (297) 
1

>  <s_lp_Variant>  (297) 
97:0-1

>  <s_i_glide_gridfile>  (297) 
pfpi4k_grid

>  <i_i_glide_lignum>  (297) 
19

>  <i_i_glide_rotatable_bonds>  (297) 
4

>  <r_i_docking_score>  (297) 
-1.76616

>  <r_i_glide_ligand_efficiency>  (297) 
-0.0630771

>  <r_i_glide_ligand_efficiency_sa>  (297) 
-0.191539

>  <r_i_glide_ligand_efficiency_ln>  (297) 
-0.407681

>  <r_i_glide_gscore>  (297) 
-1.76616

>  <r_i_glide_lipo>  (297) 
-0.0498232

>  <r_i_glide_hbond>  (297) 
0

>  <r_i_glide_metal>  (297) 
-0

>  <r_i_glide_rewards>  (297) 
-0.79384

>  <r_i_glide_evdw>  (297) 
-13.643

>  <r_i_glide_ecoul>  (297) 
-4.19289

>  <r_i_glide_erotb>  (297) 
0.396263

>  <r_i_glide_esite>  (297) 
-0.00767551

>  <r_i_glide_emodel>  (297) 
-19.9035

>  <r_i_glide_energy>  (297) 
-17.8359

>  <r_i_glide_einternal>  (297) 
2.39057

>  <r_i_glide_intrahb_reward>  (297) 
-0

>  <i_i_glide_confnum>  (297) 
1

>  <i_i_glide_posenum>  (297) 
32

>  <r_i_glide_eff_state_penalty>  (297) 
0

>  <ligand_id>  (297) 
97

>  <original_smiles>  (297) 
CN1CCN(CCN2C3Cc4ccc(O)cc4C24C2CC3C(C)(C)C4C2)CC1

>  <smiles>  (297) 
[H]Oc1c([H])c([H])c2c(c1[H])C13C4([H])C([H])([H])C([H])(C(C([H])([H])[H])(C([H])([H])[H])C1([H])C4([H])[H])C([H])(C2([H])[H])[N+]3([H])C([H])([H])C([H])([H])N1C([H])([H])C([H])([H])[N+]([H])(C([H])([H])[H])C([H])([H])C1([H])[H]

$$$$
97:1:0
     RDKit          3D

 64 69  0  0  1  0  0  0  0  0999 V2000
   -1.1464   -7.1280    4.3705 C   0  0  0  0  0  0  0  0  0  0  0  0
   -0.3263   -7.7804    3.3653 N   0  0  0  0  0  0  0  0  0  0  0  0
   -0.0475   -9.1726    3.7305 C   0  0  0  0  0  0  0  0  0  0  0  0
    0.8274   -9.8774    2.6766 C   0  0  0  0  0  0  0  0  0  0  0  0
    2.0854   -9.1535    2.4577 N   0  0  0  0  0  0  0  0  0  0  0  0
    3.0107   -9.8367    1.5461 C   0  0  0  0  0  0  0  0  0  0  0  0
    4.4800   -9.3499    1.6167 C   0  0  0  0  0  0  0  0  0  0  0  0
    5.1758   -9.7830    2.8806 N   0  0  2  0  0  0  0  0  0  0  0  0
    4.5961   -9.4530    4.1674 C   0  0  2  0  0  0  0  0  0  0  0  0
    4.7713   -7.8460    4.2624 C   0  0  0  0  0  0  0  0  0  0  0  0
    5.8733   -7.2062    3.3252 C   0  0  0  0  0  0  0  0  0  0  0  0
    5.8781   -5.8424    2.9709 C   0  0  0  0  0  0  0  0  0  0  0  0
    6.8229   -5.3539    2.0347 C   0  0  0  0  0  0  0  0  0  0  0  0
    7.7727   -6.2269    1.4482 C   0  0  0  0  0  0  0  0  0  0  0  0
    8.6817   -5.7625    0.5480 O   0  0  0  0  0  0  0  0  0  0  0  0
    7.7762   -7.5943    1.7824 C   0  0  0  0  0  0  0  0  0  0  0  0
    6.8304   -8.0702    2.7015 C   0  0  0  0  0  0  0  0  0  0  0  0
    6.6376   -9.5098    3.0905 C   0  0  1  0  0  0  0  0  0  0  0  0
    7.2493   -9.3035    4.5965 C   0  0  1  0  0  0  0  0  0  0  0  0
    6.3929   -9.7123    5.7956 C   0  0  0  0  0  0  0  0  0  0  0  0
    5.3133  -10.5181    5.1278 C   0  0  2  0  0  0  0  0  0  0  0  0
    6.1125  -11.6958    4.3447 C   0  0  0  0  0  0  0  0  0  0  0  0
    6.7743  -12.7020    5.3258 C   0  0  0  0  0  0  0  0  0  0  0  0
    5.1710  -12.5903    3.4783 C   0  0  0  0  0  0  0  0  0  0  0  0
    7.1905  -10.9341    3.4402 C   0  0  2  0  0  0  0  0  0  0  0  0
    8.3438  -10.2672    4.1703 C   0  0  0  0  0  0  0  0  0  0  0  0
    1.7933   -7.7686    2.0909 C   0  0  0  0  0  0  0  0  0  0  0  0
    0.9367   -7.0799    3.1656 C   0  0  0  0  0  0  0  0  0  0  0  0
   -0.6583   -7.1215    5.3475 H   0  0  0  0  0  0  0  0  0  0  0  0
   -2.1066   -7.6373    4.4658 H   0  0  0  0  0  0  0  0  0  0  0  0
   -1.3442   -6.0973    4.0838 H   0  0  0  0  0  0  0  0  0  0  0  0
    0.4521   -9.2125    4.6992 H   0  0  0  0  0  0  0  0  0  0  0  0
   -0.9816   -9.7166    3.8425 H   0  0  0  0  0  0  0  0  0  0  0  0
    1.0459  -10.8863    3.0211 H   0  0  0  0  0  0  0  0  0  0  0  0
    0.2739   -9.9892    1.7445 H   0  0  0  0  0  0  0  0  0  0  0  0
    2.9925  -10.9092    1.7426 H   0  0  0  0  0  0  0  0  0  0  0  0
    2.6550   -9.7176    0.5243 H   0  0  0  0  0  0  0  0  0  0  0  0
    5.0161   -9.8111    0.7899 H   0  0  0  0  0  0  0  0  0  0  0  0
    4.5275   -8.2792    1.4263 H   0  0  0  0  0  0  0  0  0  0  0  0
    3.5532   -9.7326    4.2917 H   0  0  0  0  0  0  0  0  0  0  0  0
    3.8323   -7.4008    3.9456 H   0  0  0  0  0  0  0  0  0  0  0  0
    4.8908   -7.4818    5.2779 H   0  0  0  0  0  0  0  0  0  0  0  0
    5.1398   -5.1650    3.3850 H   0  0  0  0  0  0  0  0  0  0  0  0
    6.8245   -4.3067    1.7660 H   0  0  0  0  0  0  0  0  0  0  0  0
    9.2996   -6.4486    0.3300 H   0  0  0  0  0  0  0  0  0  0  0  0
    8.4803   -8.2525    1.3106 H   0  0  0  0  0  0  0  0  0  0  0  0
    7.7602   -8.3562    4.7968 H   0  0  0  0  0  0  0  0  0  0  0  0
    6.9408  -10.2845    6.5427 H   0  0  0  0  0  0  0  0  0  0  0  0
    5.9882   -8.8723    6.3531 H   0  0  0  0  0  0  0  0  0  0  0  0
    4.5994  -10.9217    5.8499 H   0  0  0  0  0  0  0  0  0  0  0  0
    7.3483  -13.4509    4.7800 H   0  0  0  0  0  0  0  0  0  0  0  0
    6.0099  -13.2230    5.9071 H   0  0  0  0  0  0  0  0  0  0  0  0
    7.4609  -12.2529    6.0376 H   0  0  0  0  0  0  0  0  0  0  0  0
    5.6171  -13.5663    3.2827 H   0  0  0  0  0  0  0  0  0  0  0  0
    4.9380  -12.2039    2.4899 H   0  0  0  0  0  0  0  0  0  0  0  0
    4.2252  -12.7726    3.9917 H   0  0  0  0  0  0  0  0  0  0  0  0
    7.5474  -11.4912    2.5690 H   0  0  0  0  0  0  0  0  0  0  0  0
    9.0968   -9.7956    3.5387 H   0  0  0  0  0  0  0  0  0  0  0  0
    8.7834  -10.8429    4.9927 H   0  0  0  0  0  0  0  0  0  0  0  0
    2.7175   -7.2043    1.9914 H   0  0  0  0  0  0  0  0  0  0  0  0
    1.2985   -7.7267    1.1161 H   0  0  0  0  0  0  0  0  0  0  0  0
    0.7499   -6.0519    2.8648 H   0  0  0  0  0  0  0  0  0  0  0  0
    1.4864   -7.0333    4.1060 H   0  0  0  0  0  0  0  0  0  0  0  0
    5.1121  -10.7938    2.8484 H   0  0  0  0  0  0  0  0  0  0  0  0
  1  2  1  0
  1 29  1  0
  1 30  1  0
  1 31  1  0
  2 28  1  0
  2  3  1  0
  3  4  1  0
  3 32  1  0
  3 33  1  0
  4  5  1  0
  4 34  1  0
  4 35  1  0
  5  6  1  0
  5 27  1  0
  6  7  1  0
  6 36  1  0
  6 37  1  0
  7  8  1  0
  7 38  1  0
  7 39  1  0
  8 18  1  0
  8  9  1  0
  8 64  1  6
  9 21  1  0
  9 10  1  0
  9 40  1  6
 10 11  1  0
 10 41  1  0
 10 42  1  0
 11 17  2  0
 11 12  1  0
 12 13  2  0
 12 43  1  0
 13 14  1  0
 13 44  1  0
 14 15  1  0
 14 16  2  0
 15 45  1  0
 16 17  1  0
 16 46  1  0
 18 17  1  6
 18 25  1  0
 18 19  1  0
 19 26  1  0
 19 20  1  0
 19 47  1  1
 20 21  1  0
 20 48  1  0
 20 49  1  0
 21 22  1  0
 21 50  1  1
 22 23  1  0
 22 24  1  0
 22 25  1  0
 23 51  1  0
 23 52  1  0
 23 53  1  0
 24 54  1  0
 24 55  1  0
 24 56  1  0
 25 26  1  0
 25 57  1  6
 26 58  1  0
 26 59  1  0
 27 28  1  0
 27 60  1  0
 27 61  1  0
 28 62  1  0
 28 63  1  0
M  CHG  1   8   1
M  END
>  <i_m_ct_stereo_status>  (298) 
1

>  <s_m_source_file>  (298) 
/var/tmp/pbs.5076255.sched01/tmp4tnmxshi/11480k6dy83.sdf

>  <i_m_source_file_index>  (298) 
20

>  <i_lp_mmshare_version>  (298) 
48012

>  <i_f3d_flags>  (298) 
0

>  <s_epik_input>  (298) 
W0NIM11OMVtDSDJdW0NIMl1OKFtDSDJdW0NIMl0xKVtDSDJdW0NIMl1OMltDQEhdKFtDSDJdYyhjM0MyNDUpW2NIXVtjSF1jKFtPSF0pW2NIXTMpW0NAQEhdNltDSDJdW0NASF00W0NIMl1bQ0BIXTVDNihbQ0gzXSlbQ0gzXQ==

>  <s_epik_cmdline>  (298) 
J2VwaWtfcHl0aG9uJywgJy1waHQnLCAnMi4wJywgJy1waCcsICc3LjAnLCAnLXRuJywgJzgnLCAnLW1hJywgJzIwMCcsICctaW1hZScsICc8aW5maWxlLm1hZT4nLCAnLW9tYWUnLCAnPG91dGZpbGUubWFlPic=

>  <r_lp_tautomer_probability>  (298) 
1

>  <r_epik_Ionization_Penalty>  (298) 
1.48063

>  <r_epik_Ionization_Penalty_Charging>  (298) 
0.014029

>  <r_epik_Ionization_Penalty_Neutral>  (298) 
1.4666

>  <r_epik_State_Penalty>  (298) 
1.54963

>  <r_epik_Charging_Adjusted_Penalty>  (298) 
1.56366

>  <i_epik_Tot_Q>  (298) 
1

>  <i_epik_Tot_abs_Q>  (298) 
1

>  <s_lp_Force_Field>  (298) 
OPLS3e

>  <r_lp_Energy>  (298) 
185.912

>  <b_lp_Chiralities_Consistent>  (298) 
1

>  <s_lp_Variant>  (298) 
97:0-2

>  <s_i_glide_gridfile>  (298) 
pfpi4k_grid

>  <i_i_glide_lignum>  (298) 
20

>  <i_i_glide_rotatable_bonds>  (298) 
4

>  <r_i_docking_score>  (298) 
-2.45403

>  <r_i_glide_ligand_efficiency>  (298) 
-0.0876438

>  <r_i_glide_ligand_efficiency_sa>  (298) 
-0.266138

>  <r_i_glide_ligand_efficiency_ln>  (298) 
-0.566461

>  <r_i_glide_gscore>  (298) 
-2.45403

>  <r_i_glide_lipo>  (298) 
-0.246211

>  <r_i_glide_hbond>  (298) 
-0.0549976

>  <r_i_glide_metal>  (298) 
-0

>  <r_i_glide_rewards>  (298) 
-0.800713

>  <r_i_glide_evdw>  (298) 
-21.0161

>  <r_i_glide_ecoul>  (298) 
-4.49825

>  <r_i_glide_erotb>  (298) 
0.398137

>  <r_i_glide_esite>  (298) 
-0.0246966

>  <r_i_glide_emodel>  (298) 
-29.0934

>  <r_i_glide_energy>  (298) 
-25.5144

>  <r_i_glide_einternal>  (298) 
1.30949

>  <r_i_glide_intrahb_reward>  (298) 
-0

>  <i_i_glide_confnum>  (298) 
2

>  <i_i_glide_posenum>  (298) 
30

>  <r_i_glide_eff_state_penalty>  (298) 
0

>  <ligand_id>  (298) 
97

>  <original_smiles>  (298) 
CN1CCN(CCN2C3Cc4ccc(O)cc4C24C2CC3C(C)(C)C4C2)CC1

>  <smiles>  (298) 
[H]Oc1c([H])c([H])c2c(c1[H])C13C4([H])C([H])([H])C([H])(C(C([H])([H])[H])(C([H])([H])[H])C1([H])C4([H])[H])C([H])(C2([H])[H])[N+]3([H])C([H])([H])C([H])([H])N1C([H])([H])C([H])([H])N(C([H])([H])[H])C([H])([H])C1([H])[H]

$$$$
97:1:1
     RDKit          3D

 64 69  0  0  1  0  0  0  0  0999 V2000
   -1.6298   -7.8736    4.1567 C   0  0  0  0  0  0  0  0  0  0  0  0
   -0.6670   -8.3476    3.1832 N   0  0  0  0  0  0  0  0  0  0  0  0
    0.1125   -9.4726    3.7058 C   0  0  0  0  0  0  0  0  0  0  0  0
    1.1428   -9.9815    2.6764 C   0  0  0  0  0  0  0  0  0  0  0  0
    2.0472   -8.9016    2.2494 N   0  0  0  0  0  0  0  0  0  0  0  0
    3.1048   -9.3486    1.3278 C   0  0  0  0  0  0  0  0  0  0  0  0
    4.2086   -8.2948    1.0196 C   0  0  0  0  0  0  0  0  0  0  0  0
    5.1894   -8.1069    2.1463 N   0  0  2  0  0  0  0  0  0  0  0  0
    4.7158   -7.9993    3.5098 C   0  0  2  0  0  0  0  0  0  0  0  0
    3.9963   -6.5540    3.5665 C   0  0  0  0  0  0  0  0  0  0  0  0
    4.3870   -5.5376    2.4218 C   0  0  0  0  0  0  0  0  0  0  0  0
    3.5777   -4.4496    2.0497 C   0  0  0  0  0  0  0  0  0  0  0  0
    3.9333   -3.6378    0.9453 C   0  0  0  0  0  0  0  0  0  0  0  0
    5.1052   -3.9148    0.1976 C   0  0  0  0  0  0  0  0  0  0  0  0
    5.4367   -3.1354   -0.8721 O   0  0  0  0  0  0  0  0  0  0  0  0
    5.9233   -5.0072    0.5479 C   0  0  0  0  0  0  0  0  0  0  0  0
    5.5615   -5.8060    1.6388 C   0  0  0  0  0  0  0  0  0  0  0  0
    6.2634   -7.0663    2.0708 C   0  0  1  0  0  0  0  0  0  0  0  0
    6.8656   -6.3898    3.4280 C   0  0  1  0  0  0  0  0  0  0  0  0
    6.5692   -7.0564    4.7753 C   0  0  0  0  0  0  0  0  0  0  0  0
    6.0298   -8.3898    4.3355 C   0  0  2  0  0  0  0  0  0  0  0  0
    7.2268   -9.0265    3.4376 C   0  0  0  0  0  0  0  0  0  0  0  0
    8.4738   -9.3813    4.2893 C   0  0  0  0  0  0  0  0  0  0  0  0
    6.8259  -10.3807    2.7755 C   0  0  0  0  0  0  0  0  0  0  0  0
    7.5556   -7.9093    2.3364 C   0  0  2  0  0  0  0  0  0  0  0  0
    8.2316   -6.6404    2.8170 C   0  0  0  0  0  0  0  0  0  0  0  0
    1.2396   -7.7905    1.7372 C   0  0  0  0  0  0  0  0  0  0  0  0
    0.2403   -7.2910    2.7838 C   0  0  0  0  0  0  0  0  0  0  0  0
   -1.1404   -7.5414    5.0745 H   0  0  0  0  0  0  0  0  0  0  0  0
   -2.3213   -8.6759    4.4060 H   0  0  0  0  0  0  0  0  0  0  0  0
   -2.2061   -7.0413    3.7525 H   0  0  0  0  0  0  0  0  0  0  0  0
    0.6276   -9.1817    4.6232 H   0  0  0  0  0  0  0  0  0  0  0  0
   -0.5583  -10.2831    3.9732 H   0  0  0  0  0  0  0  0  0  0  0  0
    1.7211  -10.7913    3.1204 H   0  0  0  0  0  0  0  0  0  0  0  0
    0.6207  -10.4063    1.8182 H   0  0  0  0  0  0  0  0  0  0  0  0
    3.5704  -10.2544    1.7209 H   0  0  0  0  0  0  0  0  0  0  0  0
    2.6423   -9.6620    0.3963 H   0  0  0  0  0  0  0  0  0  0  0  0
    4.7726   -8.6498    0.1627 H   0  0  0  0  0  0  0  0  0  0  0  0
    3.7687   -7.3707    0.6647 H   0  0  0  0  0  0  0  0  0  0  0  0
    4.0264   -8.7896    3.7941 H   0  0  0  0  0  0  0  0  0  0  0  0
    2.9341   -6.7095    3.4597 H   0  0  0  0  0  0  0  0  0  0  0  0
    4.0546   -6.0665    4.5324 H   0  0  0  0  0  0  0  0  0  0  0  0
    2.6587   -4.2381    2.5831 H   0  0  0  0  0  0  0  0  0  0  0  0
    3.3082   -2.8028    0.6675 H   0  0  0  0  0  0  0  0  0  0  0  0
    4.7838   -2.4793   -1.0732 H   0  0  0  0  0  0  0  0  0  0  0  0
    6.8060   -5.2428   -0.0348 H   0  0  0  0  0  0  0  0  0  0  0  0
    6.7834   -5.3059    3.5177 H   0  0  0  0  0  0  0  0  0  0  0  0
    7.4487   -7.1434    5.4119 H   0  0  0  0  0  0  0  0  0  0  0  0
    5.8597   -6.5089    5.3908 H   0  0  0  0  0  0  0  0  0  0  0  0
    5.7817   -9.0266    5.1852 H   0  0  0  0  0  0  0  0  0  0  0  0
    9.2838   -9.7523    3.6630 H   0  0  0  0  0  0  0  0  0  0  0  0
    8.2288  -10.1590    5.0113 H   0  0  0  0  0  0  0  0  0  0  0  0
    8.8911   -8.5488    4.8460 H   0  0  0  0  0  0  0  0  0  0  0  0
    7.7004  -10.9781    2.5218 H   0  0  0  0  0  0  0  0  0  0  0  0
    6.2701  -10.3038    1.8435 H   0  0  0  0  0  0  0  0  0  0  0  0
    6.2299  -10.9797    3.4600 H   0  0  0  0  0  0  0  0  0  0  0  0
    8.0255   -8.2700    1.4212 H   0  0  0  0  0  0  0  0  0  0  0  0
    8.4925   -5.9220    2.0346 H   0  0  0  0  0  0  0  0  0  0  0  0
    9.0358   -6.7839    3.5448 H   0  0  0  0  0  0  0  0  0  0  0  0
    1.8618   -6.9369    1.4889 H   0  0  0  0  0  0  0  0  0  0  0  0
    0.7263   -8.0820    0.8237 H   0  0  0  0  0  0  0  0  0  0  0  0
   -0.3145   -6.4623    2.3556 H   0  0  0  0  0  0  0  0  0  0  0  0
    0.7574   -6.9033    3.6618 H   0  0  0  0  0  0  0  0  0  0  0  0
    5.6938   -8.9804    2.1693 H   0  0  0  0  0  0  0  0  0  0  0  0
  1  2  1  0
  1 29  1  0
  1 30  1  0
  1 31  1  0
  2 28  1  0
  2  3  1  0
  3  4  1  0
  3 32  1  0
  3 33  1  0
  4  5  1  0
  4 34  1  0
  4 35  1  0
  5  6  1  0
  5 27  1  0
  6  7  1  0
  6 36  1  0
  6 37  1  0
  7  8  1  0
  7 38  1  0
  7 39  1  0
  8 18  1  0
  8  9  1  0
  8 64  1  1
  9 21  1  0
  9 10  1  0
  9 40  1  6
 10 11  1  0
 10 41  1  0
 10 42  1  0
 11 17  2  0
 11 12  1  0
 12 13  2  0
 12 43  1  0
 13 14  1  0
 13 44  1  0
 14 15  1  0
 14 16  2  0
 15 45  1  0
 16 17  1  0
 16 46  1  0
 18 17  1  6
 18 25  1  0
 18 19  1  0
 19 26  1  0
 19 20  1  0
 19 47  1  1
 20 21  1  0
 20 48  1  0
 20 49  1  0
 21 22  1  0
 21 50  1  1
 22 23  1  0
 22 24  1  0
 22 25  1  0
 23 51  1  0
 23 52  1  0
 23 53  1  0
 24 54  1  0
 24 55  1  0
 24 56  1  0
 25 26  1  0
 25 57  1  6
 26 58  1  0
 26 59  1  0
 27 28  1  0
 27 60  1  0
 27 61  1  0
 28 62  1  0
 28 63  1  0
M  CHG  1   8   1
M  END
>  <i_m_ct_stereo_status>  (299) 
1

>  <s_m_source_file>  (299) 
/var/tmp/pbs.5076255.sched01/tmp4tnmxshi/11480k6dy83.sdf

>  <i_m_source_file_index>  (299) 
20

>  <i_lp_mmshare_version>  (299) 
48012

>  <i_f3d_flags>  (299) 
0

>  <s_epik_input>  (299) 
W0NIM11OMVtDSDJdW0NIMl1OKFtDSDJdW0NIMl0xKVtDSDJdW0NIMl1OMltDQEhdKFtDSDJdYyhjM0MyNDUpW2NIXVtjSF1jKFtPSF0pW2NIXTMpW0NAQEhdNltDSDJdW0NASF00W0NIMl1bQ0BIXTVDNihbQ0gzXSlbQ0gzXQ==

>  <s_epik_cmdline>  (299) 
J2VwaWtfcHl0aG9uJywgJy1waHQnLCAnMi4wJywgJy1waCcsICc3LjAnLCAnLXRuJywgJzgnLCAnLW1hJywgJzIwMCcsICctaW1hZScsICc8aW5maWxlLm1hZT4nLCAnLW9tYWUnLCAnPG91dGZpbGUubWFlPic=

>  <r_lp_tautomer_probability>  (299) 
1

>  <r_epik_Ionization_Penalty>  (299) 
1.48063

>  <r_epik_Ionization_Penalty_Charging>  (299) 
0.014029

>  <r_epik_Ionization_Penalty_Neutral>  (299) 
1.4666

>  <r_epik_State_Penalty>  (299) 
1.54963

>  <r_epik_Charging_Adjusted_Penalty>  (299) 
1.56366

>  <i_epik_Tot_Q>  (299) 
1

>  <i_epik_Tot_abs_Q>  (299) 
1

>  <s_lp_Force_Field>  (299) 
OPLS3e

>  <r_lp_Energy>  (299) 
185.912

>  <b_lp_Chiralities_Consistent>  (299) 
1

>  <s_lp_Variant>  (299) 
97:0-2

>  <s_i_glide_gridfile>  (299) 
pfpi4k_grid

>  <i_i_glide_lignum>  (299) 
20

>  <i_i_glide_rotatable_bonds>  (299) 
4

>  <r_i_docking_score>  (299) 
-2.18873

>  <r_i_glide_ligand_efficiency>  (299) 
-0.0781688

>  <r_i_glide_ligand_efficiency_sa>  (299) 
-0.237366

>  <r_i_glide_ligand_efficiency_ln>  (299) 
-0.505222

>  <r_i_glide_gscore>  (299) 
-2.18873

>  <r_i_glide_lipo>  (299) 
-0.470466

>  <r_i_glide_hbond>  (299) 
0

>  <r_i_glide_metal>  (299) 
-0

>  <r_i_glide_rewards>  (299) 
-0.800713

>  <r_i_glide_evdw>  (299) 
-23.4719

>  <r_i_glide_ecoul>  (299) 
-0.947251

>  <r_i_glide_erotb>  (299) 
0.398137

>  <r_i_glide_esite>  (299) 
0

>  <r_i_glide_emodel>  (299) 
-26.9473

>  <r_i_glide_energy>  (299) 
-24.4192

>  <r_i_glide_einternal>  (299) 
2.28033

>  <r_i_glide_intrahb_reward>  (299) 
-0

>  <i_i_glide_confnum>  (299) 
2

>  <i_i_glide_posenum>  (299) 
7

>  <r_i_glide_eff_state_penalty>  (299) 
0

>  <ligand_id>  (299) 
97

>  <original_smiles>  (299) 
CN1CCN(CCN2C3Cc4ccc(O)cc4C24C2CC3C(C)(C)C4C2)CC1

>  <smiles>  (299) 
[H]Oc1c([H])c([H])c2c(c1[H])C13C4([H])C([H])([H])C([H])(C(C([H])([H])[H])(C([H])([H])[H])C1([H])C4([H])[H])C([H])(C2([H])[H])[N+]3([H])C([H])([H])C([H])([H])N1C([H])([H])C([H])([H])N(C([H])([H])[H])C([H])([H])C1([H])[H]

$$$$
97:1:2
     RDKit          3D

 64 69  0  0  1  0  0  0  0  0999 V2000
   -1.6180   -7.8836    3.8358 C   0  0  0  0  0  0  0  0  0  0  0  0
   -0.5926   -8.3588    2.9248 N   0  0  0  0  0  0  0  0  0  0  0  0
    0.1806   -9.4548    3.5129 C   0  0  0  0  0  0  0  0  0  0  0  0
    1.2757   -9.9595    2.5494 C   0  0  0  0  0  0  0  0  0  0  0  0
    2.1838   -8.8709    2.1437 N   0  0  0  0  0  0  0  0  0  0  0  0
    3.2938   -9.3197    1.2850 C   0  0  0  0  0  0  0  0  0  0  0  0
    4.4014   -8.2580    1.0383 C   0  0  0  0  0  0  0  0  0  0  0  0
    5.3099   -8.0514    2.2222 N   0  0  2  0  0  0  0  0  0  0  0  0
    4.7487   -7.9094    3.5498 C   0  0  2  0  0  0  0  0  0  0  0  0
    4.0363   -6.4601    3.5196 C   0  0  0  0  0  0  0  0  0  0  0  0
    4.5159   -5.4701    2.3855 C   0  0  0  0  0  0  0  0  0  0  0  0
    3.7463   -4.3830    1.9357 C   0  0  0  0  0  0  0  0  0  0  0  0
    4.1898   -3.5992    0.8423 C   0  0  0  0  0  0  0  0  0  0  0  0
    5.4071   -3.9050    0.1804 C   0  0  0  0  0  0  0  0  0  0  0  0
    5.8098   -3.1411   -0.8772 O   0  0  0  0  0  0  0  0  0  0  0  0
    6.1847   -5.0007    0.6065 C   0  0  0  0  0  0  0  0  0  0  0  0
    5.7405   -5.7684    1.6907 C   0  0  0  0  0  0  0  0  0  0  0  0
    6.3972   -7.0217    2.1976 C   0  0  1  0  0  0  0  0  0  0  0  0
    6.9130   -6.3212    3.5775 C   0  0  1  0  0  0  0  0  0  0  0  0
    6.5199   -6.9527    4.9155 C   0  0  0  0  0  0  0  0  0  0  0  0
    6.0006   -8.2911    4.4704 C   0  0  2  0  0  0  0  0  0  0  0  0
    7.2488   -8.9557    3.6681 C   0  0  0  0  0  0  0  0  0  0  0  0
    8.4349   -9.3027    4.6051 C   0  0  0  0  0  0  0  0  0  0  0  0
    6.8834  -10.3212    3.0099 C   0  0  0  0  0  0  0  0  0  0  0  0
    7.6611   -7.8664    2.5695 C   0  0  2  0  0  0  0  0  0  0  0  0
    8.3148   -6.5923    3.0659 C   0  0  0  0  0  0  0  0  0  0  0  0
    1.3840   -7.7879    1.5627 C   0  0  0  0  0  0  0  0  0  0  0  0
    0.3156   -7.2918    2.5440 C   0  0  0  0  0  0  0  0  0  0  0  0
   -1.1870   -7.5235    4.7731 H   0  0  0  0  0  0  0  0  0  0  0  0
   -2.3131   -8.6902    4.0673 H   0  0  0  0  0  0  0  0  0  0  0  0
   -2.1872   -7.0712    3.3833 H   0  0  0  0  0  0  0  0  0  0  0  0
    0.6426   -9.1361    4.4471 H   0  0  0  0  0  0  0  0  0  0  0  0
   -0.4838  -10.2795    3.7561 H   0  0  0  0  0  0  0  0  0  0  0  0
    1.8499  -10.7518    3.0359 H   0  0  0  0  0  0  0  0  0  0  0  0
    0.7983  -10.4075    1.6805 H   0  0  0  0  0  0  0  0  0  0  0  0
    3.7398  -10.2246    1.7041 H   0  0  0  0  0  0  0  0  0  0  0  0
    2.8892   -9.6386    0.3288 H   0  0  0  0  0  0  0  0  0  0  0  0
    5.0218   -8.6076    0.2219 H   0  0  0  0  0  0  0  0  0  0  0  0
    3.9737   -7.3414    0.6502 H   0  0  0  0  0  0  0  0  0  0  0  0
    4.0394   -8.6884    3.8087 H   0  0  0  0  0  0  0  0  0  0  0  0
    2.9818   -6.6122    3.3385 H   0  0  0  0  0  0  0  0  0  0  0  0
    4.0299   -5.9526    4.4768 H   0  0  0  0  0  0  0  0  0  0  0  0
    2.7927   -4.1509    2.4010 H   0  0  0  0  0  0  0  0  0  0  0  0
    3.5988   -2.7642    0.4989 H   0  0  0  0  0  0  0  0  0  0  0  0
    6.5861   -3.4665   -1.3097 H   0  0  0  0  0  0  0  0  0  0  0  0
    7.1007   -5.2671    0.0893 H   0  0  0  0  0  0  0  0  0  0  0  0
    6.8304   -5.2371    3.6379 H   0  0  0  0  0  0  0  0  0  0  0  0
    7.3545   -7.0329    5.6117 H   0  0  0  0  0  0  0  0  0  0  0  0
    5.7746   -6.3864    5.4699 H   0  0  0  0  0  0  0  0  0  0  0  0
    5.6905   -8.9072    5.3130 H   0  0  0  0  0  0  0  0  0  0  0  0
    9.2781   -9.6926    4.0348 H   0  0  0  0  0  0  0  0  0  0  0  0
    8.1357  -10.0617    5.3261 H   0  0  0  0  0  0  0  0  0  0  0  0
    8.8212   -8.4626    5.1725 H   0  0  0  0  0  0  0  0  0  0  0  0
    7.7719  -10.9251    2.8311 H   0  0  0  0  0  0  0  0  0  0  0  0
    6.3926  -10.2613    2.0403 H   0  0  0  0  0  0  0  0  0  0  0  0
    6.2379  -10.9011    3.6646 H   0  0  0  0  0  0  0  0  0  0  0  0
    8.1855   -8.2494    1.6973 H   0  0  0  0  0  0  0  0  0  0  0  0
    8.6362   -5.8937    2.2892 H   0  0  0  0  0  0  0  0  0  0  0  0
    9.0649   -6.7280    3.8505 H   0  0  0  0  0  0  0  0  0  0  0  0
    2.0035   -6.9278    1.3360 H   0  0  0  0  0  0  0  0  0  0  0  0
    0.9475   -8.1027    0.6164 H   0  0  0  0  0  0  0  0  0  0  0  0
   -0.2323   -6.4843    2.0689 H   0  0  0  0  0  0  0  0  0  0  0  0
    0.7811   -6.8733    3.4376 H   0  0  0  0  0  0  0  0  0  0  0  0
    5.8046   -8.9286    2.2977 H   0  0  0  0  0  0  0  0  0  0  0  0
  1  2  1  0
  1 29  1  0
  1 30  1  0
  1 31  1  0
  2 28  1  0
  2  3  1  0
  3  4  1  0
  3 32  1  0
  3 33  1  0
  4  5  1  0
  4 34  1  0
  4 35  1  0
  5  6  1  0
  5 27  1  0
  6  7  1  0
  6 36  1  0
  6 37  1  0
  7  8  1  0
  7 38  1  0
  7 39  1  0
  8 18  1  0
  8  9  1  0
  8 64  1  1
  9 21  1  0
  9 10  1  0
  9 40  1  6
 10 11  1  0
 10 41  1  0
 10 42  1  0
 11 17  2  0
 11 12  1  0
 12 13  2  0
 12 43  1  0
 13 14  1  0
 13 44  1  0
 14 15  1  0
 14 16  2  0
 15 45  1  0
 16 17  1  0
 16 46  1  0
 18 17  1  6
 18 25  1  0
 18 19  1  0
 19 26  1  0
 19 20  1  0
 19 47  1  1
 20 21  1  0
 20 48  1  0
 20 49  1  0
 21 22  1  0
 21 50  1  1
 22 23  1  0
 22 24  1  0
 22 25  1  0
 23 51  1  0
 23 52  1  0
 23 53  1  0
 24 54  1  0
 24 55  1  0
 24 56  1  0
 25 26  1  0
 25 57  1  6
 26 58  1  0
 26 59  1  0
 27 28  1  0
 27 60  1  0
 27 61  1  0
 28 62  1  0
 28 63  1  0
M  CHG  1   8   1
M  END
>  <i_m_ct_stereo_status>  (300) 
1

>  <s_m_source_file>  (300) 
/var/tmp/pbs.5076255.sched01/tmp4tnmxshi/11480k6dy83.sdf

>  <i_m_source_file_index>  (300) 
20

>  <i_lp_mmshare_version>  (300) 
48012

>  <i_f3d_flags>  (300) 
0

>  <s_epik_input>  (300) 
W0NIM11OMVtDSDJdW0NIMl1OKFtDSDJdW0NIMl0xKVtDSDJdW0NIMl1OMltDQEhdKFtDSDJdYyhjM0MyNDUpW2NIXVtjSF1jKFtPSF0pW2NIXTMpW0NAQEhdNltDSDJdW0NASF00W0NIMl1bQ0BIXTVDNihbQ0gzXSlbQ0gzXQ==

>  <s_epik_cmdline>  (300) 
J2VwaWtfcHl0aG9uJywgJy1waHQnLCAnMi4wJywgJy1waCcsICc3LjAnLCAnLXRuJywgJzgnLCAnLW1hJywgJzIwMCcsICctaW1hZScsICc8aW5maWxlLm1hZT4nLCAnLW9tYWUnLCAnPG91dGZpbGUubWFlPic=

>  <r_lp_tautomer_probability>  (300) 
1

>  <r_epik_Ionization_Penalty>  (300) 
1.48063

>  <r_epik_Ionization_Penalty_Charging>  (300) 
0.014029

>  <r_epik_Ionization_Penalty_Neutral>  (300) 
1.4666

>  <r_epik_State_Penalty>  (300) 
1.54963

>  <r_epik_Charging_Adjusted_Penalty>  (300) 
1.56366

>  <i_epik_Tot_Q>  (300) 
1

>  <i_epik_Tot_abs_Q>  (300) 
1

>  <s_lp_Force_Field>  (300) 
OPLS3e

>  <r_lp_Energy>  (300) 
185.912

>  <b_lp_Chiralities_Consistent>  (300) 
1

>  <s_lp_Variant>  (300) 
97:0-2

>  <s_i_glide_gridfile>  (300) 
pfpi4k_grid

>  <i_i_glide_lignum>  (300) 
20

>  <i_i_glide_rotatable_bonds>  (300) 
4

>  <r_i_docking_score>  (300) 
-2.07391

>  <r_i_glide_ligand_efficiency>  (300) 
-0.0740684

>  <r_i_glide_ligand_efficiency_sa>  (300) 
-0.224915

>  <r_i_glide_ligand_efficiency_ln>  (300) 
-0.47872

>  <r_i_glide_gscore>  (300) 
-2.07391

>  <r_i_glide_lipo>  (300) 
-0.467954

>  <r_i_glide_hbond>  (300) 
0

>  <r_i_glide_metal>  (300) 
-0

>  <r_i_glide_rewards>  (300) 
-0.800713

>  <r_i_glide_evdw>  (300) 
-23.6391

>  <r_i_glide_ecoul>  (300) 
-0.142866

>  <r_i_glide_erotb>  (300) 
0.398137

>  <r_i_glide_esite>  (300) 
0

>  <r_i_glide_emodel>  (300) 
-26.1683

>  <r_i_glide_energy>  (300) 
-23.782

>  <r_i_glide_einternal>  (300) 
2.00065

>  <r_i_glide_intrahb_reward>  (300) 
-0

>  <i_i_glide_confnum>  (300) 
2

>  <i_i_glide_posenum>  (300) 
1

>  <r_i_glide_eff_state_penalty>  (300) 
0

>  <ligand_id>  (300) 
97

>  <original_smiles>  (300) 
CN1CCN(CCN2C3Cc4ccc(O)cc4C24C2CC3C(C)(C)C4C2)CC1

>  <smiles>  (300) 
[H]Oc1c([H])c([H])c2c(c1[H])C13C4([H])C([H])([H])C([H])(C(C([H])([H])[H])(C([H])([H])[H])C1([H])C4([H])[H])C([H])(C2([H])[H])[N+]3([H])C([H])([H])C([H])([H])N1C([H])([H])C([H])([H])N(C([H])([H])[H])C([H])([H])C1([H])[H]

$$$$
97:2:0
     RDKit          3D

 64 69  0  0  1  0  0  0  0  0999 V2000
   -0.7726    2.2454    3.0047 C   0  0  0  0  0  0  0  0  0  0  0  0
    0.2940    1.2376    2.7814 N   0  0  0  0  0  0  0  0  0  0  0  0
    0.5622    0.4251    3.9954 C   0  0  0  0  0  0  0  0  0  0  0  0
    1.6266   -0.6480    3.7103 C   0  0  0  0  0  0  0  0  0  0  0  0
    2.8645   -0.0650    3.1931 N   0  0  0  0  0  0  0  0  0  0  0  0
    3.9013   -1.0717    2.9452 C   0  0  0  0  0  0  0  0  0  0  0  0
    3.6711   -1.9547    1.6928 C   0  0  0  0  0  0  0  0  0  0  0  0
    4.4042   -3.2225    1.6840 N   0  0  0  0  0  0  0  0  0  0  0  0
    5.8242   -3.2226    1.6506 C   0  0  2  0  0  0  0  0  0  0  0  0
    6.2110   -2.6881    0.1820 C   0  0  0  0  0  0  0  0  0  0  0  0
    5.0759   -2.8190   -0.9005 C   0  0  0  0  0  0  0  0  0  0  0  0
    5.0861   -2.1025   -2.1101 C   0  0  0  0  0  0  0  0  0  0  0  0
    3.9892   -2.1899   -2.9983 C   0  0  0  0  0  0  0  0  0  0  0  0
    2.8640   -2.9657   -2.6751 C   0  0  0  0  0  0  0  0  0  0  0  0
    1.8313   -3.0358   -3.5647 O   0  0  0  0  0  0  0  0  0  0  0  0
    2.8178   -3.6677   -1.4494 C   0  0  0  0  0  0  0  0  0  0  0  0
    3.9333   -3.6105   -0.5949 C   0  0  0  0  0  0  0  0  0  0  0  0
    4.0351   -4.2955    0.7524 C   0  0  1  0  0  0  0  0  0  0  0  0
    5.0744   -5.4192    0.1953 C   0  0  1  0  0  0  0  0  0  0  0  0
    6.4265   -5.5146    0.9133 C   0  0  0  0  0  0  0  0  0  0  0  0
    6.1634   -4.7165    2.1725 C   0  0  2  0  0  0  0  0  0  0  0  0
    4.8967   -5.4916    2.8480 C   0  0  0  0  0  0  0  0  0  0  0  0
    5.2557   -6.9179    3.3497 C   0  0  0  0  0  0  0  0  0  0  0  0
    4.3732   -4.7704    4.1260 C   0  0  0  0  0  0  0  0  0  0  0  0
    3.7810   -5.5243    1.6937 C   0  0  2  0  0  0  0  0  0  0  0  0
    4.0222   -6.4505    0.5292 C   0  0  0  0  0  0  0  0  0  0  0  0
    2.5960    0.7593    2.0108 C   0  0  0  0  0  0  0  0  0  0  0  0
    1.5478    1.8481    2.2786 C   0  0  0  0  0  0  0  0  0  0  0  0
   -0.4626    2.9659    3.7668 H   0  0  0  0  0  0  0  0  0  0  0  0
   -1.7018    1.7772    3.3432 H   0  0  0  0  0  0  0  0  0  0  0  0
   -0.9982    2.7994    2.0896 H   0  0  0  0  0  0  0  0  0  0  0  0
    0.8931    1.0763    4.8065 H   0  0  0  0  0  0  0  0  0  0  0  0
   -0.3534   -0.0567    4.3363 H   0  0  0  0  0  0  0  0  0  0  0  0
    1.8443   -1.1897    4.6343 H   0  0  0  0  0  0  0  0  0  0  0  0
    1.2192   -1.3777    3.0112 H   0  0  0  0  0  0  0  0  0  0  0  0
    4.8721   -0.5768    2.8613 H   0  0  0  0  0  0  0  0  0  0  0  0
    3.9898   -1.7024    3.8334 H   0  0  0  0  0  0  0  0  0  0  0  0
    2.6195   -2.2054    1.6179 H   0  0  0  0  0  0  0  0  0  0  0  0
    3.9133   -1.3713    0.8072 H   0  0  0  0  0  0  0  0  0  0  0  0
    6.2043   -2.5226    2.3864 H   0  0  0  0  0  0  0  0  0  0  0  0
    6.4033   -1.6235    0.2630 H   0  0  0  0  0  0  0  0  0  0  0  0
    7.1366   -3.0988   -0.2052 H   0  0  0  0  0  0  0  0  0  0  0  0
    5.9125   -1.4513   -2.3256 H   0  0  0  0  0  0  0  0  0  0  0  0
    4.0025   -1.6547   -3.9337 H   0  0  0  0  0  0  0  0  0  0  0  0
    1.2023   -3.7453   -3.4480 H   0  0  0  0  0  0  0  0  0  0  0  0
    1.9714   -4.2850   -1.1984 H   0  0  0  0  0  0  0  0  0  0  0  0
    5.2041   -5.4962   -0.8882 H   0  0  0  0  0  0  0  0  0  0  0  0
    6.7246   -6.5443    1.1169 H   0  0  0  0  0  0  0  0  0  0  0  0
    7.2531   -5.1157    0.3312 H   0  0  0  0  0  0  0  0  0  0  0  0
    7.0178   -4.7435    2.8288 H   0  0  0  0  0  0  0  0  0  0  0  0
    4.3686   -7.4150    3.7475 H   0  0  0  0  0  0  0  0  0  0  0  0
    5.9975   -6.8663    4.1460 H   0  0  0  0  0  0  0  0  0  0  0  0
    5.6495   -7.5823    2.5846 H   0  0  0  0  0  0  0  0  0  0  0  0
    3.8710   -5.4567    4.8049 H   0  0  0  0  0  0  0  0  0  0  0  0
    3.6363   -3.9977    3.9199 H   0  0  0  0  0  0  0  0  0  0  0  0
    5.1904   -4.3068    4.6697 H   0  0  0  0  0  0  0  0  0  0  0  0
    2.7530   -5.5950    2.0430 H   0  0  0  0  0  0  0  0  0  0  0  0
    3.2200   -6.4607   -0.1991 H   0  0  0  0  0  0  0  0  0  0  0  0
    4.3978   -7.4496    0.7713 H   0  0  0  0  0  0  0  0  0  0  0  0
    3.5246    1.2247    1.6764 H   0  0  0  0  0  0  0  0  0  0  0  0
    2.2341    0.1432    1.1868 H   0  0  0  0  0  0  0  0  0  0  0  0
    1.3499    2.3850    1.3523 H   0  0  0  0  0  0  0  0  0  0  0  0
    1.9276    2.5781    2.9954 H   0  0  0  0  0  0  0  0  0  0  0  0
   -0.0153    0.6082    2.0532 H   0  0  0  0  0  0  0  0  0  0  0  0
  1  2  1  0
  1 29  1  0
  1 30  1  0
  1 31  1  0
  2 28  1  0
  2  3  1  0
  2 64  1  0
  3  4  1  0
  3 32  1  0
  3 33  1  0
  4  5  1  0
  4 34  1  0
  4 35  1  0
  5  6  1  0
  5 27  1  0
  6  7  1  0
  6 36  1  0
  6 37  1  0
  7  8  1  0
  7 38  1  0
  7 39  1  0
  8 18  1  0
  8  9  1  0
  9 21  1  0
  9 10  1  0
  9 40  1  1
 10 11  1  0
 10 41  1  0
 10 42  1  0
 11 17  2  0
 11 12  1  0
 12 13  2  0
 12 43  1  0
 13 14  1  0
 13 44  1  0
 14 15  1  0
 14 16  2  0
 15 45  1  0
 16 17  1  0
 16 46  1  0
 18 17  1  6
 18 25  1  0
 18 19  1  0
 19 26  1  0
 19 20  1  0
 19 47  1  6
 20 21  1  0
 20 48  1  0
 20 49  1  0
 21 22  1  0
 21 50  1  1
 22 23  1  0
 22 24  1  0
 22 25  1  0
 23 51  1  0
 23 52  1  0
 23 53  1  0
 24 54  1  0
 24 55  1  0
 24 56  1  0
 25 26  1  0
 25 57  1  1
 26 58  1  0
 26 59  1  0
 27 28  1  0
 27 60  1  0
 27 61  1  0
 28 62  1  0
 28 63  1  0
M  CHG  1   2   1
M  END
>  <i_m_ct_stereo_status>  (301) 
1

>  <s_m_source_file>  (301) 
/var/tmp/pbs.5076255.sched01/tmp4tnmxshi/11480k6dy83.sdf

>  <i_m_source_file_index>  (301) 
21

>  <i_lp_mmshare_version>  (301) 
48012

>  <i_f3d_flags>  (301) 
0

>  <s_epik_input>  (301) 
W0NIM11OMVtDSDJdW0NIMl1OKFtDSDJdW0NIMl0xKVtDSDJdW0NIMl1OMltDQEhdKFtDSDJdYyhjM0MyNDUpW2NIXVtjSF1jKFtPSF0pW2NIXTMpW0NAQEhdNltDSDJdW0NASF00W0NIMl1bQ0BIXTVDNihbQ0gzXSlbQ0gzXQ==

>  <s_epik_cmdline>  (301) 
J2VwaWtfcHl0aG9uJywgJy1waHQnLCAnMi4wJywgJy1waCcsICc3LjAnLCAnLXRuJywgJzgnLCAnLW1hJywgJzIwMCcsICctaW1hZScsICc8aW5maWxlLm1hZT4nLCAnLW9tYWUnLCAnPG91dGZpbGUubWFlPic=

>  <r_epik_Ionization_Penalty>  (301) 
2.07014

>  <r_epik_Ionization_Penalty_Charging>  (301) 
0.0247968

>  <r_epik_Ionization_Penalty_Neutral>  (301) 
2.04534

>  <r_epik_State_Penalty>  (301) 
2.23409

>  <r_epik_Charging_Adjusted_Penalty>  (301) 
2.25889

>  <i_epik_Tot_Q>  (301) 
1

>  <i_epik_Tot_abs_Q>  (301) 
1

>  <s_lp_Force_Field>  (301) 
OPLS3e

>  <r_lp_Energy>  (301) 
186.027

>  <b_lp_Chiralities_Consistent>  (301) 
1

>  <s_lp_Variant>  (301) 
97:0-3

>  <s_i_glide_gridfile>  (301) 
pfpi4k_grid

>  <i_i_glide_lignum>  (301) 
21

>  <i_i_glide_rotatable_bonds>  (301) 
4

>  <r_i_docking_score>  (301) 
-3.49109

>  <r_i_glide_ligand_efficiency>  (301) 
-0.124682

>  <r_i_glide_ligand_efficiency_sa>  (301) 
-0.378607

>  <r_i_glide_ligand_efficiency_ln>  (301) 
-0.805845

>  <r_i_glide_gscore>  (301) 
-3.49109

>  <r_i_glide_lipo>  (301) 
-0.665998

>  <r_i_glide_hbond>  (301) 
-0.32

>  <r_i_glide_metal>  (301) 
-0

>  <r_i_glide_rewards>  (301) 
-0.800713

>  <r_i_glide_evdw>  (301) 
-21.4826

>  <r_i_glide_ecoul>  (301) 
-6.55031

>  <r_i_glide_erotb>  (301) 
0.398137

>  <r_i_glide_esite>  (301) 
-0.0458356

>  <r_i_glide_emodel>  (301) 
-32.29

>  <r_i_glide_energy>  (301) 
-28.0329

>  <r_i_glide_einternal>  (301) 
7.94429

>  <r_i_glide_intrahb_reward>  (301) 
-0

>  <i_i_glide_confnum>  (301) 
3

>  <i_i_glide_posenum>  (301) 
1

>  <r_i_glide_eff_state_penalty>  (301) 
0

>  <ligand_id>  (301) 
97

>  <original_smiles>  (301) 
CN1CCN(CCN2C3Cc4ccc(O)cc4C24C2CC3C(C)(C)C4C2)CC1

>  <smiles>  (301) 
[H]Oc1c([H])c([H])c2c(c1[H])C13N(C([H])([H])C([H])([H])N4C([H])([H])C([H])([H])[N+]([H])(C([H])([H])[H])C([H])([H])C4([H])[H])C([H])(C2([H])[H])C2([H])C([H])([H])C1([H])C([H])([H])C3([H])C2(C([H])([H])[H])C([H])([H])[H]

$$$$
97:2:1
     RDKit          3D

 64 69  0  0  1  0  0  0  0  0999 V2000
    0.4006  -12.4577    4.7295 C   0  0  0  0  0  0  0  0  0  0  0  0
    0.2952  -11.0138    4.4588 N   0  0  0  0  0  0  0  0  0  0  0  0
    0.9780  -10.6378    3.2037 C   0  0  0  0  0  0  0  0  0  0  0  0
    0.8053   -9.1408    2.9326 C   0  0  0  0  0  0  0  0  0  0  0  0
    1.3031   -8.3287    4.0439 N   0  0  0  0  0  0  0  0  0  0  0  0
    1.1960   -6.8940    3.7743 C   0  0  0  0  0  0  0  0  0  0  0  0
    2.0426   -6.3488    2.5934 C   0  0  0  0  0  0  0  0  0  0  0  0
    3.5008   -6.4697    2.7572 N   0  0  0  0  0  0  0  0  0  0  0  0
    4.1272   -6.1035    3.9754 C   0  0  2  0  0  0  0  0  0  0  0  0
    4.0116   -4.4989    4.0355 C   0  0  0  0  0  0  0  0  0  0  0  0
    3.8035   -3.7899    2.6500 C   0  0  0  0  0  0  0  0  0  0  0  0
    3.3325   -2.4658    2.5292 C   0  0  0  0  0  0  0  0  0  0  0  0
    3.0741   -1.9267    1.2479 C   0  0  0  0  0  0  0  0  0  0  0  0
    3.2953   -2.6938    0.0894 C   0  0  0  0  0  0  0  0  0  0  0  0
    3.0183   -2.1664   -1.1397 O   0  0  0  0  0  0  0  0  0  0  0  0
    3.7620   -4.0159    0.1776 C   0  0  0  0  0  0  0  0  0  0  0  0
    3.9987   -4.5493    1.4578 C   0  0  0  0  0  0  0  0  0  0  0  0
    4.4322   -5.9803    1.7301 C   0  0  1  0  0  0  0  0  0  0  0  0
    5.9649   -5.5032    2.0521 C   0  0  1  0  0  0  0  0  0  0  0  0
    6.5283   -5.8814    3.4277 C   0  0  0  0  0  0  0  0  0  0  0  0
    5.5288   -6.9137    3.8998 C   0  0  2  0  0  0  0  0  0  0  0  0
    5.5891   -8.0381    2.7212 C   0  0  0  0  0  0  0  0  0  0  0  0
    6.9469   -8.7918    2.6677 C   0  0  0  0  0  0  0  0  0  0  0  0
    4.5545   -9.1761    2.9409 C   0  0  0  0  0  0  0  0  0  0  0  0
    5.2991   -7.2318    1.3706 C   0  0  2  0  0  0  0  0  0  0  0  0
    6.3876   -6.3187    0.8558 C   0  0  0  0  0  0  0  0  0  0  0  0
    0.5939   -8.7001    5.2725 C   0  0  0  0  0  0  0  0  0  0  0  0
    0.7616  -10.1948    5.5981 C   0  0  0  0  0  0  0  0  0  0  0  0
    1.4392  -12.7459    4.8848 H   0  0  0  0  0  0  0  0  0  0  0  0
    0.0005  -13.0519    3.9150 H   0  0  0  0  0  0  0  0  0  0  0  0
   -0.1878  -12.6865    5.6189 H   0  0  0  0  0  0  0  0  0  0  0  0
    2.0369  -10.8903    3.2808 H   0  0  0  0  0  0  0  0  0  0  0  0
    0.5741  -11.2127    2.3759 H   0  0  0  0  0  0  0  0  0  0  0  0
    1.3551   -8.9135    2.0194 H   0  0  0  0  0  0  0  0  0  0  0  0
   -0.2429   -8.9138    2.7370 H   0  0  0  0  0  0  0  0  0  0  0  0
    0.1497   -6.6594    3.5758 H   0  0  0  0  0  0  0  0  0  0  0  0
    1.4426   -6.3373    4.6822 H   0  0  0  0  0  0  0  0  0  0  0  0
    1.7652   -6.8550    1.6688 H   0  0  0  0  0  0  0  0  0  0  0  0
    1.7566   -5.3087    2.4467 H   0  0  0  0  0  0  0  0  0  0  0  0
    3.5935   -6.5252    4.8199 H   0  0  0  0  0  0  0  0  0  0  0  0
    3.1310   -4.2605    4.6276 H   0  0  0  0  0  0  0  0  0  0  0  0
    4.8278   -4.0267    4.5743 H   0  0  0  0  0  0  0  0  0  0  0  0
    3.1338   -1.8753    3.4072 H   0  0  0  0  0  0  0  0  0  0  0  0
    2.7000   -0.9218    1.1582 H   0  0  0  0  0  0  0  0  0  0  0  0
    2.3105   -1.5183   -1.1072 H   0  0  0  0  0  0  0  0  0  0  0  0
    3.8853   -4.6218   -0.7109 H   0  0  0  0  0  0  0  0  0  0  0  0
    6.2416   -4.4763    1.7938 H   0  0  0  0  0  0  0  0  0  0  0  0
    7.5451   -6.2619    3.3710 H   0  0  0  0  0  0  0  0  0  0  0  0
    6.6022   -5.0457    4.1136 H   0  0  0  0  0  0  0  0  0  0  0  0
    5.8047   -7.3229    4.8740 H   0  0  0  0  0  0  0  0  0  0  0  0
    6.9546   -9.5040    1.8380 H   0  0  0  0  0  0  0  0  0  0  0  0
    7.1118   -9.3529    3.5920 H   0  0  0  0  0  0  0  0  0  0  0  0
    7.8177   -8.1543    2.5183 H   0  0  0  0  0  0  0  0  0  0  0  0
    4.8518  -10.1117    2.4669 H   0  0  0  0  0  0  0  0  0  0  0  0
    3.5836   -8.9505    2.5115 H   0  0  0  0  0  0  0  0  0  0  0  0
    4.4035   -9.3761    4.0007 H   0  0  0  0  0  0  0  0  0  0  0  0
    4.8745   -7.8183    0.5593 H   0  0  0  0  0  0  0  0  0  0  0  0
    6.1604   -5.8296   -0.0910 H   0  0  0  0  0  0  0  0  0  0  0  0
    7.4052   -6.7180    0.8984 H   0  0  0  0  0  0  0  0  0  0  0  0
    0.9751   -8.1205    6.1160 H   0  0  0  0  0  0  0  0  0  0  0  0
   -0.4678   -8.4589    5.1884 H   0  0  0  0  0  0  0  0  0  0  0  0
    0.1806  -10.4538    6.4833 H   0  0  0  0  0  0  0  0  0  0  0  0
    1.8035  -10.4291    5.8214 H   0  0  0  0  0  0  0  0  0  0  0  0
   -0.7060  -10.8118    4.4035 H   0  0  0  0  0  0  0  0  0  0  0  0
  1  2  1  0
  1 29  1  0
  1 30  1  0
  1 31  1  0
  2 28  1  0
  2  3  1  0
  2 64  1  0
  3  4  1  0
  3 32  1  0
  3 33  1  0
  4  5  1  0
  4 34  1  0
  4 35  1  0
  5  6  1  0
  5 27  1  0
  6  7  1  0
  6 36  1  0
  6 37  1  0
  7  8  1  0
  7 38  1  0
  7 39  1  0
  8 18  1  0
  8  9  1  0
  9 21  1  0
  9 10  1  0
  9 40  1  1
 10 11  1  0
 10 41  1  0
 10 42  1  0
 11 17  2  0
 11 12  1  0
 12 13  2  0
 12 43  1  0
 13 14  1  0
 13 44  1  0
 14 15  1  0
 14 16  2  0
 15 45  1  0
 16 17  1  0
 16 46  1  0
 18 17  1  6
 18 25  1  0
 18 19  1  0
 19 26  1  0
 19 20  1  0
 19 47  1  6
 20 21  1  0
 20 48  1  0
 20 49  1  0
 21 22  1  0
 21 50  1  1
 22 23  1  0
 22 24  1  0
 22 25  1  0
 23 51  1  0
 23 52  1  0
 23 53  1  0
 24 54  1  0
 24 55  1  0
 24 56  1  0
 25 26  1  0
 25 57  1  6
 26 58  1  0
 26 59  1  0
 27 28  1  0
 27 60  1  0
 27 61  1  0
 28 62  1  0
 28 63  1  0
M  CHG  1   2   1
M  END
>  <i_m_ct_stereo_status>  (302) 
1

>  <s_m_source_file>  (302) 
/var/tmp/pbs.5076255.sched01/tmp4tnmxshi/11480k6dy83.sdf

>  <i_m_source_file_index>  (302) 
21

>  <i_lp_mmshare_version>  (302) 
48012

>  <i_f3d_flags>  (302) 
0

>  <s_epik_input>  (302) 
W0NIM11OMVtDSDJdW0NIMl1OKFtDSDJdW0NIMl0xKVtDSDJdW0NIMl1OMltDQEhdKFtDSDJdYyhjM0MyNDUpW2NIXVtjSF1jKFtPSF0pW2NIXTMpW0NAQEhdNltDSDJdW0NASF00W0NIMl1bQ0BIXTVDNihbQ0gzXSlbQ0gzXQ==

>  <s_epik_cmdline>  (302) 
J2VwaWtfcHl0aG9uJywgJy1waHQnLCAnMi4wJywgJy1waCcsICc3LjAnLCAnLXRuJywgJzgnLCAnLW1hJywgJzIwMCcsICctaW1hZScsICc8aW5maWxlLm1hZT4nLCAnLW9tYWUnLCAnPG91dGZpbGUubWFlPic=

>  <r_epik_Ionization_Penalty>  (302) 
2.07014

>  <r_epik_Ionization_Penalty_Charging>  (302) 
0.0247968

>  <r_epik_Ionization_Penalty_Neutral>  (302) 
2.04534

>  <r_epik_State_Penalty>  (302) 
2.23409

>  <r_epik_Charging_Adjusted_Penalty>  (302) 
2.25889

>  <i_epik_Tot_Q>  (302) 
1

>  <i_epik_Tot_abs_Q>  (302) 
1

>  <s_lp_Force_Field>  (302) 
OPLS3e

>  <r_lp_Energy>  (302) 
186.027

>  <b_lp_Chiralities_Consistent>  (302) 
1

>  <s_lp_Variant>  (302) 
97:0-3

>  <s_i_glide_gridfile>  (302) 
pfpi4k_grid

>  <i_i_glide_lignum>  (302) 
21

>  <i_i_glide_rotatable_bonds>  (302) 
4

>  <r_i_docking_score>  (302) 
-3.46053

>  <r_i_glide_ligand_efficiency>  (302) 
-0.12359

>  <r_i_glide_ligand_efficiency_sa>  (302) 
-0.375293

>  <r_i_glide_ligand_efficiency_ln>  (302) 
-0.798792

>  <r_i_glide_gscore>  (302) 
-3.46053

>  <r_i_glide_lipo>  (302) 
-0.46016

>  <r_i_glide_hbond>  (302) 
-0.337736

>  <r_i_glide_metal>  (302) 
-0

>  <r_i_glide_rewards>  (302) 
-0.800713

>  <r_i_glide_evdw>  (302) 
-16.8964

>  <r_i_glide_ecoul>  (302) 
-8.94992

>  <r_i_glide_erotb>  (302) 
0.398137

>  <r_i_glide_esite>  (302) 
-0.0727515

>  <r_i_glide_emodel>  (302) 
-32.39

>  <r_i_glide_energy>  (302) 
-25.8463

>  <r_i_glide_einternal>  (302) 
2.86162

>  <r_i_glide_intrahb_reward>  (302) 
-0

>  <i_i_glide_confnum>  (302) 
5

>  <i_i_glide_posenum>  (302) 
3

>  <r_i_glide_eff_state_penalty>  (302) 
0

>  <ligand_id>  (302) 
97

>  <original_smiles>  (302) 
CN1CCN(CCN2C3Cc4ccc(O)cc4C24C2CC3C(C)(C)C4C2)CC1

>  <smiles>  (302) 
[H]Oc1c([H])c([H])c2c(c1[H])C13N(C([H])([H])C([H])([H])N4C([H])([H])C([H])([H])[N+]([H])(C([H])([H])[H])C([H])([H])C4([H])[H])C([H])(C2([H])[H])C2([H])C([H])([H])C1([H])C([H])([H])C3([H])C2(C([H])([H])[H])C([H])([H])[H]

$$$$
97:2:2
     RDKit          3D

 64 69  0  0  1  0  0  0  0  0999 V2000
    2.2608    4.0421    3.2200 C   0  0  0  0  0  0  0  0  0  0  0  0
    2.5846    2.6432    2.8586 N   0  0  0  0  0  0  0  0  0  0  0  0
    1.4693    1.9691    2.1515 C   0  0  0  0  0  0  0  0  0  0  0  0
    1.8808    0.5469    1.7158 C   0  0  0  0  0  0  0  0  0  0  0  0
    2.3382   -0.2539    2.8498 N   0  0  0  0  0  0  0  0  0  0  0  0
    2.6751   -1.6253    2.4503 C   0  0  0  0  0  0  0  0  0  0  0  0
    4.0618   -1.8061    1.7851 C   0  0  0  0  0  0  0  0  0  0  0  0
    4.5644   -3.1800    1.7671 N   0  0  0  0  0  0  0  0  0  0  0  0
    5.9653   -3.3922    1.7302 C   0  0  2  0  0  0  0  0  0  0  0  0
    6.4221   -2.9337    0.2554 C   0  0  0  0  0  0  0  0  0  0  0  0
    5.2764   -2.9179   -0.8187 C   0  0  0  0  0  0  0  0  0  0  0  0
    5.3837   -2.2157   -2.0356 C   0  0  0  0  0  0  0  0  0  0  0  0
    4.2822   -2.1543   -2.9016 C   0  0  0  0  0  0  0  0  0  0  0  0
    3.0652   -2.7877   -2.5826 C   0  0  0  0  0  0  0  0  0  0  0  0
    2.0405   -2.7566   -3.4665 O   0  0  0  0  0  0  0  0  0  0  0  0
    2.9255   -3.4640   -1.3525 C   0  0  0  0  0  0  0  0  0  0  0  0
    4.0306   -3.5347   -0.4997 C   0  0  0  0  0  0  0  0  0  0  0  0
    4.0372   -4.1957    0.8622 C   0  0  1  0  0  0  0  0  0  0  0  0
    4.8972   -5.4726    0.3223 C   0  0  1  0  0  0  0  0  0  0  0  0
    6.2315   -5.7484    1.0320 C   0  0  0  0  0  0  0  0  0  0  0  0
    6.1096   -4.9105    2.2894 C   0  0  2  0  0  0  0  0  0  0  0  0
    4.7465   -5.4811    2.9798 C   0  0  0  0  0  0  0  0  0  0  0  0
    4.9034   -6.9360    3.4992 C   0  0  0  0  0  0  0  0  0  0  0  0
    4.3729   -4.6813    4.2640 C   0  0  0  0  0  0  0  0  0  0  0  0
    3.6249   -5.3556    1.8361 C   0  0  2  0  0  0  0  0  0  0  0  0
    3.7000   -6.3219    0.6807 C   0  0  0  0  0  0  0  0  0  0  0  0
    3.4199    0.4331    3.5688 C   0  0  0  0  0  0  0  0  0  0  0  0
    3.0203    1.8416    4.0284 C   0  0  0  0  0  0  0  0  0  0  0  0
    1.4278    4.0611    3.9280 H   0  0  0  0  0  0  0  0  0  0  0  0
    1.9734    4.6311    2.3432 H   0  0  0  0  0  0  0  0  0  0  0  0
    3.1161    4.5324    3.6908 H   0  0  0  0  0  0  0  0  0  0  0  0
    0.5971    1.9150    2.8101 H   0  0  0  0  0  0  0  0  0  0  0  0
    1.1807    2.5449    1.2853 H   0  0  0  0  0  0  0  0  0  0  0  0
    1.0102    0.0533    1.2775 H   0  0  0  0  0  0  0  0  0  0  0  0
    2.6522    0.5838    0.9427 H   0  0  0  0  0  0  0  0  0  0  0  0
    2.6153   -2.2347    3.3458 H   0  0  0  0  0  0  0  0  0  0  0  0
    1.9024   -2.0274    1.7901 H   0  0  0  0  0  0  0  0  0  0  0  0
    4.0711   -1.3487    0.7976 H   0  0  0  0  0  0  0  0  0  0  0  0
    4.8144   -1.2737    2.3663 H   0  0  0  0  0  0  0  0  0  0  0  0
    6.4363   -2.7347    2.4533 H   0  0  0  0  0  0  0  0  0  0  0  0
    6.7762   -1.9073    0.3336 H   0  0  0  0  0  0  0  0  0  0  0  0
    7.2847   -3.4746   -0.1215 H   0  0  0  0  0  0  0  0  0  0  0  0
    6.2959   -1.7140   -2.3025 H   0  0  0  0  0  0  0  0  0  0  0  0
    4.3564   -1.6253   -3.8354 H   0  0  0  0  0  0  0  0  0  0  0  0
    1.2890   -3.2864   -3.2233 H   0  0  0  0  0  0  0  0  0  0  0  0
    2.0001   -3.9410   -1.0799 H   0  0  0  0  0  0  0  0  0  0  0  0
    5.0080   -5.5819   -0.7623 H   0  0  0  0  0  0  0  0  0  0  0  0
    6.3830   -6.8020    1.2543 H   0  0  0  0  0  0  0  0  0  0  0  0
    7.1045   -5.4800    0.4396 H   0  0  0  0  0  0  0  0  0  0  0  0
    6.9885   -5.0522    2.9259 H   0  0  0  0  0  0  0  0  0  0  0  0
    3.9524   -7.2813    3.9093 H   0  0  0  0  0  0  0  0  0  0  0  0
    5.6546   -6.9853    4.2940 H   0  0  0  0  0  0  0  0  0  0  0  0
    5.1813   -7.6595    2.7352 H   0  0  0  0  0  0  0  0  0  0  0  0
    3.7729   -5.2762    4.9523 H   0  0  0  0  0  0  0  0  0  0  0  0
    3.7696   -3.8039    4.0636 H   0  0  0  0  0  0  0  0  0  0  0  0
    5.2587   -4.3404    4.8001 H   0  0  0  0  0  0  0  0  0  0  0  0
    2.6077   -5.2731    2.2113 H   0  0  0  0  0  0  0  0  0  0  0  0
    2.8847   -6.1968   -0.0260 H   0  0  0  0  0  0  0  0  0  0  0  0
    3.9279   -7.3659    0.9250 H   0  0  0  0  0  0  0  0  0  0  0  0
    3.7296   -0.1669    4.4297 H   0  0  0  0  0  0  0  0  0  0  0  0
    4.2911    0.5576    2.9183 H   0  0  0  0  0  0  0  0  0  0  0  0
    3.8946    2.3129    4.4781 H   0  0  0  0  0  0  0  0  0  0  0  0
    2.2386    1.8114    4.7909 H   0  0  0  0  0  0  0  0  0  0  0  0
    3.3673    2.6546    2.2163 H   0  0  0  0  0  0  0  0  0  0  0  0
  1  2  1  0
  1 29  1  0
  1 30  1  0
  1 31  1  0
  2 28  1  0
  2  3  1  0
  2 64  1  0
  3  4  1  0
  3 32  1  0
  3 33  1  0
  4  5  1  0
  4 34  1  0
  4 35  1  0
  5  6  1  0
  5 27  1  0
  6  7  1  0
  6 36  1  0
  6 37  1  0
  7  8  1  0
  7 38  1  0
  7 39  1  0
  8 18  1  0
  8  9  1  0
  9 21  1  0
  9 10  1  0
  9 40  1  1
 10 11  1  0
 10 41  1  0
 10 42  1  0
 11 17  2  0
 11 12  1  0
 12 13  2  0
 12 43  1  0
 13 14  1  0
 13 44  1  0
 14 15  1  0
 14 16  2  0
 15 45  1  0
 16 17  1  0
 16 46  1  0
 18 17  1  6
 18 25  1  0
 18 19  1  0
 19 26  1  0
 19 20  1  0
 19 47  1  6
 20 21  1  0
 20 48  1  0
 20 49  1  0
 21 22  1  0
 21 50  1  1
 22 23  1  0
 22 24  1  0
 22 25  1  0
 23 51  1  0
 23 52  1  0
 23 53  1  0
 24 54  1  0
 24 55  1  0
 24 56  1  0
 25 26  1  0
 25 57  1  1
 26 58  1  0
 26 59  1  0
 27 28  1  0
 27 60  1  0
 27 61  1  0
 28 62  1  0
 28 63  1  0
M  CHG  1   2   1
M  END
>  <i_m_ct_stereo_status>  (303) 
1

>  <s_m_source_file>  (303) 
/var/tmp/pbs.5076255.sched01/tmp4tnmxshi/11480k6dy83.sdf

>  <i_m_source_file_index>  (303) 
21

>  <i_lp_mmshare_version>  (303) 
48012

>  <i_f3d_flags>  (303) 
0

>  <s_epik_input>  (303) 
W0NIM11OMVtDSDJdW0NIMl1OKFtDSDJdW0NIMl0xKVtDSDJdW0NIMl1OMltDQEhdKFtDSDJdYyhjM0MyNDUpW2NIXVtjSF1jKFtPSF0pW2NIXTMpW0NAQEhdNltDSDJdW0NASF00W0NIMl1bQ0BIXTVDNihbQ0gzXSlbQ0gzXQ==

>  <s_epik_cmdline>  (303) 
J2VwaWtfcHl0aG9uJywgJy1waHQnLCAnMi4wJywgJy1waCcsICc3LjAnLCAnLXRuJywgJzgnLCAnLW1hJywgJzIwMCcsICctaW1hZScsICc8aW5maWxlLm1hZT4nLCAnLW9tYWUnLCAnPG91dGZpbGUubWFlPic=

>  <r_epik_Ionization_Penalty>  (303) 
2.07014

>  <r_epik_Ionization_Penalty_Charging>  (303) 
0.0247968

>  <r_epik_Ionization_Penalty_Neutral>  (303) 
2.04534

>  <r_epik_State_Penalty>  (303) 
2.23409

>  <r_epik_Charging_Adjusted_Penalty>  (303) 
2.25889

>  <i_epik_Tot_Q>  (303) 
1

>  <i_epik_Tot_abs_Q>  (303) 
1

>  <s_lp_Force_Field>  (303) 
OPLS3e

>  <r_lp_Energy>  (303) 
186.027

>  <b_lp_Chiralities_Consistent>  (303) 
1

>  <s_lp_Variant>  (303) 
97:0-3

>  <s_i_glide_gridfile>  (303) 
pfpi4k_grid

>  <i_i_glide_lignum>  (303) 
21

>  <i_i_glide_rotatable_bonds>  (303) 
4

>  <r_i_docking_score>  (303) 
-3.32373

>  <r_i_glide_ligand_efficiency>  (303) 
-0.118705

>  <r_i_glide_ligand_efficiency_sa>  (303) 
-0.360457

>  <r_i_glide_ligand_efficiency_ln>  (303) 
-0.767214

>  <r_i_glide_gscore>  (303) 
-3.32373

>  <r_i_glide_lipo>  (303) 
-0.648758

>  <r_i_glide_hbond>  (303) 
-0.223393

>  <r_i_glide_metal>  (303) 
-0

>  <r_i_glide_rewards>  (303) 
-0.800713

>  <r_i_glide_evdw>  (303) 
-25.8312

>  <r_i_glide_ecoul>  (303) 
-4.77893

>  <r_i_glide_erotb>  (303) 
0.398137

>  <r_i_glide_esite>  (303) 
-0.0406002

>  <r_i_glide_emodel>  (303) 
-33.6988

>  <r_i_glide_energy>  (303) 
-30.6102

>  <r_i_glide_einternal>  (303) 
8.6367

>  <r_i_glide_intrahb_reward>  (303) 
-0

>  <i_i_glide_confnum>  (303) 
3

>  <i_i_glide_posenum>  (303) 
35

>  <r_i_glide_eff_state_penalty>  (303) 
0

>  <ligand_id>  (303) 
97

>  <original_smiles>  (303) 
CN1CCN(CCN2C3Cc4ccc(O)cc4C24C2CC3C(C)(C)C4C2)CC1

>  <smiles>  (303) 
[H]Oc1c([H])c([H])c2c(c1[H])C13N(C([H])([H])C([H])([H])N4C([H])([H])C([H])([H])[N+]([H])(C([H])([H])[H])C([H])([H])C4([H])[H])C([H])(C2([H])[H])C2([H])C([H])([H])C1([H])C([H])([H])C3([H])C2(C([H])([H])[H])C([H])([H])[H]

$$$$
97:3:0
     RDKit          3D

 64 69  0  0  1  0  0  0  0  0999 V2000
   -1.4075    1.4835    4.2180 C   0  0  0  0  0  0  0  0  0  0  0  0
   -0.3019    0.7786    3.5935 N   0  0  0  0  0  0  0  0  0  0  0  0
    0.8974    0.9483    4.4086 C   0  0  0  0  0  0  0  0  0  0  0  0
    2.0725    0.1818    3.7820 C   0  0  0  0  0  0  0  0  0  0  0  0
    2.3175    0.6328    2.3927 N   0  0  0  0  0  0  0  0  0  0  0  0
    3.4826   -0.0516    1.7764 C   0  0  0  0  0  0  0  0  0  0  0  0
    3.1003   -1.3782    1.0711 C   0  0  0  0  0  0  0  0  0  0  0  0
    4.1390   -2.4033    1.0550 N   0  0  0  0  0  0  0  0  0  0  0  0
    5.5303   -2.0987    0.9831 C   0  0  2  0  0  0  0  0  0  0  0  0
    5.7002   -1.5204   -0.5018 C   0  0  0  0  0  0  0  0  0  0  0  0
    4.6237   -1.9580   -1.5443 C   0  0  0  0  0  0  0  0  0  0  0  0
    4.4279   -1.2698   -2.7614 C   0  0  0  0  0  0  0  0  0  0  0  0
    3.3866   -1.6422   -3.5989 C   0  0  0  0  0  0  0  0  0  0  0  0
    2.5019   -2.6716   -3.2392 C   0  0  0  0  0  0  0  0  0  0  0  0
    1.5088   -2.9854   -4.1062 O   0  0  0  0  0  0  0  0  0  0  0  0
    2.6578   -3.3772   -2.0340 C   0  0  0  0  0  0  0  0  0  0  0  0
    3.7270   -3.0121   -1.1974 C   0  0  0  0  0  0  0  0  0  0  0  0
    4.0054   -3.5924    0.1669 C   0  0  1  0  0  0  0  0  0  0  0  0
    5.2496   -4.4722   -0.4011 C   0  0  1  0  0  0  0  0  0  0  0  0
    6.5971   -4.2171    0.2701 C   0  0  0  0  0  0  0  0  0  0  0  0
    6.1804   -3.4751    1.5125 C   0  0  2  0  0  0  0  0  0  0  0  0
    5.1412   -4.4981    2.2623 C   0  0  0  0  0  0  0  0  0  0  0  0
    5.8347   -5.7866    2.7792 C   0  0  0  0  0  0  0  0  0  0  0  0
    4.4794   -3.8863    3.5331 C   0  0  0  0  0  0  0  0  0  0  0  0
    4.0477   -4.8175    1.1448 C   0  0  2  0  0  0  0  0  0  0  0  0
    4.4746   -5.7149    0.0028 C   0  0  0  0  0  0  0  0  0  0  0  0
    1.0651    0.5661    1.5889 C   0  0  0  0  0  0  0  0  0  0  0  0
   -0.0791    1.3363    2.2569 C   0  0  0  0  0  0  0  0  0  0  0  0
   -1.5637    1.1404    5.2425 H   0  0  0  0  0  0  0  0  0  0  0  0
   -2.3231    1.3095    3.6608 H   0  0  0  0  0  0  0  0  0  0  0  0
   -1.2281    2.5594    4.2266 H   0  0  0  0  0  0  0  0  0  0  0  0
    1.1264    2.0088    4.5185 H   0  0  0  0  0  0  0  0  0  0  0  0
    0.7117    0.5525    5.4082 H   0  0  0  0  0  0  0  0  0  0  0  0
    2.9639    0.3450    4.3910 H   0  0  0  0  0  0  0  0  0  0  0  0
    1.8776   -0.8905    3.7859 H   0  0  0  0  0  0  0  0  0  0  0  0
    3.9547    0.6058    1.0455 H   0  0  0  0  0  0  0  0  0  0  0  0
    4.2401   -0.1882    2.5523 H   0  0  0  0  0  0  0  0  0  0  0  0
    2.3152   -1.8952    1.6140 H   0  0  0  0  0  0  0  0  0  0  0  0
    2.7100   -1.1443    0.0796 H   0  0  0  0  0  0  0  0  0  0  0  0
    5.8135   -1.3374    1.7015 H   0  0  0  0  0  0  0  0  0  0  0  0
    5.6251   -0.4331   -0.4370 H   0  0  0  0  0  0  0  0  0  0  0  0
    6.6838   -1.7198   -0.9130 H   0  0  0  0  0  0  0  0  0  0  0  0
    5.0229   -0.4066   -3.0231 H   0  0  0  0  0  0  0  0  0  0  0  0
    3.2245   -1.1249   -4.5423 H   0  0  0  0  0  0  0  0  0  0  0  0
    0.8969   -3.7249   -3.8943 H   0  0  0  0  0  0  0  0  0  0  0  0
    1.9644   -4.1499   -1.7544 H   0  0  0  0  0  0  0  0  0  0  0  0
    5.3703   -4.5357   -1.4876 H   0  0  0  0  0  0  0  0  0  0  0  0
    7.1300   -5.1353    0.5006 H   0  0  0  0  0  0  0  0  0  0  0  0
    7.2947   -3.6312   -0.3263 H   0  0  0  0  0  0  0  0  0  0  0  0
    7.0880   -3.2512    2.0614 H   0  0  0  0  0  0  0  0  0  0  0  0
    5.1027   -6.4763    3.2105 H   0  0  0  0  0  0  0  0  0  0  0  0
    6.5642   -5.5416    3.5503 H   0  0  0  0  0  0  0  0  0  0  0  0
    6.3571   -6.3566    2.0152 H   0  0  0  0  0  0  0  0  0  0  0  0
    4.1938   -4.6570    4.2512 H   0  0  0  0  0  0  0  0  0  0  0  0
    3.5628   -3.3308    3.3306 H   0  0  0  0  0  0  0  0  0  0  0  0
    5.1670   -3.2150    4.0359 H   0  0  0  0  0  0  0  0  0  0  0  0
    3.0699   -5.1221    1.5087 H   0  0  0  0  0  0  0  0  0  0  0  0
    3.6553   -5.9571   -0.6785 H   0  0  0  0  0  0  0  0  0  0  0  0
    5.1103   -6.5737    0.2640 H   0  0  0  0  0  0  0  0  0  0  0  0
    1.2492    0.9353    0.5782 H   0  0  0  0  0  0  0  0  0  0  0  0
    0.7014   -0.4549    1.4740 H   0  0  0  0  0  0  0  0  0  0  0  0
   -0.9792    1.1795    1.6595 H   0  0  0  0  0  0  0  0  0  0  0  0
    0.1116    2.4111    2.2957 H   0  0  0  0  0  0  0  0  0  0  0  0
    2.5562    1.6112    2.4735 H   0  0  0  0  0  0  0  0  0  0  0  0
  1  2  1  0
  1 29  1  0
  1 30  1  0
  1 31  1  0
  2 28  1  0
  2  3  1  0
  3  4  1  0
  3 32  1  0
  3 33  1  0
  4  5  1  0
  4 34  1  0
  4 35  1  0
  5  6  1  0
  5 27  1  0
  5 64  1  0
  6  7  1  0
  6 36  1  0
  6 37  1  0
  7  8  1  0
  7 38  1  0
  7 39  1  0
  8 18  1  0
  8  9  1  0
  9 21  1  0
  9 10  1  0
  9 40  1  1
 10 11  1  0
 10 41  1  0
 10 42  1  0
 11 17  2  0
 11 12  1  0
 12 13  2  0
 12 43  1  0
 13 14  1  0
 13 44  1  0
 14 15  1  0
 14 16  2  0
 15 45  1  0
 16 17  1  0
 16 46  1  0
 18 17  1  6
 18 25  1  0
 18 19  1  0
 19 26  1  0
 19 20  1  0
 19 47  1  6
 20 21  1  0
 20 48  1  0
 20 49  1  0
 21 22  1  0
 21 50  1  1
 22 23  1  0
 22 24  1  0
 22 25  1  0
 23 51  1  0
 23 52  1  0
 23 53  1  0
 24 54  1  0
 24 55  1  0
 24 56  1  0
 25 26  1  0
 25 57  1  1
 26 58  1  0
 26 59  1  0
 27 28  1  0
 27 60  1  0
 27 61  1  0
 28 62  1  0
 28 63  1  0
M  CHG  1   5   1
M  END
>  <i_m_ct_stereo_status>  (304) 
1

>  <s_m_source_file>  (304) 
/var/tmp/pbs.5076255.sched01/tmp4tnmxshi/11480k6dy83.sdf

>  <i_m_source_file_index>  (304) 
22

>  <i_lp_mmshare_version>  (304) 
48012

>  <i_f3d_flags>  (304) 
0

>  <s_epik_input>  (304) 
W0NIM11OMVtDSDJdW0NIMl1OKFtDSDJdW0NIMl0xKVtDSDJdW0NIMl1OMltDQEhdKFtDSDJdYyhjM0MyNDUpW2NIXVtjSF1jKFtPSF0pW2NIXTMpW0NAQEhdNltDSDJdW0NASF00W0NIMl1bQ0BIXTVDNihbQ0gzXSlbQ0gzXQ==

>  <s_epik_cmdline>  (304) 
J2VwaWtfcHl0aG9uJywgJy1waHQnLCAnMi4wJywgJy1waCcsICc3LjAnLCAnLXRuJywgJzgnLCAnLW1hJywgJzIwMCcsICctaW1hZScsICc8aW5maWxlLm1hZT4nLCAnLW9tYWUnLCAnPG91dGZpbGUubWFlPic=

>  <r_epik_Ionization_Penalty>  (304) 
0.0943985

>  <r_epik_Ionization_Penalty_Charging>  (304) 
0.0740985

>  <r_epik_Ionization_Penalty_Neutral>  (304) 
0.0203

>  <r_epik_State_Penalty>  (304) 
2.64605

>  <r_epik_Charging_Adjusted_Penalty>  (304) 
2.72015

>  <i_epik_Tot_Q>  (304) 
1

>  <i_epik_Tot_abs_Q>  (304) 
1

>  <s_lp_Force_Field>  (304) 
OPLS3e

>  <r_lp_Energy>  (304) 
179.863

>  <b_lp_Chiralities_Consistent>  (304) 
1

>  <s_lp_Variant>  (304) 
97:0-4

>  <s_i_glide_gridfile>  (304) 
pfpi4k_grid

>  <i_i_glide_lignum>  (304) 
22

>  <i_i_glide_rotatable_bonds>  (304) 
4

>  <r_i_docking_score>  (304) 
-3.86283

>  <r_i_glide_ligand_efficiency>  (304) 
-0.137958

>  <r_i_glide_ligand_efficiency_sa>  (304) 
-0.418922

>  <r_i_glide_ligand_efficiency_ln>  (304) 
-0.891654

>  <r_i_glide_gscore>  (304) 
-3.86283

>  <r_i_glide_lipo>  (304) 
-0.892634

>  <r_i_glide_hbond>  (304) 
-0.257073

>  <r_i_glide_metal>  (304) 
-0

>  <r_i_glide_rewards>  (304) 
-0.800713

>  <r_i_glide_evdw>  (304) 
-17.3293

>  <r_i_glide_ecoul>  (304) 
-9.57786

>  <r_i_glide_erotb>  (304) 
0.398137

>  <r_i_glide_esite>  (304) 
-0.00739767

>  <r_i_glide_emodel>  (304) 
-29.845

>  <r_i_glide_energy>  (304) 
-26.9072

>  <r_i_glide_einternal>  (304) 
11.722

>  <r_i_glide_intrahb_reward>  (304) 
-0

>  <i_i_glide_confnum>  (304) 
6

>  <i_i_glide_posenum>  (304) 
8

>  <r_i_glide_eff_state_penalty>  (304) 
0

>  <ligand_id>  (304) 
97

>  <original_smiles>  (304) 
CN1CCN(CCN2C3Cc4ccc(O)cc4C24C2CC3C(C)(C)C4C2)CC1

>  <smiles>  (304) 
[H]Oc1c([H])c([H])c2c(c1[H])C13N(C([H])([H])C([H])([H])[N+]4([H])C([H])([H])C([H])([H])N(C([H])([H])[H])C([H])([H])C4([H])[H])C([H])(C2([H])[H])C2([H])C([H])([H])C1([H])C([H])([H])C3([H])C2(C([H])([H])[H])C([H])([H])[H]

$$$$
97:3:1
     RDKit          3D

 64 69  0  0  1  0  0  0  0  0999 V2000
   -2.1502    2.8231    3.9441 C   0  0  0  0  0  0  0  0  0  0  0  0
   -0.9044    2.0831    3.8006 N   0  0  0  0  0  0  0  0  0  0  0  0
    0.2114    3.0226    3.6860 C   0  0  0  0  0  0  0  0  0  0  0  0
    1.5318    2.2466    3.4794 C   0  0  0  0  0  0  0  0  0  0  0  0
    1.4802    1.3882    2.2635 N   0  0  0  0  0  0  0  0  0  0  0  0
    2.7508    0.6311    2.0536 C   0  0  0  0  0  0  0  0  0  0  0  0
    2.6218   -0.6756    1.2020 C   0  0  0  0  0  0  0  0  0  0  0  0
    3.4933   -1.7569    1.6533 N   0  0  0  0  0  0  0  0  0  0  0  0
    4.8733   -1.5673    1.9557 C   0  0  2  0  0  0  0  0  0  0  0  0
    5.4961   -1.2677    0.5008 C   0  0  0  0  0  0  0  0  0  0  0  0
    4.6818   -1.7981   -0.7344 C   0  0  0  0  0  0  0  0  0  0  0  0
    4.8965   -1.3161   -2.0480 C   0  0  0  0  0  0  0  0  0  0  0  0
    4.0656   -1.7573   -3.1006 C   0  0  0  0  0  0  0  0  0  0  0  0
    3.0108   -2.6678   -2.8560 C   0  0  0  0  0  0  0  0  0  0  0  0
    2.2180   -3.0625   -3.8808 O   0  0  0  0  0  0  0  0  0  0  0  0
    2.7714   -3.1505   -1.5561 C   0  0  0  0  0  0  0  0  0  0  0  0
    3.6165   -2.7032   -0.5133 C   0  0  0  0  0  0  0  0  0  0  0  0
    3.4597   -3.0720    0.9469 C   0  0  1  0  0  0  0  0  0  0  0  0
    4.7065   -4.1113    0.8968 C   0  0  1  0  0  0  0  0  0  0  0  0
    5.8305   -3.8519    1.8929 C   0  0  0  0  0  0  0  0  0  0  0  0
    5.1721   -2.8817    2.8585 C   0  0  2  0  0  0  0  0  0  0  0  0
    3.8602   -3.6952    3.3751 C   0  0  0  0  0  0  0  0  0  0  0  0
    4.2373   -4.9294    4.2482 C   0  0  0  0  0  0  0  0  0  0  0  0
    2.9622   -2.8387    4.3175 C   0  0  0  0  0  0  0  0  0  0  0  0
    3.0894   -4.1136    2.0507 C   0  0  2  0  0  0  0  0  0  0  0  0
    3.6961   -5.2094    1.1913 C   0  0  0  0  0  0  0  0  0  0  0  0
    0.2716    0.5297    2.3113 C   0  0  0  0  0  0  0  0  0  0  0  0
   -0.9913    1.3338    2.5519 C   0  0  0  0  0  0  0  0  0  0  0  0
   -2.1122    3.4616    4.8285 H   0  0  0  0  0  0  0  0  0  0  0  0
   -2.9788    2.1221    4.0668 H   0  0  0  0  0  0  0  0  0  0  0  0
   -2.3651    3.4413    3.0665 H   0  0  0  0  0  0  0  0  0  0  0  0
    0.0483    3.7331    2.8832 H   0  0  0  0  0  0  0  0  0  0  0  0
    0.2694    3.5932    4.6168 H   0  0  0  0  0  0  0  0  0  0  0  0
    2.3671    2.9483    3.4099 H   0  0  0  0  0  0  0  0  0  0  0  0
    1.7179    1.6240    4.3545 H   0  0  0  0  0  0  0  0  0  0  0  0
    3.4676    1.2881    1.5795 H   0  0  0  0  0  0  0  0  0  0  0  0
    3.1821    0.4056    3.0254 H   0  0  0  0  0  0  0  0  0  0  0  0
    1.6756   -1.1946    1.3309 H   0  0  0  0  0  0  0  0  0  0  0  0
    2.7127   -0.4257    0.1375 H   0  0  0  0  0  0  0  0  0  0  0  0
    5.0130   -0.7012    2.5990 H   0  0  0  0  0  0  0  0  0  0  0  0
    5.5290   -0.1830    0.3922 H   0  0  0  0  0  0  0  0  0  0  0  0
    6.5323   -1.5909    0.4146 H   0  0  0  0  0  0  0  0  0  0  0  0
    5.6625   -0.5924   -2.2387 H   0  0  0  0  0  0  0  0  0  0  0  0
    4.2317   -1.3898   -4.0981 H   0  0  0  0  0  0  0  0  0  0  0  0
    1.5433   -3.6928   -3.6590 H   0  0  0  0  0  0  0  0  0  0  0  0
    1.9463   -3.8148   -1.3671 H   0  0  0  0  0  0  0  0  0  0  0  0
    5.1097   -4.3586   -0.0945 H   0  0  0  0  0  0  0  0  0  0  0  0
    6.1758   -4.7648    2.3734 H   0  0  0  0  0  0  0  0  0  0  0  0
    6.7182   -3.4276    1.4332 H   0  0  0  0  0  0  0  0  0  0  0  0
    5.8270   -2.6360    3.6941 H   0  0  0  0  0  0  0  0  0  0  0  0
    3.3470   -5.4841    4.5539 H   0  0  0  0  0  0  0  0  0  0  0  0
    4.7623   -4.6142    5.1535 H   0  0  0  0  0  0  0  0  0  0  0  0
    4.8789   -5.6546    3.7511 H   0  0  0  0  0  0  0  0  0  0  0  0
    2.4113   -3.4494    5.0337 H   0  0  0  0  0  0  0  0  0  0  0  0
    2.2065   -2.2557    3.7899 H   0  0  0  0  0  0  0  0  0  0  0  0
    3.5642   -2.1395    4.8954 H   0  0  0  0  0  0  0  0  0  0  0  0
    2.0130   -4.2657    2.1566 H   0  0  0  0  0  0  0  0  0  0  0  0
    3.1020   -5.5031    0.3284 H   0  0  0  0  0  0  0  0  0  0  0  0
    4.1057   -6.0650    1.7371 H   0  0  0  0  0  0  0  0  0  0  0  0
    0.1245    0.0441    1.3463 H   0  0  0  0  0  0  0  0  0  0  0  0
    0.3955   -0.2352    3.0814 H   0  0  0  0  0  0  0  0  0  0  0  0
   -1.7988    0.6128    2.6064 H   0  0  0  0  0  0  0  0  0  0  0  0
   -1.1852    1.9942    1.7124 H   0  0  0  0  0  0  0  0  0  0  0  0
    1.3292    2.0170    1.4854 H   0  0  0  0  0  0  0  0  0  0  0  0
  1  2  1  0
  1 29  1  0
  1 30  1  0
  1 31  1  0
  2 28  1  0
  2  3  1  0
  3  4  1  0
  3 32  1  0
  3 33  1  0
  4  5  1  0
  4 34  1  0
  4 35  1  0
  5  6  1  0
  5 27  1  0
  5 64  1  0
  6  7  1  0
  6 36  1  0
  6 37  1  0
  7  8  1  0
  7 38  1  0
  7 39  1  0
  8 18  1  0
  8  9  1  0
  9 21  1  0
  9 10  1  0
  9 40  1  1
 10 11  1  0
 10 41  1  0
 10 42  1  0
 11 17  2  0
 11 12  1  0
 12 13  2  0
 12 43  1  0
 13 14  1  0
 13 44  1  0
 14 15  1  0
 14 16  2  0
 15 45  1  0
 16 17  1  0
 16 46  1  0
 18 17  1  6
 18 25  1  0
 18 19  1  0
 19 26  1  0
 19 20  1  0
 19 47  1  6
 20 21  1  0
 20 48  1  0
 20 49  1  0
 21 22  1  0
 21 50  1  1
 22 23  1  0
 22 24  1  0
 22 25  1  0
 23 51  1  0
 23 52  1  0
 23 53  1  0
 24 54  1  0
 24 55  1  0
 24 56  1  0
 25 26  1  0
 25 57  1  1
 26 58  1  0
 26 59  1  0
 27 28  1  0
 27 60  1  0
 27 61  1  0
 28 62  1  0
 28 63  1  0
M  CHG  1   5   1
M  END
>  <i_m_ct_stereo_status>  (305) 
1

>  <s_m_source_file>  (305) 
/var/tmp/pbs.5076255.sched01/tmp4tnmxshi/11480k6dy83.sdf

>  <i_m_source_file_index>  (305) 
22

>  <i_lp_mmshare_version>  (305) 
48012

>  <i_f3d_flags>  (305) 
0

>  <s_epik_input>  (305) 
W0NIM11OMVtDSDJdW0NIMl1OKFtDSDJdW0NIMl0xKVtDSDJdW0NIMl1OMltDQEhdKFtDSDJdYyhjM0MyNDUpW2NIXVtjSF1jKFtPSF0pW2NIXTMpW0NAQEhdNltDSDJdW0NASF00W0NIMl1bQ0BIXTVDNihbQ0gzXSlbQ0gzXQ==

>  <s_epik_cmdline>  (305) 
J2VwaWtfcHl0aG9uJywgJy1waHQnLCAnMi4wJywgJy1waCcsICc3LjAnLCAnLXRuJywgJzgnLCAnLW1hJywgJzIwMCcsICctaW1hZScsICc8aW5maWxlLm1hZT4nLCAnLW9tYWUnLCAnPG91dGZpbGUubWFlPic=

>  <r_epik_Ionization_Penalty>  (305) 
0.0943985

>  <r_epik_Ionization_Penalty_Charging>  (305) 
0.0740985

>  <r_epik_Ionization_Penalty_Neutral>  (305) 
0.0203

>  <r_epik_State_Penalty>  (305) 
2.64605

>  <r_epik_Charging_Adjusted_Penalty>  (305) 
2.72015

>  <i_epik_Tot_Q>  (305) 
1

>  <i_epik_Tot_abs_Q>  (305) 
1

>  <s_lp_Force_Field>  (305) 
OPLS3e

>  <r_lp_Energy>  (305) 
179.863

>  <b_lp_Chiralities_Consistent>  (305) 
1

>  <s_lp_Variant>  (305) 
97:0-4

>  <s_i_glide_gridfile>  (305) 
pfpi4k_grid

>  <i_i_glide_lignum>  (305) 
22

>  <i_i_glide_rotatable_bonds>  (305) 
4

>  <r_i_docking_score>  (305) 
-3.59565

>  <r_i_glide_ligand_efficiency>  (305) 
-0.128416

>  <r_i_glide_ligand_efficiency_sa>  (305) 
-0.389947

>  <r_i_glide_ligand_efficiency_ln>  (305) 
-0.829981

>  <r_i_glide_gscore>  (305) 
-3.59565

>  <r_i_glide_lipo>  (305) 
-0.486986

>  <r_i_glide_hbond>  (305) 
-0.32

>  <r_i_glide_metal>  (305) 
-0

>  <r_i_glide_rewards>  (305) 
-0.800713

>  <r_i_glide_evdw>  (305) 
-28.4602

>  <r_i_glide_ecoul>  (305) 
-6.25297

>  <r_i_glide_erotb>  (305) 
0.398137

>  <r_i_glide_esite>  (305) 
-0.0251314

>  <r_i_glide_emodel>  (305) 
-27.744

>  <r_i_glide_energy>  (305) 
-34.7131

>  <r_i_glide_einternal>  (305) 
28.3936

>  <r_i_glide_intrahb_reward>  (305) 
-0

>  <i_i_glide_confnum>  (305) 
6

>  <i_i_glide_posenum>  (305) 
35

>  <r_i_glide_eff_state_penalty>  (305) 
0

>  <ligand_id>  (305) 
97

>  <original_smiles>  (305) 
CN1CCN(CCN2C3Cc4ccc(O)cc4C24C2CC3C(C)(C)C4C2)CC1

>  <smiles>  (305) 
[H]Oc1c([H])c([H])c2c(c1[H])C13N(C([H])([H])C([H])([H])[N+]4([H])C([H])([H])C([H])([H])N(C([H])([H])[H])C([H])([H])C4([H])[H])C([H])(C2([H])[H])C2([H])C([H])([H])C1([H])C([H])([H])C3([H])C2(C([H])([H])[H])C([H])([H])[H]

$$$$
97:3:2
     RDKit          3D

 64 69  0  0  1  0  0  0  0  0999 V2000
    7.7865   -2.7815   -1.4616 C   0  0  0  0  0  0  0  0  0  0  0  0
    6.6666   -3.1721   -0.6145 N   0  0  0  0  0  0  0  0  0  0  0  0
    7.0860   -4.2619    0.2632 C   0  0  0  0  0  0  0  0  0  0  0  0
    5.9194   -4.7034    1.1608 C   0  0  0  0  0  0  0  0  0  0  0  0
    4.7366   -5.1227    0.3585 N   0  0  0  0  0  0  0  0  0  0  0  0
    3.6023   -5.6070    1.2055 C   0  0  0  0  0  0  0  0  0  0  0  0
    3.8823   -6.9924    1.8400 C   0  0  0  0  0  0  0  0  0  0  0  0
    2.7638   -7.4896    2.6504 N   0  0  0  0  0  0  0  0  0  0  0  0
    2.3266   -6.8021    3.8331 C   0  0  2  0  0  0  0  0  0  0  0  0
    3.5347   -7.0353    4.8741 C   0  0  0  0  0  0  0  0  0  0  0  0
    4.4693   -8.2709    4.5897 C   0  0  0  0  0  0  0  0  0  0  0  0
    5.7403   -8.4115    5.1801 C   0  0  0  0  0  0  0  0  0  0  0  0
    6.5667   -9.4947    4.8087 C   0  0  0  0  0  0  0  0  0  0  0  0
    6.1358  -10.4393    3.8533 C   0  0  0  0  0  0  0  0  0  0  0  0
    6.9564  -11.4709    3.4909 O   0  0  0  0  0  0  0  0  0  0  0  0
    4.8658  -10.3193    3.2526 C   0  0  0  0  0  0  0  0  0  0  0  0
    4.0437   -9.2319    3.6291 C   0  0  0  0  0  0  0  0  0  0  0  0
    2.6764   -8.9159    3.0565 C   0  0  1  0  0  0  0  0  0  0  0  0
    1.9198   -9.4713    4.3864 C   0  0  1  0  0  0  0  0  0  0  0  0
    0.9775   -8.4796    5.0837 C   0  0  0  0  0  0  0  0  0  0  0  0
    0.8297   -7.3995    4.0294 C   0  0  2  0  0  0  0  0  0  0  0  0
    0.2459   -8.2133    2.7403 C   0  0  0  0  0  0  0  0  0  0  0  0
   -1.1902   -8.7504    2.9685 C   0  0  0  0  0  0  0  0  0  0  0  0
    0.1126   -7.3053    1.4872 C   0  0  0  0  0  0  0  0  0  0  0  0
    1.2987   -9.4033    2.5045 C   0  0  2  0  0  0  0  0  0  0  0  0
    1.3080  -10.5366    3.5027 C   0  0  0  0  0  0  0  0  0  0  0  0
    4.3468   -4.0188   -0.5547 C   0  0  0  0  0  0  0  0  0  0  0  0
    5.5352   -3.5891   -1.4441 C   0  0  0  0  0  0  0  0  0  0  0  0
    8.6587   -2.5108   -0.8621 H   0  0  0  0  0  0  0  0  0  0  0  0
    7.5135   -1.9149   -2.0624 H   0  0  0  0  0  0  0  0  0  0  0  0
    8.0859   -3.5788   -2.1470 H   0  0  0  0  0  0  0  0  0  0  0  0
    7.4669   -5.1067   -0.2979 H   0  0  0  0  0  0  0  0  0  0  0  0
    7.9077   -3.9220    0.8859 H   0  0  0  0  0  0  0  0  0  0  0  0
    6.2765   -5.5221    1.7900 H   0  0  0  0  0  0  0  0  0  0  0  0
    5.6353   -3.8890    1.8305 H   0  0  0  0  0  0  0  0  0  0  0  0
    3.3883   -4.8584    1.9695 H   0  0  0  0  0  0  0  0  0  0  0  0
    2.6927   -5.6717    0.6012 H   0  0  0  0  0  0  0  0  0  0  0  0
    4.0507   -7.7129    1.0421 H   0  0  0  0  0  0  0  0  0  0  0  0
    4.7829   -6.9637    2.4481 H   0  0  0  0  0  0  0  0  0  0  0  0
    2.2232   -5.7399    3.6441 H   0  0  0  0  0  0  0  0  0  0  0  0
    4.1824   -6.1639    4.8273 H   0  0  0  0  0  0  0  0  0  0  0  0
    3.2105   -7.0703    5.9082 H   0  0  0  0  0  0  0  0  0  0  0  0
    6.1019   -7.6850    5.8934 H   0  0  0  0  0  0  0  0  0  0  0  0
    7.5443   -9.5951    5.2592 H   0  0  0  0  0  0  0  0  0  0  0  0
    7.7592  -11.5106    3.9978 H   0  0  0  0  0  0  0  0  0  0  0  0
    4.5332  -11.0307    2.5064 H   0  0  0  0  0  0  0  0  0  0  0  0
    2.5063  -10.0244    5.1216 H   0  0  0  0  0  0  0  0  0  0  0  0
    0.0347   -8.9413    5.3685 H   0  0  0  0  0  0  0  0  0  0  0  0
    1.3798   -8.0976    6.0181 H   0  0  0  0  0  0  0  0  0  0  0  0
    0.1352   -6.6323    4.3547 H   0  0  0  0  0  0  0  0  0  0  0  0
   -1.5340   -9.3274    2.1063 H   0  0  0  0  0  0  0  0  0  0  0  0
   -1.8914   -7.9327    3.1272 H   0  0  0  0  0  0  0  0  0  0  0  0
   -1.2899   -9.4195    3.8168 H   0  0  0  0  0  0  0  0  0  0  0  0
   -0.6715   -7.6549    0.8175 H   0  0  0  0  0  0  0  0  0  0  0  0
    1.0089   -7.2790    0.8731 H   0  0  0  0  0  0  0  0  0  0  0  0
   -0.1241   -6.2870    1.7759 H   0  0  0  0  0  0  0  0  0  0  0  0
    1.3855   -9.7743    1.4933 H   0  0  0  0  0  0  0  0  0  0  0  0
    1.9982  -11.3531    3.2578 H   0  0  0  0  0  0  0  0  0  0  0  0
    0.3304  -10.9004    3.8191 H   0  0  0  0  0  0  0  0  0  0  0  0
    3.5181   -4.3279   -1.1928 H   0  0  0  0  0  0  0  0  0  0  0  0
    3.9891   -3.1665    0.0240 H   0  0  0  0  0  0  0  0  0  0  0  0
    5.2309   -2.7555   -2.0820 H   0  0  0  0  0  0  0  0  0  0  0  0
    5.8103   -4.3970   -2.1212 H   0  0  0  0  0  0  0  0  0  0  0  0
    5.0182   -5.8875   -0.2360 H   0  0  0  0  0  0  0  0  0  0  0  0
  1  2  1  0
  1 29  1  0
  1 30  1  0
  1 31  1  0
  2 28  1  0
  2  3  1  0
  3  4  1  0
  3 32  1  0
  3 33  1  0
  4  5  1  0
  4 34  1  0
  4 35  1  0
  5  6  1  0
  5 27  1  0
  5 64  1  0
  6  7  1  0
  6 36  1  0
  6 37  1  0
  7  8  1  0
  7 38  1  0
  7 39  1  0
  8 18  1  0
  8  9  1  0
  9 21  1  0
  9 10  1  0
  9 40  1  6
 10 11  1  0
 10 41  1  0
 10 42  1  0
 11 17  2  0
 11 12  1  0
 12 13  2  0
 12 43  1  0
 13 14  1  0
 13 44  1  0
 14 15  1  0
 14 16  2  0
 15 45  1  0
 16 17  1  0
 16 46  1  0
 18 17  1  6
 18 25  1  0
 18 19  1  0
 19 26  1  0
 19 20  1  0
 19 47  1  1
 20 21  1  0
 20 48  1  0
 20 49  1  0
 21 22  1  0
 21 50  1  1
 22 23  1  0
 22 24  1  0
 22 25  1  0
 23 51  1  0
 23 52  1  0
 23 53  1  0
 24 54  1  0
 24 55  1  0
 24 56  1  0
 25 26  1  0
 25 57  1  6
 26 58  1  0
 26 59  1  0
 27 28  1  0
 27 60  1  0
 27 61  1  0
 28 62  1  0
 28 63  1  0
M  CHG  1   5   1
M  END
>  <i_m_ct_stereo_status>  (306) 
1

>  <s_m_source_file>  (306) 
/var/tmp/pbs.5076255.sched01/tmp4tnmxshi/11480k6dy83.sdf

>  <i_m_source_file_index>  (306) 
22

>  <i_lp_mmshare_version>  (306) 
48012

>  <i_f3d_flags>  (306) 
0

>  <s_epik_input>  (306) 
W0NIM11OMVtDSDJdW0NIMl1OKFtDSDJdW0NIMl0xKVtDSDJdW0NIMl1OMltDQEhdKFtDSDJdYyhjM0MyNDUpW2NIXVtjSF1jKFtPSF0pW2NIXTMpW0NAQEhdNltDSDJdW0NASF00W0NIMl1bQ0BIXTVDNihbQ0gzXSlbQ0gzXQ==

>  <s_epik_cmdline>  (306) 
J2VwaWtfcHl0aG9uJywgJy1waHQnLCAnMi4wJywgJy1waCcsICc3LjAnLCAnLXRuJywgJzgnLCAnLW1hJywgJzIwMCcsICctaW1hZScsICc8aW5maWxlLm1hZT4nLCAnLW9tYWUnLCAnPG91dGZpbGUubWFlPic=

>  <r_epik_Ionization_Penalty>  (306) 
0.0943985

>  <r_epik_Ionization_Penalty_Charging>  (306) 
0.0740985

>  <r_epik_Ionization_Penalty_Neutral>  (306) 
0.0203

>  <r_epik_State_Penalty>  (306) 
2.64605

>  <r_epik_Charging_Adjusted_Penalty>  (306) 
2.72015

>  <i_epik_Tot_Q>  (306) 
1

>  <i_epik_Tot_abs_Q>  (306) 
1

>  <s_lp_Force_Field>  (306) 
OPLS3e

>  <r_lp_Energy>  (306) 
179.863

>  <b_lp_Chiralities_Consistent>  (306) 
1

>  <s_lp_Variant>  (306) 
97:0-4

>  <s_i_glide_gridfile>  (306) 
pfpi4k_grid

>  <i_i_glide_lignum>  (306) 
22

>  <i_i_glide_rotatable_bonds>  (306) 
4

>  <r_i_docking_score>  (306) 
-2.38454

>  <r_i_glide_ligand_efficiency>  (306) 
-0.085162

>  <r_i_glide_ligand_efficiency_sa>  (306) 
-0.258602

>  <r_i_glide_ligand_efficiency_ln>  (306) 
-0.550421

>  <r_i_glide_gscore>  (306) 
-2.38454

>  <r_i_glide_lipo>  (306) 
-0.53982

>  <r_i_glide_hbond>  (306) 
0

>  <r_i_glide_metal>  (306) 
-0

>  <r_i_glide_rewards>  (306) 
-0.800713

>  <r_i_glide_evdw>  (306) 
-21.9807

>  <r_i_glide_ecoul>  (306) 
-2.28738

>  <r_i_glide_erotb>  (306) 
0.398137

>  <r_i_glide_esite>  (306) 
0

>  <r_i_glide_emodel>  (306) 
-28.9702

>  <r_i_glide_energy>  (306) 
-24.2681

>  <r_i_glide_einternal>  (306) 
1.73553

>  <r_i_glide_intrahb_reward>  (306) 
-0

>  <i_i_glide_confnum>  (306) 
4

>  <i_i_glide_posenum>  (306) 
2

>  <r_i_glide_eff_state_penalty>  (306) 
0

>  <ligand_id>  (306) 
97

>  <original_smiles>  (306) 
CN1CCN(CCN2C3Cc4ccc(O)cc4C24C2CC3C(C)(C)C4C2)CC1

>  <smiles>  (306) 
[H]Oc1c([H])c([H])c2c(c1[H])C13N(C([H])([H])C([H])([H])[N+]4([H])C([H])([H])C([H])([H])N(C([H])([H])[H])C([H])([H])C4([H])[H])C([H])(C2([H])[H])C2([H])C([H])([H])C1([H])C([H])([H])C3([H])C2(C([H])([H])[H])C([H])([H])[H]

$$$$
99:1:0
     RDKit          3D

 93 98  0  0  1  0  0  0  0  0999 V2000
    2.1602   -9.6855    1.9062 C   0  0  0  0  0  0  0  0  0  0  0  0
    2.6420   -8.4412    2.3955 O   0  0  0  0  0  0  0  0  0  0  0  0
    2.8212   -8.2574    3.7954 C   0  0  2  0  0  0  0  0  0  0  0  0
    1.5115   -8.1537    4.6529 C   0  0  2  0  0  0  0  0  0  0  0  0
    0.9870   -6.7061    5.1501 C   0  0  2  0  0  0  0  0  0  0  0  0
    0.6447   -5.5810    4.0985 C   0  0  0  0  0  0  0  0  0  0  0  0
    1.6934   -4.5023    3.7374 C   0  0  0  0  0  0  0  0  0  0  0  0
    2.4832   -4.5251    2.6278 C   0  0  0  0  0  0  0  0  0  0  0  0
    2.5193   -5.7170    1.7277 C   0  0  1  0  0  0  0  0  0  0  0  0
    1.8456   -5.4617    0.4977 O   0  0  0  0  0  0  0  0  0  0  0  0
    4.0595   -6.0001    1.6376 C   0  0  1  0  0  0  0  0  0  0  0  0
    4.4042   -6.9703    0.4774 C   0  0  0  0  0  0  0  0  0  0  0  0
    4.4336   -4.5251    1.1751 C   0  0  1  0  0  0  0  0  0  0  0  0
    4.0423   -4.1816   -0.1587 O   0  0  0  0  0  0  0  0  0  0  0  0
    5.0456   -4.3128   -1.1696 C   0  0  0  0  0  0  0  0  0  0  0  0
    3.6730   -3.6310    2.1909 C   0  0  1  0  0  0  0  0  0  0  0  0
    3.2748   -2.2382    1.9534 O   0  0  0  0  0  0  0  0  0  0  0  0
    3.9600   -1.8058    3.1904 C   0  0  0  0  0  0  0  0  0  0  0  0
    4.7684   -0.5535    2.8178 C   0  0  0  0  0  0  0  0  0  0  0  0
    3.0340   -1.4831    4.3731 C   0  0  0  0  0  0  0  0  0  0  0  0
    4.6925   -3.1397    3.1933 C   0  0  1  0  0  0  0  0  0  0  0  0
    5.0579   -4.0864    4.2991 C   0  0  0  0  0  0  0  0  0  0  0  0
    5.7280   -5.3695    3.6714 C   0  0  1  0  0  0  0  0  0  0  0  0
    6.6895   -5.8650    4.5918 O   0  0  0  0  0  0  0  0  0  0  0  0
    7.9480   -6.2561    4.2413 C   0  0  0  0  0  0  0  0  0  0  0  0
    8.2924   -6.1682    2.7446 C   0  0  0  0  0  0  0  0  0  0  0  0
    8.7649   -6.6547    5.0548 O   0  0  0  0  0  0  0  0  0  0  0  0
    4.7662   -6.5020    3.0772 C   0  0  2  0  0  0  0  0  0  0  0  0
    5.5895   -7.5961    2.7616 O   0  0  0  0  0  0  0  0  0  0  0  0
    3.8157   -7.1372    4.2191 C   0  0  2  0  0  0  0  0  0  0  0  0
    4.3108   -7.4924    5.7186 C   0  0  2  0  0  0  0  0  0  0  0  0
    4.2423   -9.0051    6.1201 C   0  0  0  0  0  0  0  0  0  0  0  0
    2.8927   -9.7916    6.3171 C   0  0  1  0  0  0  0  0  0  0  0  0
    2.8072  -10.2518    7.6561 O   0  0  0  0  0  0  0  0  0  0  0  0
    1.4817   -9.3574    5.6984 C   0  0  0  0  0  0  0  0  0  0  0  0
    0.3935   -9.1643    6.7938 C   0  0  0  0  0  0  0  0  0  0  0  0
    0.9566  -10.6106    4.9414 C   0  0  0  0  0  0  0  0  0  0  0  0
    3.8734   -6.5320    6.9153 C   0  0  0  0  0  0  0  0  0  0  0  0
    3.5272   -7.2103    8.2753 C   0  0  0  0  0  0  0  0  0  0  0  0
    5.0170   -5.5823    7.3506 C   0  0  0  0  0  0  0  0  0  0  0  0
    2.7962   -5.6912    6.4889 O   0  0  0  0  0  0  0  0  0  0  0  0
    1.5149   -6.1082    6.4795 C   0  0  0  0  0  0  0  0  0  0  0  0
    0.7535   -5.9312    7.4258 O   0  0  0  0  0  0  0  0  0  0  0  0
    2.1547   -9.6481    0.8182 H   0  0  0  0  0  0  0  0  0  0  0  0
    1.1395   -9.8766    2.2314 H   0  0  0  0  0  0  0  0  0  0  0  0
    2.8005  -10.5222    2.1891 H   0  0  0  0  0  0  0  0  0  0  0  0
    3.3075   -9.2113    3.9426 H   0  0  0  0  0  0  0  0  0  0  0  0
    0.7208   -8.3927    3.9413 H   0  0  0  0  0  0  0  0  0  0  0  0
   -0.0239   -6.9681    5.4562 H   0  0  0  0  0  0  0  0  0  0  0  0
    0.2061   -6.0294    3.2083 H   0  0  0  0  0  0  0  0  0  0  0  0
   -0.1803   -4.9989    4.5098 H   0  0  0  0  0  0  0  0  0  0  0  0
    1.7905   -3.7039    4.4476 H   0  0  0  0  0  0  0  0  0  0  0  0
    1.9130   -6.4743    2.1579 H   0  0  0  0  0  0  0  0  0  0  0  0
    2.4893   -5.0958   -0.1082 H   0  0  0  0  0  0  0  0  0  0  0  0
    5.4684   -6.9039    0.2601 H   0  0  0  0  0  0  0  0  0  0  0  0
    3.8768   -6.7158   -0.4362 H   0  0  0  0  0  0  0  0  0  0  0  0
    4.1894   -8.0202    0.6680 H   0  0  0  0  0  0  0  0  0  0  0  0
    5.5080   -4.3673    1.1704 H   0  0  0  0  0  0  0  0  0  0  0  0
    4.6472   -4.0385   -2.1484 H   0  0  0  0  0  0  0  0  0  0  0  0
    5.4090   -5.3360   -1.2446 H   0  0  0  0  0  0  0  0  0  0  0  0
    5.9053   -3.6728   -0.9670 H   0  0  0  0  0  0  0  0  0  0  0  0
    5.4407   -0.2535    3.6261 H   0  0  0  0  0  0  0  0  0  0  0  0
    4.1031    0.2829    2.6091 H   0  0  0  0  0  0  0  0  0  0  0  0
    5.3732   -0.7155    1.9250 H   0  0  0  0  0  0  0  0  0  0  0  0
    3.1344   -2.2152    5.1817 H   0  0  0  0  0  0  0  0  0  0  0  0
    1.9899   -1.4351    4.0673 H   0  0  0  0  0  0  0  0  0  0  0  0
    3.2871   -0.5245    4.8292 H   0  0  0  0  0  0  0  0  0  0  0  0
    5.6319   -2.8991    2.6822 H   0  0  0  0  0  0  0  0  0  0  0  0
    5.7810   -3.5776    4.9367 H   0  0  0  0  0  0  0  0  0  0  0  0
    4.1924   -4.3112    4.9218 H   0  0  0  0  0  0  0  0  0  0  0  0
    6.3286   -4.9992    2.8594 H   0  0  0  0  0  0  0  0  0  0  0  0
    7.5528   -6.6869    2.1387 H   0  0  0  0  0  0  0  0  0  0  0  0
    9.2689   -6.5986    2.5568 H   0  0  0  0  0  0  0  0  0  0  0  0
    8.3452   -5.1151    2.4393 H   0  0  0  0  0  0  0  0  0  0  0  0
    5.0216   -8.2852    2.4397 H   0  0  0  0  0  0  0  0  0  0  0  0
    3.2257   -6.2669    4.3343 H   0  0  0  0  0  0  0  0  0  0  0  0
    5.3896   -7.3988    5.6849 H   0  0  0  0  0  0  0  0  0  0  0  0
    4.8301   -9.5463    5.3761 H   0  0  0  0  0  0  0  0  0  0  0  0
    4.8621   -9.1565    7.0066 H   0  0  0  0  0  0  0  0  0  0  0  0
    3.1406  -10.7412    5.8391 H   0  0  0  0  0  0  0  0  0  0  0  0
    2.2231  -11.0096    7.6832 H   0  0  0  0  0  0  0  0  0  0  0  0
    0.1942  -10.0950    7.3258 H   0  0  0  0  0  0  0  0  0  0  0  0
   -0.5582   -8.8570    6.3606 H   0  0  0  0  0  0  0  0  0  0  0  0
    0.6701   -8.4489    7.5604 H   0  0  0  0  0  0  0  0  0  0  0  0
    0.8088  -11.4511    5.6205 H   0  0  0  0  0  0  0  0  0  0  0  0
    1.6512  -10.9630    4.1813 H   0  0  0  0  0  0  0  0  0  0  0  0
   -0.0037  -10.4261    4.4578 H   0  0  0  0  0  0  0  0  0  0  0  0
    4.3603   -7.7939    8.6696 H   0  0  0  0  0  0  0  0  0  0  0  0
    2.6625   -7.8590    8.2269 H   0  0  0  0  0  0  0  0  0  0  0  0
    3.2866   -6.4637    9.0343 H   0  0  0  0  0  0  0  0  0  0  0  0
    5.8698   -6.1363    7.7434 H   0  0  0  0  0  0  0  0  0  0  0  0
    4.6878   -4.8952    8.1320 H   0  0  0  0  0  0  0  0  0  0  0  0
    5.4096   -4.9594    6.5687 H   0  0  0  0  0  0  0  0  0  0  0  0
  1  2  1  0
  1 44  1  0
  1 45  1  0
  1 46  1  0
  2  3  1  0
  3 30  1  0
  3  4  1  0
  3 47  1  1
  4 35  1  0
  4  5  1  0
  4 48  1  6
  5 42  1  0
  5  6  1  0
  5 49  1  1
  6  7  1  0
  6 50  1  0
  6 51  1  0
  7  8  2  3
  7 52  1  0
  8 16  1  0
  8  9  1  0
  9 10  1  0
  9 11  1  0
  9 53  1  1
 10 54  1  0
 11 28  1  0
 11 12  1  6
 11 13  1  0
 12 55  1  0
 12 56  1  0
 12 57  1  0
 13 14  1  0
 13 16  1  0
 13 58  1  6
 14 15  1  0
 15 59  1  0
 15 60  1  0
 15 61  1  0
 16 21  1  0
 16 17  1  6
 17 18  1  0
 18 19  1  0
 18 20  1  0
 18 21  1  0
 19 62  1  0
 19 63  1  0
 19 64  1  0
 20 65  1  0
 20 66  1  0
 20 67  1  0
 21 22  1  0
 21 68  1  6
 22 23  1  0
 22 69  1  0
 22 70  1  0
 23 24  1  0
 23 28  1  0
 23 71  1  6
 24 25  1  0
 25 26  1  0
 25 27  2  0
 26 72  1  0
 26 73  1  0
 26 74  1  0
 28 29  1  6
 28 30  1  0
 29 75  1  0
 30 31  1  0
 30 76  1  1
 31 32  1  0
 31 38  1  0
 31 77  1  6
 32 33  1  0
 32 78  1  0
 32 79  1  0
 33 34  1  0
 33 35  1  0
 33 80  1  6
 34 81  1  0
 35 36  1  0
 35 37  1  0
 36 82  1  0
 36 83  1  0
 36 84  1  0
 37 85  1  0
 37 86  1  0
 37 87  1  0
 38 39  1  0
 38 40  1  0
 38 41  1  0
 39 88  1  0
 39 89  1  0
 39 90  1  0
 40 91  1  0
 40 92  1  0
 40 93  1  0
 41 42  1  0
 42 43  2  0
M  END
>  <i_m_ct_stereo_status>  (307) 
1

>  <s_m_source_file>  (307) 
/var/tmp/pbs.5076255.sched01/tmp4tnmxshi/11480k6dy83.sdf

>  <i_m_source_file_index>  (307) 
25

>  <i_lp_mmshare_version>  (307) 
48012

>  <i_f3d_flags>  (307) 
0

>  <s_epik_input>  (307) 
W0NAXTEyM0MvND1bQ0hdXFtDSDJdW0NASF01W0NASF02W0NAQEhdKE9bQ0gzXSlbQ0BASF0oW0NAQEhdKEMoW0NIM10pKFtDSDNdKU9DNT1PKVtDSDJdW0NAQEhdKFtPSF0pQzYoW0NIM10pW0NIM10pW0NAQF0oW09IXSkoW0NAQF0oW0NIM10pKFtDQEBIXTRbT0hdKVtDQEhdMU9bQ0gzXSlbQ0BIXShPQyg9TylbQ0gzXSlbQ0gyXVtDQEBIXTNDKE8yKShbQ0gzXSlbQ0gzXQ==

>  <s_epik_cmdline>  (307) 
J2VwaWtfcHl0aG9uJywgJy1waHQnLCAnMi4wJywgJy1waCcsICc3LjAnLCAnLXRuJywgJzgnLCAnLW1hJywgJzIwMCcsICctaW1hZScsICc8aW5maWxlLm1hZT4nLCAnLW9tYWUnLCAnPG91dGZpbGUubWFlPic=

>  <r_lp_tautomer_probability>  (307) 
1

>  <r_epik_Ionization_Penalty>  (307) 
9.83206e-07

>  <r_epik_Ionization_Penalty_Charging>  (307) 
0

>  <r_epik_Ionization_Penalty_Neutral>  (307) 
9.83206e-07

>  <r_epik_State_Penalty>  (307) 
-0

>  <r_epik_Charging_Adjusted_Penalty>  (307) 
0

>  <i_epik_Tot_Q>  (307) 
0

>  <i_epik_Tot_abs_Q>  (307) 
0

>  <s_epik_Chemistry_Notes>  (307) 
This compound has an ester and may undergo hydrolysis at high or low pH.

>  <s_lp_Force_Field>  (307) 
OPLS3e

>  <r_lp_Energy>  (307) 
174.633

>  <b_lp_Chiralities_Consistent>  (307) 
1

>  <s_lp_Variant>  (307) 
99:0-2

>  <s_i_glide_gridfile>  (307) 
pfpi4k_grid

>  <i_i_glide_lignum>  (307) 
25

>  <i_i_glide_rotatable_bonds>  (307) 
7

>  <r_i_docking_score>  (307) 
-3.47842

>  <r_i_glide_ligand_efficiency>  (307) 
-0.0808936

>  <r_i_glide_ligand_efficiency_sa>  (307) 
-0.283402

>  <r_i_glide_ligand_efficiency_ln>  (307) 
-0.730577

>  <r_i_glide_gscore>  (307) 
-3.47842

>  <r_i_glide_lipo>  (307) 
-0.429835

>  <r_i_glide_hbond>  (307) 
-0.16

>  <r_i_glide_metal>  (307) 
-0

>  <r_i_glide_rewards>  (307) 
-0.531431

>  <r_i_glide_evdw>  (307) 
-23.5957

>  <r_i_glide_ecoul>  (307) 
-8.23004

>  <r_i_glide_erotb>  (307) 
0.0571345

>  <r_i_glide_esite>  (307) 
0

>  <r_i_glide_emodel>  (307) 
-39.3907

>  <r_i_glide_energy>  (307) 
-31.8258

>  <r_i_glide_einternal>  (307) 
8.79801

>  <r_i_glide_intrahb_reward>  (307) 
-0.5

>  <i_i_glide_confnum>  (307) 
1

>  <i_i_glide_posenum>  (307) 
1

>  <r_i_glide_eff_state_penalty>  (307) 
0

>  <ligand_id>  (307) 
99

>  <original_smiles>  (307) 
COC1C2C3CC=C4C(O)C5(C)C(OC)C46OC(C)(C)C6CC(OC(C)=O)C5(O)C1C(CC(O)C2(C)C)C(C)(C)OC3=O

>  <smiles>  (307) 
[H]OC1([H])C2=C([H])C([H])([H])C3([H])C(=O)OC(C([H])([H])[H])(C([H])([H])[H])C4([H])C([H])([H])C([H])(O[H])C(C([H])([H])[H])(C([H])([H])[H])C3([H])C([H])(OC([H])([H])[H])C4([H])C3(O[H])C([H])(OC(=O)C([H])([H])[H])C([H])([H])C4([H])C2(OC4(C([H])([H])[H])C([H])([H])[H])C([H])(OC([H])([H])[H])C13C([H])([H])[H]

$$$$
99:1:1
     RDKit          3D

 93 98  0  0  1  0  0  0  0  0999 V2000
    4.9836   -9.7376    2.1779 C   0  0  0  0  0  0  0  0  0  0  0  0
    4.7232   -8.3915    2.5521 O   0  0  0  0  0  0  0  0  0  0  0  0
    3.7189   -8.1165    3.5230 C   0  0  2  0  0  0  0  0  0  0  0  0
    2.2457   -8.4971    3.1289 C   0  0  2  0  0  0  0  0  0  0  0  0
    1.2167   -7.3608    2.6275 C   0  0  2  0  0  0  0  0  0  0  0  0
    1.5544   -6.4713    1.3666 C   0  0  0  0  0  0  0  0  0  0  0  0
    2.2187   -5.0843    1.5462 C   0  0  0  0  0  0  0  0  0  0  0  0
    3.5377   -4.8216    1.3796 C   0  0  0  0  0  0  0  0  0  0  0  0
    4.5212   -5.9324    1.2058 C   0  0  1  0  0  0  0  0  0  0  0  0
    4.9847   -5.9838   -0.1336 O   0  0  0  0  0  0  0  0  0  0  0  0
    5.5944   -5.5877    2.2949 C   0  0  1  0  0  0  0  0  0  0  0  0
    6.9363   -6.3576    2.0896 C   0  0  0  0  0  0  0  0  0  0  0  0
    5.8207   -4.1018    1.7857 C   0  0  1  0  0  0  0  0  0  0  0  0
    6.5620   -4.0032    0.5678 O   0  0  0  0  0  0  0  0  0  0  0  0
    7.0332   -2.7066    0.2271 C   0  0  0  0  0  0  0  0  0  0  0  0
    4.3827   -3.5568    1.6430 C   0  0  1  0  0  0  0  0  0  0  0  0
    3.9762   -2.4440    0.7835 O   0  0  0  0  0  0  0  0  0  0  0  0
    3.3759   -1.7419    1.9326 C   0  0  0  0  0  0  0  0  0  0  0  0
    3.8660   -0.2900    1.8529 C   0  0  0  0  0  0  0  0  0  0  0  0
    1.8468   -1.7668    1.9381 C   0  0  0  0  0  0  0  0  0  0  0  0
    4.1239   -2.6921    2.8464 C   0  0  1  0  0  0  0  0  0  0  0  0
    3.7119   -3.3887    4.0960 C   0  0  0  0  0  0  0  0  0  0  0  0
    4.8719   -4.3265    4.5676 C   0  0  1  0  0  0  0  0  0  0  0  0
    4.7864   -4.3686    5.9950 O   0  0  0  0  0  0  0  0  0  0  0  0
    5.2867   -3.4036    6.8141 C   0  0  0  0  0  0  0  0  0  0  0  0
    6.2727   -2.4326    6.1788 C   0  0  0  0  0  0  0  0  0  0  0  0
    5.0001   -3.3108    8.0042 O   0  0  0  0  0  0  0  0  0  0  0  0
    5.0206   -5.7431    3.8694 C   0  0  2  0  0  0  0  0  0  0  0  0
    6.0547   -6.3359    4.6360 O   0  0  0  0  0  0  0  0  0  0  0  0
    3.7395   -6.6930    4.1518 C   0  0  2  0  0  0  0  0  0  0  0  0
    2.9514   -6.7849    5.5667 C   0  0  2  0  0  0  0  0  0  0  0  0
    2.9431   -8.1958    6.2440 C   0  0  0  0  0  0  0  0  0  0  0  0
    2.1550   -9.4369    5.6728 C   0  0  1  0  0  0  0  0  0  0  0  0
    1.1697   -9.8499    6.6064 O   0  0  0  0  0  0  0  0  0  0  0  0
    1.6994   -9.5913    4.1479 C   0  0  0  0  0  0  0  0  0  0  0  0
    0.1663   -9.7986    4.0198 C   0  0  0  0  0  0  0  0  0  0  0  0
    2.2441  -10.9743    3.6926 C   0  0  0  0  0  0  0  0  0  0  0  0
    1.5502   -6.0338    5.7204 C   0  0  0  0  0  0  0  0  0  0  0  0
    0.4512   -6.7529    6.5594 C   0  0  0  0  0  0  0  0  0  0  0  0
    1.6774   -4.7035    6.5019 C   0  0  0  0  0  0  0  0  0  0  0  0
    1.0436   -5.6916    4.4272 O   0  0  0  0  0  0  0  0  0  0  0  0
    0.3815   -6.5773    3.6633 C   0  0  0  0  0  0  0  0  0  0  0  0
   -0.8461   -6.6595    3.6592 O   0  0  0  0  0  0  0  0  0  0  0  0
    5.8064   -9.7467    1.4641 H   0  0  0  0  0  0  0  0  0  0  0  0
    4.1297  -10.1982    1.6853 H   0  0  0  0  0  0  0  0  0  0  0  0
    5.2887  -10.3501    3.0261 H   0  0  0  0  0  0  0  0  0  0  0  0
    4.1144   -8.8149    4.2508 H   0  0  0  0  0  0  0  0  0  0  0  0
    2.3502   -9.0400    2.1917 H   0  0  0  0  0  0  0  0  0  0  0  0
    0.4374   -7.9819    2.1931 H   0  0  0  0  0  0  0  0  0  0  0  0
    2.0856   -7.0604    0.6209 H   0  0  0  0  0  0  0  0  0  0  0  0
    0.6108   -6.2640    0.8549 H   0  0  0  0  0  0  0  0  0  0  0  0
    1.5570   -4.2935    1.8352 H   0  0  0  0  0  0  0  0  0  0  0  0
    4.0102   -6.8637    1.2857 H   0  0  0  0  0  0  0  0  0  0  0  0
    4.2481   -6.0458   -0.7197 H   0  0  0  0  0  0  0  0  0  0  0  0
    7.7408   -5.8865    2.6544 H   0  0  0  0  0  0  0  0  0  0  0  0
    7.2585   -6.3654    1.0495 H   0  0  0  0  0  0  0  0  0  0  0  0
    6.8982   -7.3988    2.4085 H   0  0  0  0  0  0  0  0  0  0  0  0
    6.4445   -3.5509    2.4814 H   0  0  0  0  0  0  0  0  0  0  0  0
    7.5910   -2.7587   -0.7073 H   0  0  0  0  0  0  0  0  0  0  0  0
    7.7035   -2.3127    0.9863 H   0  0  0  0  0  0  0  0  0  0  0  0
    6.2241   -1.9964    0.0827 H   0  0  0  0  0  0  0  0  0  0  0  0
    3.5838    0.2751    2.7428 H   0  0  0  0  0  0  0  0  0  0  0  0
    3.4395    0.2194    0.9890 H   0  0  0  0  0  0  0  0  0  0  0  0
    4.9498   -0.2329    1.7567 H   0  0  0  0  0  0  0  0  0  0  0  0
    1.4511   -2.3770    2.7507 H   0  0  0  0  0  0  0  0  0  0  0  0
    1.4614   -2.1487    0.9964 H   0  0  0  0  0  0  0  0  0  0  0  0
    1.4267   -0.7725    2.0882 H   0  0  0  0  0  0  0  0  0  0  0  0
    5.0281   -2.1329    3.0839 H   0  0  0  0  0  0  0  0  0  0  0  0
    3.5167   -2.6162    4.8381 H   0  0  0  0  0  0  0  0  0  0  0  0
    2.7783   -3.9248    3.9614 H   0  0  0  0  0  0  0  0  0  0  0  0
    5.8165   -3.8537    4.3461 H   0  0  0  0  0  0  0  0  0  0  0  0
    7.0858   -3.0275    5.7599 H   0  0  0  0  0  0  0  0  0  0  0  0
    6.6935   -1.7302    6.8987 H   0  0  0  0  0  0  0  0  0  0  0  0
    5.8050   -1.8545    5.3803 H   0  0  0  0  0  0  0  0  0  0  0  0
    5.7416   -6.4479    5.5204 H   0  0  0  0  0  0  0  0  0  0  0  0
    3.0996   -6.1134    3.5435 H   0  0  0  0  0  0  0  0  0  0  0  0
    3.5892   -6.2908    6.2860 H   0  0  0  0  0  0  0  0  0  0  0  0
    3.9892   -8.4881    6.3480 H   0  0  0  0  0  0  0  0  0  0  0  0
    2.6663   -8.0704    7.2899 H   0  0  0  0  0  0  0  0  0  0  0  0
    2.8954  -10.2224    5.8353 H   0  0  0  0  0  0  0  0  0  0  0  0
    1.3159  -10.7776    6.8508 H   0  0  0  0  0  0  0  0  0  0  0  0
   -0.1470  -10.7217    4.5067 H   0  0  0  0  0  0  0  0  0  0  0  0
   -0.1496   -9.8913    2.9806 H   0  0  0  0  0  0  0  0  0  0  0  0
   -0.4266   -9.0200    4.4886 H   0  0  0  0  0  0  0  0  0  0  0  0
    1.8296  -11.7869    4.2937 H   0  0  0  0  0  0  0  0  0  0  0  0
    3.3233  -11.0541    3.7959 H   0  0  0  0  0  0  0  0  0  0  0  0
    1.9941  -11.1937    2.6543 H   0  0  0  0  0  0  0  0  0  0  0  0
    0.7786   -6.9571    7.5788 H   0  0  0  0  0  0  0  0  0  0  0  0
    0.1184   -7.6872    6.1271 H   0  0  0  0  0  0  0  0  0  0  0  0
   -0.4448   -6.1363    6.6405 H   0  0  0  0  0  0  0  0  0  0  0  0
    2.0160   -4.8710    7.5247 H   0  0  0  0  0  0  0  0  0  0  0  0
    0.7233   -4.1787    6.5579 H   0  0  0  0  0  0  0  0  0  0  0  0
    2.3612   -3.9942    6.0765 H   0  0  0  0  0  0  0  0  0  0  0  0
  1  2  1  0
  1 44  1  0
  1 45  1  0
  1 46  1  0
  2  3  1  0
  3 30  1  0
  3  4  1  0
  3 47  1  1
  4 35  1  0
  4  5  1  0
  4 48  1  6
  5 42  1  0
  5  6  1  0
  5 49  1  6
  6  7  1  0
  6 50  1  0
  6 51  1  0
  7  8  2  3
  7 52  1  0
  8 16  1  0
  8  9  1  0
  9 10  1  0
  9 11  1  0
  9 53  1  1
 10 54  1  0
 11 28  1  0
 11 12  1  1
 11 13  1  0
 12 55  1  0
 12 56  1  0
 12 57  1  0
 13 14  1  0
 13 16  1  0
 13 58  1  1
 14 15  1  0
 15 59  1  0
 15 60  1  0
 15 61  1  0
 16 21  1  0
 16 17  1  6
 17 18  1  0
 18 19  1  0
 18 20  1  0
 18 21  1  0
 19 62  1  0
 19 63  1  0
 19 64  1  0
 20 65  1  0
 20 66  1  0
 20 67  1  0
 21 22  1  0
 21 68  1  1
 22 23  1  0
 22 69  1  0
 22 70  1  0
 23 24  1  0
 23 28  1  0
 23 71  1  1
 24 25  1  0
 25 26  1  0
 25 27  2  0
 26 72  1  0
 26 73  1  0
 26 74  1  0
 28 29  1  1
 28 30  1  0
 29 75  1  0
 30 31  1  0
 30 76  1  6
 31 32  1  0
 31 38  1  0
 31 77  1  1
 32 33  1  0
 32 78  1  0
 32 79  1  0
 33 34  1  0
 33 35  1  0
 33 80  1  6
 34 81  1  0
 35 36  1  0
 35 37  1  0
 36 82  1  0
 36 83  1  0
 36 84  1  0
 37 85  1  0
 37 86  1  0
 37 87  1  0
 38 39  1  0
 38 40  1  0
 38 41  1  0
 39 88  1  0
 39 89  1  0
 39 90  1  0
 40 91  1  0
 40 92  1  0
 40 93  1  0
 41 42  1  0
 42 43  2  0
M  END
>  <i_m_ct_stereo_status>  (308) 
1

>  <s_m_source_file>  (308) 
/var/tmp/pbs.5076255.sched01/tmp4tnmxshi/11480k6dy83.sdf

>  <i_m_source_file_index>  (308) 
25

>  <i_lp_mmshare_version>  (308) 
48012

>  <i_f3d_flags>  (308) 
0

>  <s_epik_input>  (308) 
W0NAXTEyM0MvND1bQ0hdXFtDSDJdW0NASF01W0NASF02W0NAQEhdKE9bQ0gzXSlbQ0BASF0oW0NAQEhdKEMoW0NIM10pKFtDSDNdKU9DNT1PKVtDSDJdW0NAQEhdKFtPSF0pQzYoW0NIM10pW0NIM10pW0NAQF0oW09IXSkoW0NAQF0oW0NIM10pKFtDQEBIXTRbT0hdKVtDQEhdMU9bQ0gzXSlbQ0BIXShPQyg9TylbQ0gzXSlbQ0gyXVtDQEBIXTNDKE8yKShbQ0gzXSlbQ0gzXQ==

>  <s_epik_cmdline>  (308) 
J2VwaWtfcHl0aG9uJywgJy1waHQnLCAnMi4wJywgJy1waCcsICc3LjAnLCAnLXRuJywgJzgnLCAnLW1hJywgJzIwMCcsICctaW1hZScsICc8aW5maWxlLm1hZT4nLCAnLW9tYWUnLCAnPG91dGZpbGUubWFlPic=

>  <r_lp_tautomer_probability>  (308) 
1

>  <r_epik_Ionization_Penalty>  (308) 
9.83206e-07

>  <r_epik_Ionization_Penalty_Charging>  (308) 
0

>  <r_epik_Ionization_Penalty_Neutral>  (308) 
9.83206e-07

>  <r_epik_State_Penalty>  (308) 
-0

>  <r_epik_Charging_Adjusted_Penalty>  (308) 
0

>  <i_epik_Tot_Q>  (308) 
0

>  <i_epik_Tot_abs_Q>  (308) 
0

>  <s_epik_Chemistry_Notes>  (308) 
This compound has an ester and may undergo hydrolysis at high or low pH.

>  <s_lp_Force_Field>  (308) 
OPLS3e

>  <r_lp_Energy>  (308) 
174.633

>  <b_lp_Chiralities_Consistent>  (308) 
1

>  <s_lp_Variant>  (308) 
99:0-2

>  <s_i_glide_gridfile>  (308) 
pfpi4k_grid

>  <i_i_glide_lignum>  (308) 
25

>  <i_i_glide_rotatable_bonds>  (308) 
7

>  <r_i_docking_score>  (308) 
-2.9177

>  <r_i_glide_ligand_efficiency>  (308) 
-0.0678536

>  <r_i_glide_ligand_efficiency_sa>  (308) 
-0.237718

>  <r_i_glide_ligand_efficiency_ln>  (308) 
-0.612809

>  <r_i_glide_gscore>  (308) 
-2.9177

>  <r_i_glide_lipo>  (308) 
-0.396838

>  <r_i_glide_hbond>  (308) 
-0.280857

>  <r_i_glide_metal>  (308) 
-0

>  <r_i_glide_rewards>  (308) 
-0.0046352

>  <r_i_glide_evdw>  (308) 
-23.9267

>  <r_i_glide_ecoul>  (308) 
-7.02784

>  <r_i_glide_erotb>  (308) 
0.0571345

>  <r_i_glide_esite>  (308) 
-0.0419998

>  <r_i_glide_emodel>  (308) 
-33.5368

>  <r_i_glide_energy>  (308) 
-30.9545

>  <r_i_glide_einternal>  (308) 
7.56846

>  <r_i_glide_intrahb_reward>  (308) 
-0

>  <i_i_glide_confnum>  (308) 
1

>  <i_i_glide_posenum>  (308) 
31

>  <r_i_glide_eff_state_penalty>  (308) 
0

>  <ligand_id>  (308) 
99

>  <original_smiles>  (308) 
COC1C2C3CC=C4C(O)C5(C)C(OC)C46OC(C)(C)C6CC(OC(C)=O)C5(O)C1C(CC(O)C2(C)C)C(C)(C)OC3=O

>  <smiles>  (308) 
[H]OC1([H])C2=C([H])C([H])([H])C3([H])C(=O)OC(C([H])([H])[H])(C([H])([H])[H])C4([H])C([H])([H])C([H])(O[H])C(C([H])([H])[H])(C([H])([H])[H])C3([H])C([H])(OC([H])([H])[H])C4([H])C3(O[H])C([H])(OC(=O)C([H])([H])[H])C([H])([H])C4([H])C2(OC4(C([H])([H])[H])C([H])([H])[H])C([H])(OC([H])([H])[H])C13C([H])([H])[H]

$$$$
99:1:2
     RDKit          3D

 93 98  0  0  1  0  0  0  0  0999 V2000
    4.9791   -9.7358    2.1676 C   0  0  0  0  0  0  0  0  0  0  0  0
    4.7390   -8.3911    2.5587 O   0  0  0  0  0  0  0  0  0  0  0  0
    3.7299   -8.1203    3.5252 C   0  0  2  0  0  0  0  0  0  0  0  0
    2.2549   -8.4986    3.1401 C   0  0  2  0  0  0  0  0  0  0  0  0
    1.2257   -7.3575    2.6489 C   0  0  2  0  0  0  0  0  0  0  0  0
    1.5553   -6.4658    1.3813 C   0  0  0  0  0  0  0  0  0  0  0  0
    2.2126   -5.0820    1.5412 C   0  0  0  0  0  0  0  0  0  0  0  0
    3.5423   -4.8310    1.3687 C   0  0  0  0  0  0  0  0  0  0  0  0
    4.5123   -5.9364    1.1967 C   0  0  1  0  0  0  0  0  0  0  0  0
    4.9726   -5.9861   -0.1436 O   0  0  0  0  0  0  0  0  0  0  0  0
    5.5969   -5.5945    2.2799 C   0  0  1  0  0  0  0  0  0  0  0  0
    6.9360   -6.3685    2.0580 C   0  0  0  0  0  0  0  0  0  0  0  0
    5.8249   -4.1135    1.7729 C   0  0  1  0  0  0  0  0  0  0  0  0
    6.5652   -4.0148    0.5492 O   0  0  0  0  0  0  0  0  0  0  0  0
    7.0418   -2.7193    0.2075 C   0  0  0  0  0  0  0  0  0  0  0  0
    4.3811   -3.5696    1.6246 C   0  0  1  0  0  0  0  0  0  0  0  0
    3.9876   -2.4378    0.7752 O   0  0  0  0  0  0  0  0  0  0  0  0
    3.3828   -1.7448    1.9272 C   0  0  0  0  0  0  0  0  0  0  0  0
    3.8791   -0.2973    1.8469 C   0  0  0  0  0  0  0  0  0  0  0  0
    1.8552   -1.7642    1.9466 C   0  0  0  0  0  0  0  0  0  0  0  0
    4.1156   -2.7142    2.8377 C   0  0  1  0  0  0  0  0  0  0  0  0
    3.6689   -3.4376    4.0652 C   0  0  0  0  0  0  0  0  0  0  0  0
    4.8662   -4.3344    4.5552 C   0  0  1  0  0  0  0  0  0  0  0  0
    4.8736   -4.3629    5.9807 O   0  0  0  0  0  0  0  0  0  0  0  0
    5.2693   -3.3296    6.7853 C   0  0  0  0  0  0  0  0  0  0  0  0
    5.5584   -1.9653    6.1274 C   0  0  0  0  0  0  0  0  0  0  0  0
    5.3557   -3.4533    8.0107 O   0  0  0  0  0  0  0  0  0  0  0  0
    5.0368   -5.7587    3.8583 C   0  0  2  0  0  0  0  0  0  0  0  0
    6.0900   -6.3623    4.5908 O   0  0  0  0  0  0  0  0  0  0  0  0
    3.7577   -6.7000    4.1509 C   0  0  2  0  0  0  0  0  0  0  0  0
    2.9824   -6.7845    5.5731 C   0  0  2  0  0  0  0  0  0  0  0  0
    2.9777   -8.1939    6.2512 C   0  0  0  0  0  0  0  0  0  0  0  0
    2.1854   -9.4321    5.6853 C   0  0  1  0  0  0  0  0  0  0  0  0
    1.2058   -9.8567    6.6294 O   0  0  0  0  0  0  0  0  0  0  0  0
    1.7139   -9.5870    4.1648 C   0  0  0  0  0  0  0  0  0  0  0  0
    0.1800   -9.7903    4.0501 C   0  0  0  0  0  0  0  0  0  0  0  0
    2.2523  -10.9715    3.7070 C   0  0  0  0  0  0  0  0  0  0  0  0
    1.5846   -6.0337    5.7383 C   0  0  0  0  0  0  0  0  0  0  0  0
    0.4918   -6.7474    6.5870 C   0  0  0  0  0  0  0  0  0  0  0  0
    1.7198   -4.7040    6.5203 C   0  0  0  0  0  0  0  0  0  0  0  0
    1.0596   -5.6956    4.4510 O   0  0  0  0  0  0  0  0  0  0  0  0
    0.3960   -6.5781    3.6896 C   0  0  0  0  0  0  0  0  0  0  0  0
   -0.8302   -6.6729    3.7002 O   0  0  0  0  0  0  0  0  0  0  0  0
    5.7945   -9.7487    1.4445 H   0  0  0  0  0  0  0  0  0  0  0  0
    4.1177  -10.1868    1.6828 H   0  0  0  0  0  0  0  0  0  0  0  0
    5.2878  -10.3604    3.0053 H   0  0  0  0  0  0  0  0  0  0  0  0
    4.1247   -8.8242    4.2513 H   0  0  0  0  0  0  0  0  0  0  0  0
    2.3479   -9.0402    2.2035 H   0  0  0  0  0  0  0  0  0  0  0  0
    0.4384   -7.9764    2.2229 H   0  0  0  0  0  0  0  0  0  0  0  0
    2.0728   -7.0635    0.6324 H   0  0  0  0  0  0  0  0  0  0  0  0
    0.6051   -6.2669    0.8832 H   0  0  0  0  0  0  0  0  0  0  0  0
    1.5668   -4.2929    1.8497 H   0  0  0  0  0  0  0  0  0  0  0  0
    3.9992   -6.8647    1.2847 H   0  0  0  0  0  0  0  0  0  0  0  0
    4.2302   -6.0220   -0.7247 H   0  0  0  0  0  0  0  0  0  0  0  0
    7.7497   -5.8996    2.6137 H   0  0  0  0  0  0  0  0  0  0  0  0
    7.2522   -6.3751    1.0144 H   0  0  0  0  0  0  0  0  0  0  0  0
    6.9085   -7.4134    2.3673 H   0  0  0  0  0  0  0  0  0  0  0  0
    6.4502   -3.5612    2.4638 H   0  0  0  0  0  0  0  0  0  0  0  0
    7.5856   -2.7741   -0.7352 H   0  0  0  0  0  0  0  0  0  0  0  0
    7.7247   -2.3364    0.9612 H   0  0  0  0  0  0  0  0  0  0  0  0
    6.2361   -2.0010    0.0764 H   0  0  0  0  0  0  0  0  0  0  0  0
    3.6057    0.2656    2.7371 H   0  0  0  0  0  0  0  0  0  0  0  0
    3.4489    0.2160    0.9867 H   0  0  0  0  0  0  0  0  0  0  0  0
    4.9622   -0.2386    1.7417 H   0  0  0  0  0  0  0  0  0  0  0  0
    1.4716   -2.3697    2.7646 H   0  0  0  0  0  0  0  0  0  0  0  0
    1.4633   -2.1494    1.0107 H   0  0  0  0  0  0  0  0  0  0  0  0
    1.4484   -0.7682    2.1026 H   0  0  0  0  0  0  0  0  0  0  0  0
    5.0196   -2.1614    3.0870 H   0  0  0  0  0  0  0  0  0  0  0  0
    3.3697   -2.6922    4.7827 H   0  0  0  0  0  0  0  0  0  0  0  0
    2.7800   -4.0448    3.8513 H   0  0  0  0  0  0  0  0  0  0  0  0
    5.8187   -3.8682    4.3434 H   0  0  0  0  0  0  0  0  0  0  0  0
    6.1549   -2.1198    5.2435 H   0  0  0  0  0  0  0  0  0  0  0  0
    6.1083   -1.2866    6.8145 H   0  0  0  0  0  0  0  0  0  0  0  0
    4.6628   -1.4865    5.7715 H   0  0  0  0  0  0  0  0  0  0  0  0
    6.2108   -7.2374    4.2548 H   0  0  0  0  0  0  0  0  0  0  0  0
    3.1140   -6.1263    3.5424 H   0  0  0  0  0  0  0  0  0  0  0  0
    3.6315   -6.2859    6.2791 H   0  0  0  0  0  0  0  0  0  0  0  0
    4.0252   -8.4879    6.3465 H   0  0  0  0  0  0  0  0  0  0  0  0
    2.7099   -8.0685    7.2976 H   0  0  0  0  0  0  0  0  0  0  0  0
    2.9261  -10.2192    5.8402 H   0  0  0  0  0  0  0  0  0  0  0  0
    1.3487  -10.7573    6.8777 H   0  0  0  0  0  0  0  0  0  0  0  0
   -0.1285  -10.7135    4.5400 H   0  0  0  0  0  0  0  0  0  0  0  0
   -0.1456   -9.8865    3.0149 H   0  0  0  0  0  0  0  0  0  0  0  0
   -0.4075   -9.0145    4.5268 H   0  0  0  0  0  0  0  0  0  0  0  0
    1.8410  -11.7832    4.3113 H   0  0  0  0  0  0  0  0  0  0  0  0
    3.3319  -11.0539    3.8007 H   0  0  0  0  0  0  0  0  0  0  0  0
    1.9902  -11.1903    2.6733 H   0  0  0  0  0  0  0  0  0  0  0  0
    0.8282   -6.9506    7.6033 H   0  0  0  0  0  0  0  0  0  0  0  0
    0.1541   -7.6818    6.1582 H   0  0  0  0  0  0  0  0  0  0  0  0
   -0.4039   -6.1286    6.6771 H   0  0  0  0  0  0  0  0  0  0  0  0
    2.0680   -4.8708    7.5398 H   0  0  0  0  0  0  0  0  0  0  0  0
    0.7672   -4.1748    6.5843 H   0  0  0  0  0  0  0  0  0  0  0  0
    2.4071   -4.0048    6.0895 H   0  0  0  0  0  0  0  0  0  0  0  0
  1  2  1  0
  1 44  1  0
  1 45  1  0
  1 46  1  0
  2  3  1  0
  3 30  1  0
  3  4  1  0
  3 47  1  1
  4 35  1  0
  4  5  1  0
  4 48  1  6
  5 42  1  0
  5  6  1  0
  5 49  1  6
  6  7  1  0
  6 50  1  0
  6 51  1  0
  7  8  2  3
  7 52  1  0
  8 16  1  0
  8  9  1  0
  9 10  1  0
  9 11  1  0
  9 53  1  1
 10 54  1  0
 11 28  1  0
 11 12  1  1
 11 13  1  0
 12 55  1  0
 12 56  1  0
 12 57  1  0
 13 14  1  0
 13 16  1  0
 13 58  1  1
 14 15  1  0
 15 59  1  0
 15 60  1  0
 15 61  1  0
 16 21  1  0
 16 17  1  6
 17 18  1  0
 18 19  1  0
 18 20  1  0
 18 21  1  0
 19 62  1  0
 19 63  1  0
 19 64  1  0
 20 65  1  0
 20 66  1  0
 20 67  1  0
 21 22  1  0
 21 68  1  1
 22 23  1  0
 22 69  1  0
 22 70  1  0
 23 24  1  0
 23 28  1  0
 23 71  1  6
 24 25  1  0
 25 26  1  0
 25 27  2  0
 26 72  1  0
 26 73  1  0
 26 74  1  0
 28 29  1  1
 28 30  1  0
 29 75  1  0
 30 31  1  0
 30 76  1  6
 31 32  1  0
 31 38  1  0
 31 77  1  1
 32 33  1  0
 32 78  1  0
 32 79  1  0
 33 34  1  0
 33 35  1  0
 33 80  1  6
 34 81  1  0
 35 36  1  0
 35 37  1  0
 36 82  1  0
 36 83  1  0
 36 84  1  0
 37 85  1  0
 37 86  1  0
 37 87  1  0
 38 39  1  0
 38 40  1  0
 38 41  1  0
 39 88  1  0
 39 89  1  0
 39 90  1  0
 40 91  1  0
 40 92  1  0
 40 93  1  0
 41 42  1  0
 42 43  2  0
M  END
>  <i_m_ct_stereo_status>  (309) 
1

>  <s_m_source_file>  (309) 
/var/tmp/pbs.5076255.sched01/tmp4tnmxshi/11480k6dy83.sdf

>  <i_m_source_file_index>  (309) 
25

>  <i_lp_mmshare_version>  (309) 
48012

>  <i_f3d_flags>  (309) 
0

>  <s_epik_input>  (309) 
W0NAXTEyM0MvND1bQ0hdXFtDSDJdW0NASF01W0NASF02W0NAQEhdKE9bQ0gzXSlbQ0BASF0oW0NAQEhdKEMoW0NIM10pKFtDSDNdKU9DNT1PKVtDSDJdW0NAQEhdKFtPSF0pQzYoW0NIM10pW0NIM10pW0NAQF0oW09IXSkoW0NAQF0oW0NIM10pKFtDQEBIXTRbT0hdKVtDQEhdMU9bQ0gzXSlbQ0BIXShPQyg9TylbQ0gzXSlbQ0gyXVtDQEBIXTNDKE8yKShbQ0gzXSlbQ0gzXQ==

>  <s_epik_cmdline>  (309) 
J2VwaWtfcHl0aG9uJywgJy1waHQnLCAnMi4wJywgJy1waCcsICc3LjAnLCAnLXRuJywgJzgnLCAnLW1hJywgJzIwMCcsICctaW1hZScsICc8aW5maWxlLm1hZT4nLCAnLW9tYWUnLCAnPG91dGZpbGUubWFlPic=

>  <r_lp_tautomer_probability>  (309) 
1

>  <r_epik_Ionization_Penalty>  (309) 
9.83206e-07

>  <r_epik_Ionization_Penalty_Charging>  (309) 
0

>  <r_epik_Ionization_Penalty_Neutral>  (309) 
9.83206e-07

>  <r_epik_State_Penalty>  (309) 
-0

>  <r_epik_Charging_Adjusted_Penalty>  (309) 
0

>  <i_epik_Tot_Q>  (309) 
0

>  <i_epik_Tot_abs_Q>  (309) 
0

>  <s_epik_Chemistry_Notes>  (309) 
This compound has an ester and may undergo hydrolysis at high or low pH.

>  <s_lp_Force_Field>  (309) 
OPLS3e

>  <r_lp_Energy>  (309) 
174.633

>  <b_lp_Chiralities_Consistent>  (309) 
1

>  <s_lp_Variant>  (309) 
99:0-2

>  <s_i_glide_gridfile>  (309) 
pfpi4k_grid

>  <i_i_glide_lignum>  (309) 
25

>  <i_i_glide_rotatable_bonds>  (309) 
7

>  <r_i_docking_score>  (309) 
-2.91331

>  <r_i_glide_ligand_efficiency>  (309) 
-0.0677515

>  <r_i_glide_ligand_efficiency_sa>  (309) 
-0.23736

>  <r_i_glide_ligand_efficiency_ln>  (309) 
-0.611886

>  <r_i_glide_gscore>  (309) 
-2.91331

>  <r_i_glide_lipo>  (309) 
-0.388192

>  <r_i_glide_hbond>  (309) 
-0.270398

>  <r_i_glide_metal>  (309) 
-0

>  <r_i_glide_rewards>  (309) 
-0.00461285

>  <r_i_glide_evdw>  (309) 
-24.2247

>  <r_i_glide_ecoul>  (309) 
-7.03501

>  <r_i_glide_erotb>  (309) 
0.0571345

>  <r_i_glide_esite>  (309) 
-0.0407591

>  <r_i_glide_emodel>  (309) 
-33.7952

>  <r_i_glide_energy>  (309) 
-31.2597

>  <r_i_glide_einternal>  (309) 
7.09632

>  <r_i_glide_intrahb_reward>  (309) 
-0

>  <i_i_glide_confnum>  (309) 
3

>  <i_i_glide_posenum>  (309) 
32

>  <r_i_glide_eff_state_penalty>  (309) 
0

>  <ligand_id>  (309) 
99

>  <original_smiles>  (309) 
COC1C2C3CC=C4C(O)C5(C)C(OC)C46OC(C)(C)C6CC(OC(C)=O)C5(O)C1C(CC(O)C2(C)C)C(C)(C)OC3=O

>  <smiles>  (309) 
[H]OC1([H])C2=C([H])C([H])([H])C3([H])C(=O)OC(C([H])([H])[H])(C([H])([H])[H])C4([H])C([H])([H])C([H])(O[H])C(C([H])([H])[H])(C([H])([H])[H])C3([H])C([H])(OC([H])([H])[H])C4([H])C3(O[H])C([H])(OC(=O)C([H])([H])[H])C([H])([H])C4([H])C2(OC4(C([H])([H])[H])C([H])([H])[H])C([H])(OC([H])([H])[H])C13C([H])([H])[H]

$$$$
99:3:0
     RDKit          3D

 93 98  0  0  1  0  0  0  0  0999 V2000
    1.9178   -9.5307    1.9223 C   0  0  0  0  0  0  0  0  0  0  0  0
    2.7293   -8.4658    2.3959 O   0  0  0  0  0  0  0  0  0  0  0  0
    2.9020   -8.2841    3.8002 C   0  0  2  0  0  0  0  0  0  0  0  0
    1.6349   -7.9826    4.6836 C   0  0  2  0  0  0  0  0  0  0  0  0
    1.2467   -6.5057    5.1655 C   0  0  2  0  0  0  0  0  0  0  0  0
    0.9047   -5.3832    4.1380 C   0  0  0  0  0  0  0  0  0  0  0  0
    2.0021   -4.3748    3.7723 C   0  0  0  0  0  0  0  0  0  0  0  0
    2.7721   -4.4650    2.6740 C   0  0  0  0  0  0  0  0  0  0  0  0
    2.7421   -5.6855    1.8167 C   0  0  1  0  0  0  0  0  0  0  0  0
    2.0344   -5.4531    0.5991 O   0  0  0  0  0  0  0  0  0  0  0  0
    4.2546   -6.0159    1.6870 C   0  0  1  0  0  0  0  0  0  0  0  0
    4.5060   -6.9903    0.4968 C   0  0  0  0  0  0  0  0  0  0  0  0
    4.6971   -4.5684    1.2177 C   0  0  1  0  0  0  0  0  0  0  0  0
    4.2982   -4.2821   -0.1254 O   0  0  0  0  0  0  0  0  0  0  0  0
    4.9647   -3.1794   -0.7381 C   0  0  0  0  0  0  0  0  0  0  0  0
    3.9854   -3.6270    2.2151 C   0  0  1  0  0  0  0  0  0  0  0  0
    3.6315   -2.2294    1.9310 O   0  0  0  0  0  0  0  0  0  0  0  0
    4.3274   -1.7786    3.1527 C   0  0  0  0  0  0  0  0  0  0  0  0
    5.1982   -0.5866    2.7244 C   0  0  0  0  0  0  0  0  0  0  0  0
    3.3953   -1.3551    4.2908 C   0  0  0  0  0  0  0  0  0  0  0  0
    4.9932   -3.1420    3.2246 C   0  0  1  0  0  0  0  0  0  0  0  0
    5.2643   -4.0617    4.3815 C   0  0  0  0  0  0  0  0  0  0  0  0
    5.8853   -5.3870    3.8081 C   0  0  1  0  0  0  0  0  0  0  0  0
    6.8324   -5.9097    4.7254 O   0  0  0  0  0  0  0  0  0  0  0  0
    8.1319   -6.1815    4.4244 C   0  0  0  0  0  0  0  0  0  0  0  0
    8.5971   -5.9838    2.9742 C   0  0  0  0  0  0  0  0  0  0  0  0
    8.9272   -6.5722    5.2765 O   0  0  0  0  0  0  0  0  0  0  0  0
    4.9798   -6.4956    3.1215 C   0  0  2  0  0  0  0  0  0  0  0  0
    6.0282   -7.2753    2.5585 O   0  0  0  0  0  0  0  0  0  0  0  0
    4.2482   -7.5784    4.1633 C   0  0  1  0  0  0  0  0  0  0  0  0
    4.5658   -7.7531    5.7401 C   0  0  2  0  0  0  0  0  0  0  0  0
    4.2457   -9.2144    6.2062 C   0  0  0  0  0  0  0  0  0  0  0  0
    2.7866   -9.7896    6.3749 C   0  0  1  0  0  0  0  0  0  0  0  0
    2.6201  -10.2467    7.7042 O   0  0  0  0  0  0  0  0  0  0  0  0
    1.4519   -9.1616    5.7497 C   0  0  0  0  0  0  0  0  0  0  0  0
    0.4091   -8.8180    6.8525 C   0  0  0  0  0  0  0  0  0  0  0  0
    0.7464  -10.3345    5.0059 C   0  0  0  0  0  0  0  0  0  0  0  0
    4.1916   -6.6795    6.8509 C   0  0  0  0  0  0  0  0  0  0  0  0
    3.7260   -7.2579    8.2281 C   0  0  0  0  0  0  0  0  0  0  0  0
    5.3755   -5.7919    7.3208 C   0  0  0  0  0  0  0  0  0  0  0  0
    3.2547   -5.8111    6.2383 O   0  0  0  0  0  0  0  0  0  0  0  0
    1.9537   -5.9482    6.3958 C   0  0  0  0  0  0  0  0  0  0  0  0
    1.3290   -5.5956    7.3975 O   0  0  0  0  0  0  0  0  0  0  0  0
    1.9263   -9.4930    0.8375 H   0  0  0  0  0  0  0  0  0  0  0  0
    0.8808   -9.4374    2.2404 H   0  0  0  0  0  0  0  0  0  0  0  0
    2.3061  -10.5090    2.2078 H   0  0  0  0  0  0  0  0  0  0  0  0
    3.0996   -9.3392    3.9812 H   0  0  0  0  0  0  0  0  0  0  0  0
    0.8097   -8.1296    3.9897 H   0  0  0  0  0  0  0  0  0  0  0  0
    0.2497   -6.6709    5.5658 H   0  0  0  0  0  0  0  0  0  0  0  0
    0.4230   -5.8040    3.2557 H   0  0  0  0  0  0  0  0  0  0  0  0
    0.1221   -4.7659    4.5742 H   0  0  0  0  0  0  0  0  0  0  0  0
    2.1358   -3.5662    4.4702 H   0  0  0  0  0  0  0  0  0  0  0  0
    2.1469   -6.4150    2.2995 H   0  0  0  0  0  0  0  0  0  0  0  0
    2.6614   -5.0732   -0.0083 H   0  0  0  0  0  0  0  0  0  0  0  0
    5.5156   -6.8508    0.1200 H   0  0  0  0  0  0  0  0  0  0  0  0
    3.8619   -6.8041   -0.3572 H   0  0  0  0  0  0  0  0  0  0  0  0
    4.3958   -8.0467    0.7463 H   0  0  0  0  0  0  0  0  0  0  0  0
    5.7847   -4.4996    1.2068 H   0  0  0  0  0  0  0  0  0  0  0  0
    4.6134   -3.0532   -1.7646 H   0  0  0  0  0  0  0  0  0  0  0  0
    6.0434   -3.3354   -0.7782 H   0  0  0  0  0  0  0  0  0  0  0  0
    4.7739   -2.2440   -0.2152 H   0  0  0  0  0  0  0  0  0  0  0  0
    5.8634   -0.2683    3.5296 H   0  0  0  0  0  0  0  0  0  0  0  0
    4.5755    0.2642    2.4496 H   0  0  0  0  0  0  0  0  0  0  0  0
    5.8194   -0.8222    1.8605 H   0  0  0  0  0  0  0  0  0  0  0  0
    3.4948   -2.0191    5.1549 H   0  0  0  0  0  0  0  0  0  0  0  0
    2.3519   -1.3425    3.9748 H   0  0  0  0  0  0  0  0  0  0  0  0
    3.6429   -0.3588    4.6611 H   0  0  0  0  0  0  0  0  0  0  0  0
    5.9445   -2.9690    2.7239 H   0  0  0  0  0  0  0  0  0  0  0  0
    5.9807   -3.5702    5.0391 H   0  0  0  0  0  0  0  0  0  0  0  0
    4.3707   -4.2048    4.9841 H   0  0  0  0  0  0  0  0  0  0  0  0
    6.5102   -5.0157    3.0180 H   0  0  0  0  0  0  0  0  0  0  0  0
    7.7784   -5.9230    2.2528 H   0  0  0  0  0  0  0  0  0  0  0  0
    9.2426   -6.8005    2.6781 H   0  0  0  0  0  0  0  0  0  0  0  0
    9.1854   -5.0796    2.8846 H   0  0  0  0  0  0  0  0  0  0  0  0
    5.6183   -7.9887    2.1298 H   0  0  0  0  0  0  0  0  0  0  0  0
    4.8328   -8.4576    3.9012 H   0  0  0  0  0  0  0  0  0  0  0  0
    5.6516   -7.7719    5.7695 H   0  0  0  0  0  0  0  0  0  0  0  0
    4.7584   -9.8855    5.5153 H   0  0  0  0  0  0  0  0  0  0  0  0
    4.8040   -9.4133    7.1232 H   0  0  0  0  0  0  0  0  0  0  0  0
    2.9002  -10.7572    5.8867 H   0  0  0  0  0  0  0  0  0  0  0  0
    2.0409  -11.0138    7.6809 H   0  0  0  0  0  0  0  0  0  0  0  0
    0.1300   -9.6980    7.4325 H   0  0  0  0  0  0  0  0  0  0  0  0
   -0.5158   -8.4555    6.4083 H   0  0  0  0  0  0  0  0  0  0  0  0
    0.7557   -8.0859    7.5744 H   0  0  0  0  0  0  0  0  0  0  0  0
    0.4870  -11.1488    5.6834 H   0  0  0  0  0  0  0  0  0  0  0  0
    1.3665  -10.7846    4.2323 H   0  0  0  0  0  0  0  0  0  0  0  0
   -0.1826  -10.0124    4.5379 H   0  0  0  0  0  0  0  0  0  0  0  0
    4.4987   -7.8751    8.6879 H   0  0  0  0  0  0  0  0  0  0  0  0
    2.8244   -7.8492    8.1691 H   0  0  0  0  0  0  0  0  0  0  0  0
    3.4965   -6.4680    8.9447 H   0  0  0  0  0  0  0  0  0  0  0  0
    6.2638   -6.3805    7.5504 H   0  0  0  0  0  0  0  0  0  0  0  0
    5.1314   -5.2269    8.2216 H   0  0  0  0  0  0  0  0  0  0  0  0
    5.6634   -5.0220    6.6290 H   0  0  0  0  0  0  0  0  0  0  0  0
  1  2  1  0
  1 44  1  0
  1 45  1  0
  1 46  1  0
  2  3  1  0
  3 30  1  0
  3  4  1  0
  3 47  1  1
  4 35  1  0
  4  5  1  0
  4 48  1  6
  5 42  1  0
  5  6  1  0
  5 49  1  1
  6  7  1  0
  6 50  1  0
  6 51  1  0
  7  8  2  3
  7 52  1  0
  8 16  1  0
  8  9  1  0
  9 10  1  0
  9 11  1  0
  9 53  1  1
 10 54  1  0
 11 28  1  0
 11 12  1  6
 11 13  1  0
 12 55  1  0
 12 56  1  0
 12 57  1  0
 13 14  1  0
 13 16  1  0
 13 58  1  6
 14 15  1  0
 15 59  1  0
 15 60  1  0
 15 61  1  0
 16 21  1  0
 16 17  1  6
 17 18  1  0
 18 19  1  0
 18 20  1  0
 18 21  1  0
 19 62  1  0
 19 63  1  0
 19 64  1  0
 20 65  1  0
 20 66  1  0
 20 67  1  0
 21 22  1  0
 21 68  1  6
 22 23  1  0
 22 69  1  0
 22 70  1  0
 23 24  1  0
 23 28  1  0
 23 71  1  6
 24 25  1  0
 25 26  1  0
 25 27  2  0
 26 72  1  0
 26 73  1  0
 26 74  1  0
 28 29  1  6
 28 30  1  0
 29 75  1  0
 30 31  1  0
 30 76  1  6
 31 32  1  0
 31 38  1  0
 31 77  1  6
 32 33  1  0
 32 78  1  0
 32 79  1  0
 33 34  1  0
 33 35  1  0
 33 80  1  6
 34 81  1  0
 35 36  1  0
 35 37  1  0
 36 82  1  0
 36 83  1  0
 36 84  1  0
 37 85  1  0
 37 86  1  0
 37 87  1  0
 38 39  1  0
 38 40  1  0
 38 41  1  0
 39 88  1  0
 39 89  1  0
 39 90  1  0
 40 91  1  0
 40 92  1  0
 40 93  1  0
 41 42  1  0
 42 43  2  0
M  END
>  <i_m_ct_stereo_status>  (310) 
1

>  <s_m_source_file>  (310) 
/var/tmp/pbs.5076255.sched01/tmp4tnmxshi/11480k6dy83.sdf

>  <i_m_source_file_index>  (310) 
27

>  <i_lp_mmshare_version>  (310) 
48012

>  <i_f3d_flags>  (310) 
0

>  <s_epik_input>  (310) 
W0NAXTEyM0MvND1bQ0hdXFtDSDJdW0NASF01W0NASF02W0NAQEhdKE9bQ0gzXSlbQ0BASF0oW0NAQEhdKEMoW0NIM10pKFtDSDNdKU9DNT1PKVtDSDJdW0NAQEhdKFtPSF0pQzYoW0NIM10pW0NIM10pW0NAQF0oW09IXSkoW0NAQF0oW0NIM10pKFtDQEBIXTRbT0hdKVtDQEhdMU9bQ0gzXSlbQ0BIXShPQyg9TylbQ0gzXSlbQ0gyXVtDQEBIXTNDKE8yKShbQ0gzXSlbQ0gzXQ==

>  <s_epik_cmdline>  (310) 
J2VwaWtfcHl0aG9uJywgJy1waHQnLCAnMi4wJywgJy1waCcsICc3LjAnLCAnLXRuJywgJzgnLCAnLW1hJywgJzIwMCcsICctaW1hZScsICc8aW5maWxlLm1hZT4nLCAnLW9tYWUnLCAnPG91dGZpbGUubWFlPic=

>  <r_lp_tautomer_probability>  (310) 
1

>  <r_epik_Ionization_Penalty>  (310) 
9.83206e-07

>  <r_epik_Ionization_Penalty_Charging>  (310) 
0

>  <r_epik_Ionization_Penalty_Neutral>  (310) 
9.83206e-07

>  <r_epik_State_Penalty>  (310) 
-0

>  <r_epik_Charging_Adjusted_Penalty>  (310) 
0

>  <i_epik_Tot_Q>  (310) 
0

>  <i_epik_Tot_abs_Q>  (310) 
0

>  <s_epik_Chemistry_Notes>  (310) 
This compound has an ester and may undergo hydrolysis at high or low pH.

>  <s_lp_Force_Field>  (310) 
OPLS3e

>  <r_lp_Energy>  (310) 
201.89

>  <b_lp_Chiralities_Consistent>  (310) 
1

>  <s_lp_Variant>  (310) 
99:0-4

>  <s_i_glide_gridfile>  (310) 
pfpi4k_grid

>  <i_i_glide_lignum>  (310) 
27

>  <i_i_glide_rotatable_bonds>  (310) 
7

>  <r_i_docking_score>  (310) 
-3.45078

>  <r_i_glide_ligand_efficiency>  (310) 
-0.0802508

>  <r_i_glide_ligand_efficiency_sa>  (310) 
-0.281151

>  <r_i_glide_ligand_efficiency_ln>  (310) 
-0.724772

>  <r_i_glide_gscore>  (310) 
-3.45078

>  <r_i_glide_lipo>  (310) 
-0.528943

>  <r_i_glide_hbond>  (310) 
-0.149198

>  <r_i_glide_metal>  (310) 
-0

>  <r_i_glide_rewards>  (310) 
-0.535156

>  <r_i_glide_evdw>  (310) 
-20.6702

>  <r_i_glide_ecoul>  (310) 
-8.40743

>  <r_i_glide_erotb>  (310) 
0.0571345

>  <r_i_glide_esite>  (310) 
0

>  <r_i_glide_emodel>  (310) 
-36.7648

>  <r_i_glide_energy>  (310) 
-29.0776

>  <r_i_glide_einternal>  (310) 
7.01411

>  <r_i_glide_intrahb_reward>  (310) 
-0.5

>  <i_i_glide_confnum>  (310) 
1

>  <i_i_glide_posenum>  (310) 
34

>  <r_i_glide_eff_state_penalty>  (310) 
0

>  <ligand_id>  (310) 
99

>  <original_smiles>  (310) 
COC1C2C3CC=C4C(O)C5(C)C(OC)C46OC(C)(C)C6CC(OC(C)=O)C5(O)C1C(CC(O)C2(C)C)C(C)(C)OC3=O

>  <smiles>  (310) 
[H]OC1([H])C2=C([H])C([H])([H])C3([H])C(=O)OC(C([H])([H])[H])(C([H])([H])[H])C4([H])C([H])([H])C([H])(O[H])C(C([H])([H])[H])(C([H])([H])[H])C3([H])C([H])(OC([H])([H])[H])C4([H])C3(O[H])C([H])(OC(=O)C([H])([H])[H])C([H])([H])C4([H])C2(OC4(C([H])([H])[H])C([H])([H])[H])C([H])(OC([H])([H])[H])C13C([H])([H])[H]

$$$$
99:3:1
     RDKit          3D

 93 98  0  0  1  0  0  0  0  0999 V2000
    4.9272   -9.7307    2.0816 C   0  0  0  0  0  0  0  0  0  0  0  0
    4.8904   -8.4370    2.6757 O   0  0  0  0  0  0  0  0  0  0  0  0
    3.8950   -8.1211    3.6514 C   0  0  2  0  0  0  0  0  0  0  0  0
    2.3713   -8.3778    3.3161 C   0  0  2  0  0  0  0  0  0  0  0  0
    1.3764   -7.2146    2.8614 C   0  0  2  0  0  0  0  0  0  0  0  0
    1.6341   -6.4054    1.5562 C   0  0  0  0  0  0  0  0  0  0  0  0
    2.3149   -5.0315    1.6890 C   0  0  0  0  0  0  0  0  0  0  0  0
    3.6298   -4.8020    1.4852 C   0  0  0  0  0  0  0  0  0  0  0  0
    4.5607   -5.9492    1.3391 C   0  0  1  0  0  0  0  0  0  0  0  0
    4.9552   -6.0839   -0.0145 O   0  0  0  0  0  0  0  0  0  0  0  0
    5.6895   -5.5817    2.3410 C   0  0  1  0  0  0  0  0  0  0  0  0
    6.9934   -6.4105    2.0689 C   0  0  0  0  0  0  0  0  0  0  0  0
    5.9238   -4.1184    1.7864 C   0  0  1  0  0  0  0  0  0  0  0  0
    6.6294   -4.0898    0.5458 O   0  0  0  0  0  0  0  0  0  0  0  0
    7.1512   -2.8269    0.1575 C   0  0  0  0  0  0  0  0  0  0  0  0
    4.4978   -3.5455    1.6679 C   0  0  1  0  0  0  0  0  0  0  0  0
    4.1049   -2.4786    0.7560 O   0  0  0  0  0  0  0  0  0  0  0  0
    3.5221   -1.7098    1.8638 C   0  0  0  0  0  0  0  0  0  0  0  0
    4.0487   -0.2771    1.7118 C   0  0  0  0  0  0  0  0  0  0  0  0
    1.9945   -1.6905    1.8533 C   0  0  0  0  0  0  0  0  0  0  0  0
    4.2430   -2.6309    2.8304 C   0  0  1  0  0  0  0  0  0  0  0  0
    3.8010   -3.2700    4.1070 C   0  0  0  0  0  0  0  0  0  0  0  0
    4.9500   -4.1945    4.6166 C   0  0  1  0  0  0  0  0  0  0  0  0
    4.9301   -4.2597    6.0459 O   0  0  0  0  0  0  0  0  0  0  0  0
    5.4541   -3.2707    6.8061 C   0  0  0  0  0  0  0  0  0  0  0  0
    5.3774   -3.5590    8.2994 C   0  0  0  0  0  0  0  0  0  0  0  0
    5.9351   -2.2153    6.3897 O   0  0  0  0  0  0  0  0  0  0  0  0
    5.1926   -5.6228    3.9397 C   0  0  2  0  0  0  0  0  0  0  0  0
    6.4640   -5.8049    4.5650 O   0  0  0  0  0  0  0  0  0  0  0  0
    4.2707   -6.8800    4.5361 C   0  0  1  0  0  0  0  0  0  0  0  0
    3.3239   -6.8389    5.8517 C   0  0  2  0  0  0  0  0  0  0  0  0
    3.1661   -8.2752    6.4641 C   0  0  0  0  0  0  0  0  0  0  0  0
    2.2940   -9.4306    5.8305 C   0  0  1  0  0  0  0  0  0  0  0  0
    1.3098   -9.8448    6.7687 O   0  0  0  0  0  0  0  0  0  0  0  0
    1.7783   -9.4750    4.3158 C   0  0  0  0  0  0  0  0  0  0  0  0
    0.2271   -9.5715    4.2414 C   0  0  0  0  0  0  0  0  0  0  0  0
    2.1941  -10.8754    3.7782 C   0  0  0  0  0  0  0  0  0  0  0  0
    1.9774   -5.9948    5.9647 C   0  0  0  0  0  0  0  0  0  0  0  0
    0.8212   -6.6604    6.7821 C   0  0  0  0  0  0  0  0  0  0  0  0
    2.1061   -4.6586    6.7369 C   0  0  0  0  0  0  0  0  0  0  0  0
    1.6328   -5.6568    4.6354 O   0  0  0  0  0  0  0  0  0  0  0  0
    0.7496   -6.3489    3.9482 C   0  0  0  0  0  0  0  0  0  0  0  0
   -0.4696   -6.2562    4.0773 O   0  0  0  0  0  0  0  0  0  0  0  0
    5.7412   -9.7558    1.3582 H   0  0  0  0  0  0  0  0  0  0  0  0
    4.0195   -9.9685    1.5310 H   0  0  0  0  0  0  0  0  0  0  0  0
    5.1287  -10.5152    2.8095 H   0  0  0  0  0  0  0  0  0  0  0  0
    4.1640   -8.9691    4.2758 H   0  0  0  0  0  0  0  0  0  0  0  0
    2.3959   -8.9040    2.3670 H   0  0  0  0  0  0  0  0  0  0  0  0
    0.5142   -7.7859    2.5278 H   0  0  0  0  0  0  0  0  0  0  0  0
    2.1127   -7.0381    0.8086 H   0  0  0  0  0  0  0  0  0  0  0  0
    0.6650   -6.1973    1.1010 H   0  0  0  0  0  0  0  0  0  0  0  0
    1.6740   -4.2163    1.9559 H   0  0  0  0  0  0  0  0  0  0  0  0
    4.0394   -6.8620    1.5165 H   0  0  0  0  0  0  0  0  0  0  0  0
    4.1860   -6.1348   -0.5616 H   0  0  0  0  0  0  0  0  0  0  0  0
    7.8743   -5.8828    2.4327 H   0  0  0  0  0  0  0  0  0  0  0  0
    7.1762   -6.5748    1.0082 H   0  0  0  0  0  0  0  0  0  0  0  0
    7.0001   -7.3929    2.5351 H   0  0  0  0  0  0  0  0  0  0  0  0
    6.5641   -3.5684    2.4687 H   0  0  0  0  0  0  0  0  0  0  0  0
    7.6642   -2.9247   -0.8005 H   0  0  0  0  0  0  0  0  0  0  0  0
    7.8772   -2.4565    0.8809 H   0  0  0  0  0  0  0  0  0  0  0  0
    6.3740   -2.0762    0.0335 H   0  0  0  0  0  0  0  0  0  0  0  0
    3.7732    0.3404    2.5699 H   0  0  0  0  0  0  0  0  0  0  0  0
    3.6446    0.2041    0.8202 H   0  0  0  0  0  0  0  0  0  0  0  0
    5.1342   -0.2512    1.6255 H   0  0  0  0  0  0  0  0  0  0  0  0
    1.5777   -2.1975    2.7266 H   0  0  0  0  0  0  0  0  0  0  0  0
    1.5982   -2.1630    0.9570 H   0  0  0  0  0  0  0  0  0  0  0  0
    1.5963   -0.6741    1.8907 H   0  0  0  0  0  0  0  0  0  0  0  0
    5.1577   -2.0806    3.0430 H   0  0  0  0  0  0  0  0  0  0  0  0
    3.6049   -2.4709    4.8191 H   0  0  0  0  0  0  0  0  0  0  0  0
    2.8701   -3.7946    3.9737 H   0  0  0  0  0  0  0  0  0  0  0  0
    5.8556   -3.6266    4.4160 H   0  0  0  0  0  0  0  0  0  0  0  0
    4.6870   -4.3754    8.5084 H   0  0  0  0  0  0  0  0  0  0  0  0
    5.0377   -2.6752    8.8402 H   0  0  0  0  0  0  0  0  0  0  0  0
    6.3604   -3.8332    8.6814 H   0  0  0  0  0  0  0  0  0  0  0  0
    6.8261   -6.6231    4.2623 H   0  0  0  0  0  0  0  0  0  0  0  0
    5.0855   -7.3972    5.0418 H   0  0  0  0  0  0  0  0  0  0  0  0
    3.9641   -6.3821    6.6029 H   0  0  0  0  0  0  0  0  0  0  0  0
    4.1752   -8.6744    6.5788 H   0  0  0  0  0  0  0  0  0  0  0  0
    2.8755   -8.1654    7.5083 H   0  0  0  0  0  0  0  0  0  0  0  0
    2.9897  -10.2672    5.9191 H   0  0  0  0  0  0  0  0  0  0  0  0
    1.3951  -10.7933    6.9489 H   0  0  0  0  0  0  0  0  0  0  0  0
   -0.1375  -10.4578    4.7586 H   0  0  0  0  0  0  0  0  0  0  0  0
   -0.1273   -9.6725    3.2154 H   0  0  0  0  0  0  0  0  0  0  0  0
   -0.2960   -8.7392    4.7004 H   0  0  0  0  0  0  0  0  0  0  0  0
    1.7465  -11.6796    4.3653 H   0  0  0  0  0  0  0  0  0  0  0  0
    3.2667  -11.0439    3.8214 H   0  0  0  0  0  0  0  0  0  0  0  0
    1.8793  -11.0337    2.7460 H   0  0  0  0  0  0  0  0  0  0  0  0
    1.1137   -6.8518    7.8146 H   0  0  0  0  0  0  0  0  0  0  0  0
    0.4674   -7.5915    6.3651 H   0  0  0  0  0  0  0  0  0  0  0  0
   -0.0633   -6.0240    6.8293 H   0  0  0  0  0  0  0  0  0  0  0  0
    2.6258   -4.7890    7.6847 H   0  0  0  0  0  0  0  0  0  0  0  0
    1.1361   -4.2221    6.9737 H   0  0  0  0  0  0  0  0  0  0  0  0
    2.5934   -3.8727    6.1897 H   0  0  0  0  0  0  0  0  0  0  0  0
  1  2  1  0
  1 44  1  0
  1 45  1  0
  1 46  1  0
  2  3  1  0
  3 30  1  0
  3  4  1  0
  3 47  1  1
  4 35  1  0
  4  5  1  0
  4 48  1  6
  5 42  1  0
  5  6  1  0
  5 49  1  6
  6  7  1  0
  6 50  1  0
  6 51  1  0
  7  8  2  3
  7 52  1  0
  8 16  1  0
  8  9  1  0
  9 10  1  0
  9 11  1  0
  9 53  1  1
 10 54  1  0
 11 28  1  0
 11 12  1  1
 11 13  1  0
 12 55  1  0
 12 56  1  0
 12 57  1  0
 13 14  1  0
 13 16  1  0
 13 58  1  1
 14 15  1  0
 15 59  1  0
 15 60  1  0
 15 61  1  0
 16 21  1  0
 16 17  1  6
 17 18  1  0
 18 19  1  0
 18 20  1  0
 18 21  1  0
 19 62  1  0
 19 63  1  0
 19 64  1  0
 20 65  1  0
 20 66  1  0
 20 67  1  0
 21 22  1  0
 21 68  1  1
 22 23  1  0
 22 69  1  0
 22 70  1  0
 23 24  1  0
 23 28  1  0
 23 71  1  1
 24 25  1  0
 25 26  1  0
 25 27  2  0
 26 72  1  0
 26 73  1  0
 26 74  1  0
 28 29  1  1
 28 30  1  0
 29 75  1  0
 30 31  1  0
 30 76  1  1
 31 32  1  0
 31 38  1  0
 31 77  1  1
 32 33  1  0
 32 78  1  0
 32 79  1  0
 33 34  1  0
 33 35  1  0
 33 80  1  6
 34 81  1  0
 35 36  1  0
 35 37  1  0
 36 82  1  0
 36 83  1  0
 36 84  1  0
 37 85  1  0
 37 86  1  0
 37 87  1  0
 38 39  1  0
 38 40  1  0
 38 41  1  0
 39 88  1  0
 39 89  1  0
 39 90  1  0
 40 91  1  0
 40 92  1  0
 40 93  1  0
 41 42  1  0
 42 43  2  0
M  END
>  <i_m_ct_stereo_status>  (311) 
1

>  <s_m_source_file>  (311) 
/var/tmp/pbs.5076255.sched01/tmp4tnmxshi/11480k6dy83.sdf

>  <i_m_source_file_index>  (311) 
27

>  <i_lp_mmshare_version>  (311) 
48012

>  <i_f3d_flags>  (311) 
0

>  <s_epik_input>  (311) 
W0NAXTEyM0MvND1bQ0hdXFtDSDJdW0NASF01W0NASF02W0NAQEhdKE9bQ0gzXSlbQ0BASF0oW0NAQEhdKEMoW0NIM10pKFtDSDNdKU9DNT1PKVtDSDJdW0NAQEhdKFtPSF0pQzYoW0NIM10pW0NIM10pW0NAQF0oW09IXSkoW0NAQF0oW0NIM10pKFtDQEBIXTRbT0hdKVtDQEhdMU9bQ0gzXSlbQ0BIXShPQyg9TylbQ0gzXSlbQ0gyXVtDQEBIXTNDKE8yKShbQ0gzXSlbQ0gzXQ==

>  <s_epik_cmdline>  (311) 
J2VwaWtfcHl0aG9uJywgJy1waHQnLCAnMi4wJywgJy1waCcsICc3LjAnLCAnLXRuJywgJzgnLCAnLW1hJywgJzIwMCcsICctaW1hZScsICc8aW5maWxlLm1hZT4nLCAnLW9tYWUnLCAnPG91dGZpbGUubWFlPic=

>  <r_lp_tautomer_probability>  (311) 
1

>  <r_epik_Ionization_Penalty>  (311) 
9.83206e-07

>  <r_epik_Ionization_Penalty_Charging>  (311) 
0

>  <r_epik_Ionization_Penalty_Neutral>  (311) 
9.83206e-07

>  <r_epik_State_Penalty>  (311) 
-0

>  <r_epik_Charging_Adjusted_Penalty>  (311) 
0

>  <i_epik_Tot_Q>  (311) 
0

>  <i_epik_Tot_abs_Q>  (311) 
0

>  <s_epik_Chemistry_Notes>  (311) 
This compound has an ester and may undergo hydrolysis at high or low pH.

>  <s_lp_Force_Field>  (311) 
OPLS3e

>  <r_lp_Energy>  (311) 
201.89

>  <b_lp_Chiralities_Consistent>  (311) 
1

>  <s_lp_Variant>  (311) 
99:0-4

>  <s_i_glide_gridfile>  (311) 
pfpi4k_grid

>  <i_i_glide_lignum>  (311) 
27

>  <i_i_glide_rotatable_bonds>  (311) 
7

>  <r_i_docking_score>  (311) 
-2.90024

>  <r_i_glide_ligand_efficiency>  (311) 
-0.0674473

>  <r_i_glide_ligand_efficiency_sa>  (311) 
-0.236295

>  <r_i_glide_ligand_efficiency_ln>  (311) 
-0.60914

>  <r_i_glide_gscore>  (311) 
-2.90024

>  <r_i_glide_lipo>  (311) 
-0.40375

>  <r_i_glide_hbond>  (311) 
-0.204151

>  <r_i_glide_metal>  (311) 
-0

>  <r_i_glide_rewards>  (311) 
-0.00983338

>  <r_i_glide_evdw>  (311) 
-24.0021

>  <r_i_glide_ecoul>  (311) 
-7.43305

>  <r_i_glide_erotb>  (311) 
0.0571345

>  <r_i_glide_esite>  (311) 
-0.0245709

>  <r_i_glide_emodel>  (311) 
-36.7247

>  <r_i_glide_energy>  (311) 
-31.4352

>  <r_i_glide_einternal>  (311) 
1.50194

>  <r_i_glide_intrahb_reward>  (311) 
-0

>  <i_i_glide_confnum>  (311) 
1

>  <i_i_glide_posenum>  (311) 
7

>  <r_i_glide_eff_state_penalty>  (311) 
0

>  <ligand_id>  (311) 
99

>  <original_smiles>  (311) 
COC1C2C3CC=C4C(O)C5(C)C(OC)C46OC(C)(C)C6CC(OC(C)=O)C5(O)C1C(CC(O)C2(C)C)C(C)(C)OC3=O

>  <smiles>  (311) 
[H]OC1([H])C2=C([H])C([H])([H])C3([H])C(=O)OC(C([H])([H])[H])(C([H])([H])[H])C4([H])C([H])([H])C([H])(O[H])C(C([H])([H])[H])(C([H])([H])[H])C3([H])C([H])(OC([H])([H])[H])C4([H])C3(O[H])C([H])(OC(=O)C([H])([H])[H])C([H])([H])C4([H])C2(OC4(C([H])([H])[H])C([H])([H])[H])C([H])(OC([H])([H])[H])C13C([H])([H])[H]

$$$$
99:3:2
     RDKit          3D

 93 98  0  0  1  0  0  0  0  0999 V2000
    4.9369   -9.8367    2.1936 C   0  0  0  0  0  0  0  0  0  0  0  0
    4.8529   -8.5109    2.7043 O   0  0  0  0  0  0  0  0  0  0  0  0
    3.8710   -8.1881    3.6867 C   0  0  2  0  0  0  0  0  0  0  0  0
    2.3502   -8.4459    3.3611 C   0  0  2  0  0  0  0  0  0  0  0  0
    1.3442   -7.2890    2.9024 C   0  0  2  0  0  0  0  0  0  0  0  0
    1.5829   -6.4936    1.5810 C   0  0  0  0  0  0  0  0  0  0  0  0
    2.2585   -5.1232    1.6707 C   0  0  0  0  0  0  0  0  0  0  0  0
    3.5680   -4.9139    1.4547 C   0  0  0  0  0  0  0  0  0  0  0  0
    4.5054   -6.0557    1.3155 C   0  0  1  0  0  0  0  0  0  0  0  0
    4.8858   -6.2119   -0.0379 O   0  0  0  0  0  0  0  0  0  0  0  0
    5.6393   -5.6647    2.3024 C   0  0  1  0  0  0  0  0  0  0  0  0
    6.9449   -6.4913    2.0354 C   0  0  0  0  0  0  0  0  0  0  0  0
    5.8702   -4.2109    1.7248 C   0  0  1  0  0  0  0  0  0  0  0  0
    6.5633   -4.1990    0.4732 O   0  0  0  0  0  0  0  0  0  0  0  0
    7.0637   -2.9368    0.0501 C   0  0  0  0  0  0  0  0  0  0  0  0
    4.4323   -3.6510    1.5905 C   0  0  1  0  0  0  0  0  0  0  0  0
    4.0312   -2.5854    0.6629 O   0  0  0  0  0  0  0  0  0  0  0  0
    3.4541   -1.7961    1.7650 C   0  0  0  0  0  0  0  0  0  0  0  0
    3.9815   -0.3647    1.5893 C   0  0  0  0  0  0  0  0  0  0  0  0
    1.9254   -1.7762    1.7818 C   0  0  0  0  0  0  0  0  0  0  0  0
    4.1826   -2.7119    2.7345 C   0  0  1  0  0  0  0  0  0  0  0  0
    3.7343   -3.3476    4.0116 C   0  0  0  0  0  0  0  0  0  0  0  0
    4.8995   -4.2501    4.5317 C   0  0  1  0  0  0  0  0  0  0  0  0
    4.9405   -4.2349    5.9562 O   0  0  0  0  0  0  0  0  0  0  0  0
    5.3929   -3.1858    6.6912 C   0  0  0  0  0  0  0  0  0  0  0  0
    5.7357   -1.8811    5.9585 C   0  0  0  0  0  0  0  0  0  0  0  0
    5.4847   -3.2325    7.9168 O   0  0  0  0  0  0  0  0  0  0  0  0
    5.1573   -5.6918    3.9056 C   0  0  2  0  0  0  0  0  0  0  0  0
    6.4358   -5.8602    4.5292 O   0  0  0  0  0  0  0  0  0  0  0  0
    4.2473   -6.9322    4.5402 C   0  0  1  0  0  0  0  0  0  0  0  0
    3.3234   -6.8484    5.8650 C   0  0  2  0  0  0  0  0  0  0  0  0
    3.1865   -8.2628    6.5077 C   0  0  0  0  0  0  0  0  0  0  0  0
    2.3061   -9.4182    5.8990 C   0  0  1  0  0  0  0  0  0  0  0  0
    1.3235   -9.7380    6.8611 O   0  0  0  0  0  0  0  0  0  0  0  0
    1.7678   -9.5148    4.3918 C   0  0  0  0  0  0  0  0  0  0  0  0
    0.2166   -9.6205    4.3398 C   0  0  0  0  0  0  0  0  0  0  0  0
    2.1826  -10.9283    3.8836 C   0  0  0  0  0  0  0  0  0  0  0  0
    1.9734   -6.0079    5.9789 C   0  0  0  0  0  0  0  0  0  0  0  0
    0.8239   -6.6529    6.8215 C   0  0  0  0  0  0  0  0  0  0  0  0
    2.1099   -4.6549    6.7222 C   0  0  0  0  0  0  0  0  0  0  0  0
    1.6049   -5.6995    4.6468 O   0  0  0  0  0  0  0  0  0  0  0  0
    0.7217   -6.4071    3.9768 C   0  0  0  0  0  0  0  0  0  0  0  0
   -0.4982   -6.3104    4.1075 O   0  0  0  0  0  0  0  0  0  0  0  0
    5.7323   -9.8715    1.4513 H   0  0  0  0  0  0  0  0  0  0  0  0
    4.0235  -10.1535    1.6932 H   0  0  0  0  0  0  0  0  0  0  0  0
    5.1934  -10.5576    2.9695 H   0  0  0  0  0  0  0  0  0  0  0  0
    4.1472   -9.0214    4.3270 H   0  0  0  0  0  0  0  0  0  0  0  0
    2.3758   -8.9914    2.4211 H   0  0  0  0  0  0  0  0  0  0  0  0
    0.4781   -7.8699    2.5884 H   0  0  0  0  0  0  0  0  0  0  0  0
    2.0535   -7.1477    0.8455 H   0  0  0  0  0  0  0  0  0  0  0  0
    0.6070   -6.2966    1.1323 H   0  0  0  0  0  0  0  0  0  0  0  0
    1.6196   -4.3036    1.9338 H   0  0  0  0  0  0  0  0  0  0  0  0
    3.9850   -6.9564    1.5208 H   0  0  0  0  0  0  0  0  0  0  0  0
    4.1119   -6.2313   -0.5745 H   0  0  0  0  0  0  0  0  0  0  0  0
    7.8278   -5.9526    2.3838 H   0  0  0  0  0  0  0  0  0  0  0  0
    7.1234   -6.6758    0.9759 H   0  0  0  0  0  0  0  0  0  0  0  0
    6.9651   -7.4665    2.5236 H   0  0  0  0  0  0  0  0  0  0  0  0
    6.5153   -3.6431    2.3913 H   0  0  0  0  0  0  0  0  0  0  0  0
    7.5682   -3.0529   -0.9090 H   0  0  0  0  0  0  0  0  0  0  0  0
    7.7826   -2.5360    0.7641 H   0  0  0  0  0  0  0  0  0  0  0  0
    6.2745   -2.2027   -0.0908 H   0  0  0  0  0  0  0  0  0  0  0  0
    3.7123    0.2621    2.4367 H   0  0  0  0  0  0  0  0  0  0  0  0
    3.5691    0.0943    0.6949 H   0  0  0  0  0  0  0  0  0  0  0  0
    5.0654   -0.3377    1.4926 H   0  0  0  0  0  0  0  0  0  0  0  0
    1.5246   -2.2725    2.6652 H   0  0  0  0  0  0  0  0  0  0  0  0
    1.5239   -2.2526    0.8919 H   0  0  0  0  0  0  0  0  0  0  0  0
    1.5377   -0.7621    1.8103 H   0  0  0  0  0  0  0  0  0  0  0  0
    5.1019   -2.1582    2.9316 H   0  0  0  0  0  0  0  0  0  0  0  0
    3.5151   -2.5446    4.7098 H   0  0  0  0  0  0  0  0  0  0  0  0
    2.7975   -3.8693    3.8917 H   0  0  0  0  0  0  0  0  0  0  0  0
    5.8059   -3.7132    4.2967 H   0  0  0  0  0  0  0  0  0  0  0  0
    5.8673   -2.0062    4.8887 H   0  0  0  0  0  0  0  0  0  0  0  0
    6.6488   -1.4295    6.3524 H   0  0  0  0  0  0  0  0  0  0  0  0
    4.9298   -1.1541    6.1059 H   0  0  0  0  0  0  0  0  0  0  0  0
    6.7958   -6.6932    4.2666 H   0  0  0  0  0  0  0  0  0  0  0  0
    5.0636   -7.4416    5.0542 H   0  0  0  0  0  0  0  0  0  0  0  0
    3.9690   -6.3731    6.5991 H   0  0  0  0  0  0  0  0  0  0  0  0
    4.1921   -8.6684    6.6220 H   0  0  0  0  0  0  0  0  0  0  0  0
    2.9048   -8.1350    7.5527 H   0  0  0  0  0  0  0  0  0  0  0  0
    2.9796  -10.2710    6.0160 H   0  0  0  0  0  0  0  0  0  0  0  0
    1.3622  -10.6780    7.0459 H   0  0  0  0  0  0  0  0  0  0  0  0
   -0.1336  -10.4974    4.8835 H   0  0  0  0  0  0  0  0  0  0  0  0
   -0.1475   -9.7464    3.3215 H   0  0  0  0  0  0  0  0  0  0  0  0
   -0.3027   -8.7799    4.7883 H   0  0  0  0  0  0  0  0  0  0  0  0
    1.7441  -11.7232    4.4902 H   0  0  0  0  0  0  0  0  0  0  0  0
    3.2567  -11.0948    3.9159 H   0  0  0  0  0  0  0  0  0  0  0  0
    1.8553  -11.1101    2.8603 H   0  0  0  0  0  0  0  0  0  0  0  0
    1.1292   -6.8305    7.8534 H   0  0  0  0  0  0  0  0  0  0  0  0
    0.4564   -7.5821    6.4171 H   0  0  0  0  0  0  0  0  0  0  0  0
   -0.0640   -6.0203    6.8668 H   0  0  0  0  0  0  0  0  0  0  0  0
    2.6520   -4.7593    7.6617 H   0  0  0  0  0  0  0  0  0  0  0  0
    1.1405   -4.2186    6.9673 H   0  0  0  0  0  0  0  0  0  0  0  0
    2.5821   -3.8803    6.1487 H   0  0  0  0  0  0  0  0  0  0  0  0
  1  2  1  0
  1 44  1  0
  1 45  1  0
  1 46  1  0
  2  3  1  0
  3 30  1  0
  3  4  1  0
  3 47  1  1
  4 35  1  0
  4  5  1  0
  4 48  1  6
  5 42  1  0
  5  6  1  0
  5 49  1  6
  6  7  1  0
  6 50  1  0
  6 51  1  0
  7  8  2  3
  7 52  1  0
  8 16  1  0
  8  9  1  0
  9 10  1  0
  9 11  1  0
  9 53  1  1
 10 54  1  0
 11 28  1  0
 11 12  1  1
 11 13  1  0
 12 55  1  0
 12 56  1  0
 12 57  1  0
 13 14  1  0
 13 16  1  0
 13 58  1  1
 14 15  1  0
 15 59  1  0
 15 60  1  0
 15 61  1  0
 16 21  1  0
 16 17  1  6
 17 18  1  0
 18 19  1  0
 18 20  1  0
 18 21  1  0
 19 62  1  0
 19 63  1  0
 19 64  1  0
 20 65  1  0
 20 66  1  0
 20 67  1  0
 21 22  1  0
 21 68  1  1
 22 23  1  0
 22 69  1  0
 22 70  1  0
 23 24  1  0
 23 28  1  0
 23 71  1  6
 24 25  1  0
 25 26  1  0
 25 27  2  0
 26 72  1  0
 26 73  1  0
 26 74  1  0
 28 29  1  1
 28 30  1  0
 29 75  1  0
 30 31  1  0
 30 76  1  1
 31 32  1  0
 31 38  1  0
 31 77  1  1
 32 33  1  0
 32 78  1  0
 32 79  1  0
 33 34  1  0
 33 35  1  0
 33 80  1  6
 34 81  1  0
 35 36  1  0
 35 37  1  0
 36 82  1  0
 36 83  1  0
 36 84  1  0
 37 85  1  0
 37 86  1  0
 37 87  1  0
 38 39  1  0
 38 40  1  0
 38 41  1  0
 39 88  1  0
 39 89  1  0
 39 90  1  0
 40 91  1  0
 40 92  1  0
 40 93  1  0
 41 42  1  0
 42 43  2  0
M  END
>  <i_m_ct_stereo_status>  (312) 
1

>  <s_m_source_file>  (312) 
/var/tmp/pbs.5076255.sched01/tmp4tnmxshi/11480k6dy83.sdf

>  <i_m_source_file_index>  (312) 
27

>  <i_lp_mmshare_version>  (312) 
48012

>  <i_f3d_flags>  (312) 
0

>  <s_epik_input>  (312) 
W0NAXTEyM0MvND1bQ0hdXFtDSDJdW0NASF01W0NASF02W0NAQEhdKE9bQ0gzXSlbQ0BASF0oW0NAQEhdKEMoW0NIM10pKFtDSDNdKU9DNT1PKVtDSDJdW0NAQEhdKFtPSF0pQzYoW0NIM10pW0NIM10pW0NAQF0oW09IXSkoW0NAQF0oW0NIM10pKFtDQEBIXTRbT0hdKVtDQEhdMU9bQ0gzXSlbQ0BIXShPQyg9TylbQ0gzXSlbQ0gyXVtDQEBIXTNDKE8yKShbQ0gzXSlbQ0gzXQ==

>  <s_epik_cmdline>  (312) 
J2VwaWtfcHl0aG9uJywgJy1waHQnLCAnMi4wJywgJy1waCcsICc3LjAnLCAnLXRuJywgJzgnLCAnLW1hJywgJzIwMCcsICctaW1hZScsICc8aW5maWxlLm1hZT4nLCAnLW9tYWUnLCAnPG91dGZpbGUubWFlPic=

>  <r_lp_tautomer_probability>  (312) 
1

>  <r_epik_Ionization_Penalty>  (312) 
9.83206e-07

>  <r_epik_Ionization_Penalty_Charging>  (312) 
0

>  <r_epik_Ionization_Penalty_Neutral>  (312) 
9.83206e-07

>  <r_epik_State_Penalty>  (312) 
-0

>  <r_epik_Charging_Adjusted_Penalty>  (312) 
0

>  <i_epik_Tot_Q>  (312) 
0

>  <i_epik_Tot_abs_Q>  (312) 
0

>  <s_epik_Chemistry_Notes>  (312) 
This compound has an ester and may undergo hydrolysis at high or low pH.

>  <s_lp_Force_Field>  (312) 
OPLS3e

>  <r_lp_Energy>  (312) 
201.89

>  <b_lp_Chiralities_Consistent>  (312) 
1

>  <s_lp_Variant>  (312) 
99:0-4

>  <s_i_glide_gridfile>  (312) 
pfpi4k_grid

>  <i_i_glide_lignum>  (312) 
27

>  <i_i_glide_rotatable_bonds>  (312) 
7

>  <r_i_docking_score>  (312) 
-2.74306

>  <r_i_glide_ligand_efficiency>  (312) 
-0.063792

>  <r_i_glide_ligand_efficiency_sa>  (312) 
-0.223489

>  <r_i_glide_ligand_efficiency_ln>  (312) 
-0.576127

>  <r_i_glide_gscore>  (312) 
-2.74306

>  <r_i_glide_lipo>  (312) 
-0.408024

>  <r_i_glide_hbond>  (312) 
-0.197786

>  <r_i_glide_metal>  (312) 
-0

>  <r_i_glide_rewards>  (312) 
-0.00977304

>  <r_i_glide_evdw>  (312) 
-23.9537

>  <r_i_glide_ecoul>  (312) 
-6.41616

>  <r_i_glide_erotb>  (312) 
0.0571345

>  <r_i_glide_esite>  (312) 
-0.0245009

>  <r_i_glide_emodel>  (312) 
-32.4301

>  <r_i_glide_energy>  (312) 
-30.3698

>  <r_i_glide_einternal>  (312) 
6.52469

>  <r_i_glide_intrahb_reward>  (312) 
-0

>  <i_i_glide_confnum>  (312) 
3

>  <i_i_glide_posenum>  (312) 
17

>  <r_i_glide_eff_state_penalty>  (312) 
0

>  <ligand_id>  (312) 
99

>  <original_smiles>  (312) 
COC1C2C3CC=C4C(O)C5(C)C(OC)C46OC(C)(C)C6CC(OC(C)=O)C5(O)C1C(CC(O)C2(C)C)C(C)(C)OC3=O

>  <smiles>  (312) 
[H]OC1([H])C2=C([H])C([H])([H])C3([H])C(=O)OC(C([H])([H])[H])(C([H])([H])[H])C4([H])C([H])([H])C([H])(O[H])C(C([H])([H])[H])(C([H])([H])[H])C3([H])C([H])(OC([H])([H])[H])C4([H])C3(O[H])C([H])(OC(=O)C([H])([H])[H])C([H])([H])C4([H])C2(OC4(C([H])([H])[H])C([H])([H])[H])C([H])(OC([H])([H])[H])C13C([H])([H])[H]

$$$$
100:0:0
     RDKit          3D

 53 57  0  0  1  0  0  0  0  0999 V2000
    0.4960   -6.4340    3.8839 C   0  0  0  0  0  0  0  0  0  0  0  0
    0.4842   -7.5621    2.8406 C   0  0  2  0  0  0  0  0  0  0  0  0
   -0.5218   -8.6408    3.2321 C   0  0  0  0  0  0  0  0  0  0  0  0
   -1.4663   -9.2022    2.1968 C   0  0  0  0  0  0  0  0  0  0  0  0
   -1.9962   -8.3252    3.2974 C   0  0  0  0  0  0  0  0  0  0  0  0
    1.8846   -8.1622    2.4973 C   0  0  2  0  0  0  0  0  0  0  0  0
    2.6364   -8.6863    3.7407 C   0  0  0  0  0  0  0  0  0  0  0  0
    3.6560   -7.6059    4.1083 C   0  0  0  0  0  0  0  0  0  0  0  0
    4.1101   -7.0381    2.7594 C   0  0  2  0  0  0  0  0  0  0  0  0
    4.7539   -5.6257    2.7626 C   0  0  2  0  0  0  0  0  0  0  0  0
    4.0407   -4.5209    3.6009 C   0  0  0  0  0  0  0  0  0  0  0  0
    4.7908   -3.1705    3.5517 C   0  0  0  0  0  0  0  0  0  0  0  0
    4.9443   -2.7732    2.0789 C   0  0  1  0  0  0  0  0  0  0  0  0
    5.7082   -1.5118    1.7327 C   0  0  0  0  0  0  0  0  0  0  0  0
    5.7625   -0.5113    2.4392 O   0  0  0  0  0  0  0  0  0  0  0  0
    6.3935   -1.6635    0.3784 C   0  0  0  0  0  0  0  0  0  0  0  0
    6.1108   -3.1325   -0.0152 C   0  0  0  0  0  0  0  0  0  0  0  0
    5.7350   -3.8259    1.3084 C   0  0  2  0  0  0  0  0  0  0  0  0
    4.9886   -5.1761    1.2905 C   0  0  2  0  0  0  0  0  0  0  0  0
    3.6882   -5.1342    0.4438 C   0  0  0  0  0  0  0  0  0  0  0  0
    2.5664   -6.0701    0.9105 C   0  0  0  0  0  0  0  0  0  0  0  0
    1.4141   -5.8616    0.5351 O   0  0  0  0  0  0  0  0  0  0  0  0
    2.9618   -7.2969    1.7561 C   0  0  2  0  0  0  0  0  0  0  0  0
    0.8092   -6.7888    4.8646 H   0  0  0  0  0  0  0  0  0  0  0  0
   -0.5013   -6.0158    4.0079 H   0  0  0  0  0  0  0  0  0  0  0  0
    1.1494   -5.6180    3.5808 H   0  0  0  0  0  0  0  0  0  0  0  0
    0.0687   -7.1425    1.9310 H   0  0  0  0  0  0  0  0  0  0  0  0
   -0.1699   -9.3496    3.9833 H   0  0  0  0  0  0  0  0  0  0  0  0
   -1.4117   -8.7763    1.1962 H   0  0  0  0  0  0  0  0  0  0  0  0
   -1.7102  -10.2529    2.2441 H   0  0  0  0  0  0  0  0  0  0  0  0
   -2.5764   -8.8140    4.0787 H   0  0  0  0  0  0  0  0  0  0  0  0
   -2.3081   -7.3143    3.0410 H   0  0  0  0  0  0  0  0  0  0  0  0
    1.6863   -9.0248    1.8570 H   0  0  0  0  0  0  0  0  0  0  0  0
    1.9845   -8.9319    4.5802 H   0  0  0  0  0  0  0  0  0  0  0  0
    3.1711   -9.6014    3.4798 H   0  0  0  0  0  0  0  0  0  0  0  0
    3.1634   -6.8524    4.7183 H   0  0  0  0  0  0  0  0  0  0  0  0
    4.4929   -8.0022    4.6887 H   0  0  0  0  0  0  0  0  0  0  0  0
    4.9046   -7.7076    2.4260 H   0  0  0  0  0  0  0  0  0  0  0  0
    5.7330   -5.7506    3.2296 H   0  0  0  0  0  0  0  0  0  0  0  0
    3.0293   -4.3682    3.2262 H   0  0  0  0  0  0  0  0  0  0  0  0
    3.9502   -4.8252    4.6435 H   0  0  0  0  0  0  0  0  0  0  0  0
    4.2407   -2.4069    4.1038 H   0  0  0  0  0  0  0  0  0  0  0  0
    5.7608   -3.2642    4.0408 H   0  0  0  0  0  0  0  0  0  0  0  0
    3.9518   -2.6405    1.6518 H   0  0  0  0  0  0  0  0  0  0  0  0
    5.9763   -0.9558   -0.3386 H   0  0  0  0  0  0  0  0  0  0  0  0
    7.4602   -1.4635    0.4905 H   0  0  0  0  0  0  0  0  0  0  0  0
    5.2766   -3.1635   -0.7181 H   0  0  0  0  0  0  0  0  0  0  0  0
    6.9723   -3.6046   -0.4918 H   0  0  0  0  0  0  0  0  0  0  0  0
    6.6712   -3.9952    1.8449 H   0  0  0  0  0  0  0  0  0  0  0  0
    5.6528   -5.9063    0.8210 H   0  0  0  0  0  0  0  0  0  0  0  0
    3.2759   -4.1267    0.4264 H   0  0  0  0  0  0  0  0  0  0  0  0
    3.9282   -5.3730   -0.5913 H   0  0  0  0  0  0  0  0  0  0  0  0
    3.3935   -7.9630    1.0091 H   0  0  0  0  0  0  0  0  0  0  0  0
  1  2  1  0
  1 24  1  0
  1 25  1  0
  1 26  1  0
  2  3  1  0
  2  6  1  0
  2 27  1  6
  3  5  1  0
  3  4  1  0
  3 28  1  0
  4  5  1  0
  4 29  1  0
  4 30  1  0
  5 31  1  0
  5 32  1  0
  6 23  1  0
  6  7  1  0
  6 33  1  6
  7  8  1  0
  7 34  1  0
  7 35  1  0
  8  9  1  0
  8 36  1  0
  8 37  1  0
  9 23  1  0
  9 10  1  0
  9 38  1  6
 10 19  1  0
 10 11  1  0
 10 39  1  1
 11 12  1  0
 11 40  1  0
 11 41  1  0
 12 13  1  0
 12 42  1  0
 12 43  1  0
 13 18  1  0
 13 14  1  0
 13 44  1  6
 14 15  2  0
 14 16  1  0
 16 17  1  0
 16 45  1  0
 16 46  1  0
 17 18  1  0
 17 47  1  0
 17 48  1  0
 18 19  1  0
 18 49  1  1
 19 20  1  0
 19 50  1  6
 20 21  1  0
 20 51  1  0
 20 52  1  0
 21 22  2  0
 21 23  1  0
 23 53  1  6
M  END
>  <i_m_ct_stereo_status>  (313) 
1

>  <s_m_source_file>  (313) 
/var/tmp/pbs.5076255.sched01/tmp4tnmxshi/11480k6dy83.sdf

>  <i_m_source_file_index>  (313) 
28

>  <i_lp_mmshare_version>  (313) 
48012

>  <i_f3d_flags>  (313) 
0

>  <s_epik_input>  (313) 
W0NIMl0xW0NIMl1bQ0hdMVtDQEBIXShbQ0gzXSlbQ0BIXShbQ0gyXVtDSDJdMilbQ0BIXTNDKD1PKVtDSDJdW0NASF0oW0NAQEhdNFtDQEBIXTIzKVtDQEBIXTVbQ0BASF0oW0NIMl1bQ0gyXTQpQyg9TylbQ0gyXVtDSDJdNQ==

>  <s_epik_cmdline>  (313) 
J2VwaWtfcHl0aG9uJywgJy1waHQnLCAnMi4wJywgJy1waCcsICc3LjAnLCAnLXRuJywgJzgnLCAnLW1hJywgJzIwMCcsICctaW1hZScsICc8aW5maWxlLm1hZT4nLCAnLW9tYWUnLCAnPG91dGZpbGUubWFlPic=

>  <r_lp_tautomer_probability>  (313) 
1

>  <r_epik_Ionization_Penalty>  (313) 
1.03405e-13

>  <r_epik_Ionization_Penalty_Charging>  (313) 
0

>  <r_epik_Ionization_Penalty_Neutral>  (313) 
1.03405e-13

>  <r_epik_State_Penalty>  (313) 
-0

>  <r_epik_Charging_Adjusted_Penalty>  (313) 
0

>  <i_epik_Tot_Q>  (313) 
0

>  <i_epik_Tot_abs_Q>  (313) 
0

>  <s_lp_Force_Field>  (313) 
OPLS3e

>  <r_lp_Energy>  (313) 
24.4117

>  <b_lp_Chiralities_Consistent>  (313) 
1

>  <s_lp_Variant>  (313) 
100:0-1

>  <s_i_glide_gridfile>  (313) 
pfpi4k_grid

>  <i_i_glide_lignum>  (313) 
28

>  <i_i_glide_rotatable_bonds>  (313) 
2

>  <r_i_docking_score>  (313) 
-3.34341

>  <r_i_glide_ligand_efficiency>  (313) 
-0.145366

>  <r_i_glide_ligand_efficiency_sa>  (313) 
-0.413401

>  <r_i_glide_ligand_efficiency_ln>  (313) 
-0.808467

>  <r_i_glide_gscore>  (313) 
-3.34341

>  <r_i_glide_lipo>  (313) 
-0.547951

>  <r_i_glide_hbond>  (313) 
-0.212128

>  <r_i_glide_metal>  (313) 
-0

>  <r_i_glide_rewards>  (313) 
-1.45774

>  <r_i_glide_evdw>  (313) 
-19.922

>  <r_i_glide_ecoul>  (313) 
-3.23179

>  <r_i_glide_erotb>  (313) 
0.375962

>  <r_i_glide_esite>  (313) 
-0.0206821

>  <r_i_glide_emodel>  (313) 
-27.8018

>  <r_i_glide_energy>  (313) 
-23.1538

>  <r_i_glide_einternal>  (313) 
1.02351

>  <r_i_glide_intrahb_reward>  (313) 
-0

>  <i_i_glide_confnum>  (313) 
2

>  <i_i_glide_posenum>  (313) 
31

>  <r_i_glide_eff_state_penalty>  (313) 
0

>  <ligand_id>  (313) 
100

>  <original_smiles>  (313) 
CC(C1CC1)C1CCC2C3CCC4C(=O)CCC4C3CC(=O)C12

>  <smiles>  (313) 
[H]C([H])([H])C([H])(C1([H])C([H])([H])C1([H])[H])C1([H])C([H])([H])C([H])([H])C2([H])C1([H])C(=O)C([H])([H])C1([H])C3([H])C([H])([H])C([H])([H])C(=O)C3([H])C([H])([H])C([H])([H])C21[H]

$$$$
100:0:1
     RDKit          3D

 53 57  0  0  1  0  0  0  0  0999 V2000
    0.9536   -6.9785    3.2965 C   0  0  0  0  0  0  0  0  0  0  0  0
    1.0629   -8.0416    2.1861 C   0  0  2  0  0  0  0  0  0  0  0  0
    0.3641   -9.3461    2.5814 C   0  0  0  0  0  0  0  0  0  0  0  0
   -1.1304   -9.3551    2.8253 C   0  0  0  0  0  0  0  0  0  0  0  0
   -0.1810   -9.5880    3.9734 C   0  0  0  0  0  0  0  0  0  0  0  0
    2.5249   -8.2918    1.6805 C   0  0  2  0  0  0  0  0  0  0  0  0
    3.4464   -8.8966    2.7559 C   0  0  0  0  0  0  0  0  0  0  0  0
    4.2841   -7.7349    3.2895 C   0  0  0  0  0  0  0  0  0  0  0  0
    4.5374   -6.8469    2.0649 C   0  0  2  0  0  0  0  0  0  0  0  0
    4.9117   -5.3650    2.3310 C   0  0  2  0  0  0  0  0  0  0  0  0
    4.0808   -4.5926    3.4008 C   0  0  0  0  0  0  0  0  0  0  0  0
    4.5813   -3.1455    3.5985 C   0  0  0  0  0  0  0  0  0  0  0  0
    4.5469   -2.4460    2.2331 C   0  0  1  0  0  0  0  0  0  0  0  0
    5.0482   -1.0163    2.1288 C   0  0  0  0  0  0  0  0  0  0  0  0
    5.0068   -0.1808    3.0266 O   0  0  0  0  0  0  0  0  0  0  0  0
    5.6344   -0.7871    0.7335 C   0  0  0  0  0  0  0  0  0  0  0  0
    5.5849   -2.1764    0.0651 C   0  0  0  0  0  0  0  0  0  0  0  0
    5.4543   -3.1635    1.2335 C   0  0  2  0  0  0  0  0  0  0  0  0
    4.9429   -4.6003    0.9731 C   0  0  2  0  0  0  0  0  0  0  0  0
    3.5929   -4.6489    0.2039 C   0  0  0  0  0  0  0  0  0  0  0  0
    2.6931   -5.8555    0.5108 C   0  0  0  0  0  0  0  0  0  0  0  0
    1.4903   -5.8069    0.2473 O   0  0  0  0  0  0  0  0  0  0  0  0
    3.3726   -7.1189    1.0799 C   0  0  2  0  0  0  0  0  0  0  0  0
    1.4513   -7.3106    4.2038 H   0  0  0  0  0  0  0  0  0  0  0  0
   -0.0845   -6.7821    3.5495 H   0  0  0  0  0  0  0  0  0  0  0  0
    1.3853   -6.0218    3.0009 H   0  0  0  0  0  0  0  0  0  0  0  0
    0.4903   -7.6961    1.3295 H   0  0  0  0  0  0  0  0  0  0  0  0
    0.7409  -10.2197    2.0600 H   0  0  0  0  0  0  0  0  0  0  0  0
   -1.6444   -8.4003    2.7488 H   0  0  0  0  0  0  0  0  0  0  0  0
   -1.6970  -10.2090    2.4635 H   0  0  0  0  0  0  0  0  0  0  0  0
   -0.1137  -10.6068    4.3507 H   0  0  0  0  0  0  0  0  0  0  0  0
   -0.1386   -8.7975    4.7198 H   0  0  0  0  0  0  0  0  0  0  0  0
    2.4326   -9.0399    0.8882 H   0  0  0  0  0  0  0  0  0  0  0  0
    2.9054   -9.4111    3.5510 H   0  0  0  0  0  0  0  0  0  0  0  0
    4.1028   -9.6346    2.2908 H   0  0  0  0  0  0  0  0  0  0  0  0
    3.7220   -7.2172    4.0611 H   0  0  0  0  0  0  0  0  0  0  0  0
    5.2168   -8.0783    3.7415 H   0  0  0  0  0  0  0  0  0  0  0  0
    5.4107   -7.2750    1.5717 H   0  0  0  0  0  0  0  0  0  0  0  0
    5.9328   -5.3816    2.7188 H   0  0  0  0  0  0  0  0  0  0  0  0
    3.0337   -4.5594    3.1104 H   0  0  0  0  0  0  0  0  0  0  0  0
    4.1162   -5.1030    4.3626 H   0  0  0  0  0  0  0  0  0  0  0  0
    3.9443   -2.6201    4.3114 H   0  0  0  0  0  0  0  0  0  0  0  0
    5.5874   -3.1484    4.0170 H   0  0  0  0  0  0  0  0  0  0  0  0
    3.5184   -2.4236    1.8793 H   0  0  0  0  0  0  0  0  0  0  0  0
    5.0519   -0.0423    0.1865 H   0  0  0  0  0  0  0  0  0  0  0  0
    6.6559   -0.4153    0.8321 H   0  0  0  0  0  0  0  0  0  0  0  0
    4.7225   -2.2298   -0.5994 H   0  0  0  0  0  0  0  0  0  0  0  0
    6.4782   -2.3717   -0.5307 H   0  0  0  0  0  0  0  0  0  0  0  0
    6.4464   -3.2599    1.6802 H   0  0  0  0  0  0  0  0  0  0  0  0
    5.6853   -5.0933    0.3391 H   0  0  0  0  0  0  0  0  0  0  0  0
    3.0075   -3.7541    0.4048 H   0  0  0  0  0  0  0  0  0  0  0  0
    3.7905   -4.6380   -0.8672 H   0  0  0  0  0  0  0  0  0  0  0  0
    3.8541   -7.5316    0.1940 H   0  0  0  0  0  0  0  0  0  0  0  0
  1  2  1  0
  1 24  1  0
  1 25  1  0
  1 26  1  0
  2  3  1  0
  2  6  1  0
  2 27  1  6
  3  5  1  0
  3  4  1  0
  3 28  1  0
  4  5  1  0
  4 29  1  0
  4 30  1  0
  5 31  1  0
  5 32  1  0
  6 23  1  0
  6  7  1  0
  6 33  1  6
  7  8  1  0
  7 34  1  0
  7 35  1  0
  8  9  1  0
  8 36  1  0
  8 37  1  0
  9 23  1  0
  9 10  1  0
  9 38  1  6
 10 19  1  0
 10 11  1  0
 10 39  1  1
 11 12  1  0
 11 40  1  0
 11 41  1  0
 12 13  1  0
 12 42  1  0
 12 43  1  0
 13 18  1  0
 13 14  1  0
 13 44  1  6
 14 15  2  0
 14 16  1  0
 16 17  1  0
 16 45  1  0
 16 46  1  0
 17 18  1  0
 17 47  1  0
 17 48  1  0
 18 19  1  0
 18 49  1  1
 19 20  1  0
 19 50  1  6
 20 21  1  0
 20 51  1  0
 20 52  1  0
 21 22  2  0
 21 23  1  0
 23 53  1  6
M  END
>  <i_m_ct_stereo_status>  (314) 
1

>  <s_m_source_file>  (314) 
/var/tmp/pbs.5076255.sched01/tmp4tnmxshi/11480k6dy83.sdf

>  <i_m_source_file_index>  (314) 
28

>  <i_lp_mmshare_version>  (314) 
48012

>  <i_f3d_flags>  (314) 
0

>  <s_epik_input>  (314) 
W0NIMl0xW0NIMl1bQ0hdMVtDQEBIXShbQ0gzXSlbQ0BIXShbQ0gyXVtDSDJdMilbQ0BIXTNDKD1PKVtDSDJdW0NASF0oW0NAQEhdNFtDQEBIXTIzKVtDQEBIXTVbQ0BASF0oW0NIMl1bQ0gyXTQpQyg9TylbQ0gyXVtDSDJdNQ==

>  <s_epik_cmdline>  (314) 
J2VwaWtfcHl0aG9uJywgJy1waHQnLCAnMi4wJywgJy1waCcsICc3LjAnLCAnLXRuJywgJzgnLCAnLW1hJywgJzIwMCcsICctaW1hZScsICc8aW5maWxlLm1hZT4nLCAnLW9tYWUnLCAnPG91dGZpbGUubWFlPic=

>  <r_lp_tautomer_probability>  (314) 
1

>  <r_epik_Ionization_Penalty>  (314) 
1.03405e-13

>  <r_epik_Ionization_Penalty_Charging>  (314) 
0

>  <r_epik_Ionization_Penalty_Neutral>  (314) 
1.03405e-13

>  <r_epik_State_Penalty>  (314) 
-0

>  <r_epik_Charging_Adjusted_Penalty>  (314) 
0

>  <i_epik_Tot_Q>  (314) 
0

>  <i_epik_Tot_abs_Q>  (314) 
0

>  <s_lp_Force_Field>  (314) 
OPLS3e

>  <r_lp_Energy>  (314) 
24.4117

>  <b_lp_Chiralities_Consistent>  (314) 
1

>  <s_lp_Variant>  (314) 
100:0-1

>  <s_i_glide_gridfile>  (314) 
pfpi4k_grid

>  <i_i_glide_lignum>  (314) 
28

>  <i_i_glide_rotatable_bonds>  (314) 
2

>  <r_i_docking_score>  (314) 
-3.08719

>  <r_i_glide_ligand_efficiency>  (314) 
-0.134226

>  <r_i_glide_ligand_efficiency_sa>  (314) 
-0.38172

>  <r_i_glide_ligand_efficiency_ln>  (314) 
-0.746511

>  <r_i_glide_gscore>  (314) 
-3.08719

>  <r_i_glide_lipo>  (314) 
-0.389143

>  <r_i_glide_hbond>  (314) 
-0.145107

>  <r_i_glide_metal>  (314) 
-0

>  <r_i_glide_rewards>  (314) 
-1.41752

>  <r_i_glide_evdw>  (314) 
-19.3201

>  <r_i_glide_ecoul>  (314) 
-3.43139

>  <r_i_glide_erotb>  (314) 
0.375962

>  <r_i_glide_esite>  (314) 
-0.0306678

>  <r_i_glide_emodel>  (314) 
-24.3043

>  <r_i_glide_energy>  (314) 
-22.7515

>  <r_i_glide_einternal>  (314) 
6.33524

>  <r_i_glide_intrahb_reward>  (314) 
-0

>  <i_i_glide_confnum>  (314) 
2

>  <i_i_glide_posenum>  (314) 
27

>  <r_i_glide_eff_state_penalty>  (314) 
0

>  <ligand_id>  (314) 
100

>  <original_smiles>  (314) 
CC(C1CC1)C1CCC2C3CCC4C(=O)CCC4C3CC(=O)C12

>  <smiles>  (314) 
[H]C([H])([H])C([H])(C1([H])C([H])([H])C1([H])[H])C1([H])C([H])([H])C([H])([H])C2([H])C1([H])C(=O)C([H])([H])C1([H])C3([H])C([H])([H])C([H])([H])C(=O)C3([H])C([H])([H])C([H])([H])C21[H]

$$$$
100:0:2
     RDKit          3D

 53 57  0  0  1  0  0  0  0  0999 V2000
    1.9840   -7.4537    4.3747 C   0  0  0  0  0  0  0  0  0  0  0  0
    1.9052   -8.4500    3.2077 C   0  0  2  0  0  0  0  0  0  0  0  0
    1.6684   -9.8647    3.7341 C   0  0  0  0  0  0  0  0  0  0  0  0
    0.8273  -10.8540    2.9650 C   0  0  0  0  0  0  0  0  0  0  0  0
    0.3182  -10.2730    4.2632 C   0  0  0  0  0  0  0  0  0  0  0  0
    3.0961   -8.3897    2.2009 C   0  0  2  0  0  0  0  0  0  0  0  0
    4.4568   -8.7739    2.8211 C   0  0  0  0  0  0  0  0  0  0  0  0
    5.1818   -7.4588    3.1000 C   0  0  0  0  0  0  0  0  0  0  0  0
    4.7734   -6.5475    1.9404 C   0  0  2  0  0  0  0  0  0  0  0  0
    4.9239   -5.0190    2.1531 C   0  0  2  0  0  0  0  0  0  0  0  0
    4.4148   -4.4367    3.5059 C   0  0  0  0  0  0  0  0  0  0  0  0
    4.6516   -2.9136    3.6146 C   0  0  0  0  0  0  0  0  0  0  0  0
    3.9800   -2.2461    2.4116 C   0  0  1  0  0  0  0  0  0  0  0  0
    4.1178   -0.7476    2.2272 C   0  0  0  0  0  0  0  0  0  0  0  0
    4.2311    0.0672    3.1383 O   0  0  0  0  0  0  0  0  0  0  0  0
    4.0954   -0.4006    0.7400 C   0  0  0  0  0  0  0  0  0  0  0  0
    4.0735   -1.7748    0.0339 C   0  0  0  0  0  0  0  0  0  0  0  0
    4.5713   -2.7659    1.1023 C   0  0  2  0  0  0  0  0  0  0  0  0
    4.3060   -4.2779    0.9327 C   0  0  2  0  0  0  0  0  0  0  0  0
    2.8079   -4.6096    0.6986 C   0  0  0  0  0  0  0  0  0  0  0  0
    2.3408   -5.9753    1.2180 C   0  0  0  0  0  0  0  0  0  0  0  0
    1.1325   -6.1730    1.3634 O   0  0  0  0  0  0  0  0  0  0  0  0
    3.4109   -7.0666    1.4257 C   0  0  2  0  0  0  0  0  0  0  0  0
    2.8265   -7.6532    5.0330 H   0  0  0  0  0  0  0  0  0  0  0  0
    1.0784   -7.5134    4.9788 H   0  0  0  0  0  0  0  0  0  0  0  0
    2.0563   -6.4272    4.0253 H   0  0  0  0  0  0  0  0  0  0  0  0
    1.0037   -8.2080    2.6479 H   0  0  0  0  0  0  0  0  0  0  0  0
    2.5040  -10.2885    4.2915 H   0  0  0  0  0  0  0  0  0  0  0  0
    0.3606  -10.5143    2.0438 H   0  0  0  0  0  0  0  0  0  0  0  0
    1.1427  -11.8964    2.9717 H   0  0  0  0  0  0  0  0  0  0  0  0
    0.2993  -10.9309    5.1323 H   0  0  0  0  0  0  0  0  0  0  0  0
   -0.4808   -9.5338    4.2217 H   0  0  0  0  0  0  0  0  0  0  0  0
    2.8675   -9.1475    1.4481 H   0  0  0  0  0  0  0  0  0  0  0  0
    4.3898   -9.3835    3.7214 H   0  0  0  0  0  0  0  0  0  0  0  0
    5.0272   -9.3528    2.0904 H   0  0  0  0  0  0  0  0  0  0  0  0
    4.8440   -7.0735    4.0588 H   0  0  0  0  0  0  0  0  0  0  0  0
    6.2641   -7.5903    3.1590 H   0  0  0  0  0  0  0  0  0  0  0  0
    5.4674   -6.7882    1.1332 H   0  0  0  0  0  0  0  0  0  0  0  0
    5.9993   -4.8269    2.1465 H   0  0  0  0  0  0  0  0  0  0  0  0
    3.3492   -4.6281    3.6180 H   0  0  0  0  0  0  0  0  0  0  0  0
    4.9081   -4.9194    4.3485 H   0  0  0  0  0  0  0  0  0  0  0  0
    4.2374   -2.5285    4.5465 H   0  0  0  0  0  0  0  0  0  0  0  0
    5.7202   -2.6991    3.6372 H   0  0  0  0  0  0  0  0  0  0  0  0
    2.9101   -2.4402    2.4548 H   0  0  0  0  0  0  0  0  0  0  0  0
    3.2104    0.1886    0.4991 H   0  0  0  0  0  0  0  0  0  0  0  0
    4.9833    0.1803    0.4840 H   0  0  0  0  0  0  0  0  0  0  0  0
    3.0509   -2.0024   -0.2718 H   0  0  0  0  0  0  0  0  0  0  0  0
    4.7000   -1.7844   -0.8590 H   0  0  0  0  0  0  0  0  0  0  0  0
    5.6572   -2.6459    1.1542 H   0  0  0  0  0  0  0  0  0  0  0  0
    4.8442   -4.6053    0.0390 H   0  0  0  0  0  0  0  0  0  0  0  0
    2.1836   -3.8566    1.1733 H   0  0  0  0  0  0  0  0  0  0  0  0
    2.5902   -4.5545   -0.3667 H   0  0  0  0  0  0  0  0  0  0  0  0
    3.6218   -7.3817    0.4084 H   0  0  0  0  0  0  0  0  0  0  0  0
  1  2  1  0
  1 24  1  0
  1 25  1  0
  1 26  1  0
  2  3  1  0
  2  6  1  0
  2 27  1  6
  3  5  1  0
  3  4  1  0
  3 28  1  0
  4  5  1  0
  4 29  1  0
  4 30  1  0
  5 31  1  0
  5 32  1  0
  6 23  1  0
  6  7  1  0
  6 33  1  6
  7  8  1  0
  7 34  1  0
  7 35  1  0
  8  9  1  0
  8 36  1  0
  8 37  1  0
  9 23  1  0
  9 10  1  0
  9 38  1  6
 10 19  1  0
 10 11  1  0
 10 39  1  1
 11 12  1  0
 11 40  1  0
 11 41  1  0
 12 13  1  0
 12 42  1  0
 12 43  1  0
 13 18  1  0
 13 14  1  0
 13 44  1  6
 14 15  2  0
 14 16  1  0
 16 17  1  0
 16 45  1  0
 16 46  1  0
 17 18  1  0
 17 47  1  0
 17 48  1  0
 18 19  1  0
 18 49  1  1
 19 20  1  0
 19 50  1  6
 20 21  1  0
 20 51  1  0
 20 52  1  0
 21 22  2  0
 21 23  1  0
 23 53  1  6
M  END
>  <i_m_ct_stereo_status>  (315) 
1

>  <s_m_source_file>  (315) 
/var/tmp/pbs.5076255.sched01/tmp4tnmxshi/11480k6dy83.sdf

>  <i_m_source_file_index>  (315) 
28

>  <i_lp_mmshare_version>  (315) 
48012

>  <i_f3d_flags>  (315) 
0

>  <s_epik_input>  (315) 
W0NIMl0xW0NIMl1bQ0hdMVtDQEBIXShbQ0gzXSlbQ0BIXShbQ0gyXVtDSDJdMilbQ0BIXTNDKD1PKVtDSDJdW0NASF0oW0NAQEhdNFtDQEBIXTIzKVtDQEBIXTVbQ0BASF0oW0NIMl1bQ0gyXTQpQyg9TylbQ0gyXVtDSDJdNQ==

>  <s_epik_cmdline>  (315) 
J2VwaWtfcHl0aG9uJywgJy1waHQnLCAnMi4wJywgJy1waCcsICc3LjAnLCAnLXRuJywgJzgnLCAnLW1hJywgJzIwMCcsICctaW1hZScsICc8aW5maWxlLm1hZT4nLCAnLW9tYWUnLCAnPG91dGZpbGUubWFlPic=

>  <r_lp_tautomer_probability>  (315) 
1

>  <r_epik_Ionization_Penalty>  (315) 
1.03405e-13

>  <r_epik_Ionization_Penalty_Charging>  (315) 
0

>  <r_epik_Ionization_Penalty_Neutral>  (315) 
1.03405e-13

>  <r_epik_State_Penalty>  (315) 
-0

>  <r_epik_Charging_Adjusted_Penalty>  (315) 
0

>  <i_epik_Tot_Q>  (315) 
0

>  <i_epik_Tot_abs_Q>  (315) 
0

>  <s_lp_Force_Field>  (315) 
OPLS3e

>  <r_lp_Energy>  (315) 
24.4117

>  <b_lp_Chiralities_Consistent>  (315) 
1

>  <s_lp_Variant>  (315) 
100:0-1

>  <s_i_glide_gridfile>  (315) 
pfpi4k_grid

>  <i_i_glide_lignum>  (315) 
28

>  <i_i_glide_rotatable_bonds>  (315) 
2

>  <r_i_docking_score>  (315) 
-2.91297

>  <r_i_glide_ligand_efficiency>  (315) 
-0.126651

>  <r_i_glide_ligand_efficiency_sa>  (315) 
-0.360178

>  <r_i_glide_ligand_efficiency_ln>  (315) 
-0.704382

>  <r_i_glide_gscore>  (315) 
-2.91297

>  <r_i_glide_lipo>  (315) 
-0.42792

>  <r_i_glide_hbond>  (315) 
-0.154594

>  <r_i_glide_metal>  (315) 
-0

>  <r_i_glide_rewards>  (315) 
-1.32032

>  <r_i_glide_evdw>  (315) 
-18.0337

>  <r_i_glide_ecoul>  (315) 
-3.06554

>  <r_i_glide_erotb>  (315) 
0.375962

>  <r_i_glide_esite>  (315) 
-0.0245791

>  <r_i_glide_emodel>  (315) 
-25.5467

>  <r_i_glide_energy>  (315) 
-21.0993

>  <r_i_glide_einternal>  (315) 
0.154383

>  <r_i_glide_intrahb_reward>  (315) 
-0

>  <i_i_glide_confnum>  (315) 
2

>  <i_i_glide_posenum>  (315) 
38

>  <r_i_glide_eff_state_penalty>  (315) 
0

>  <ligand_id>  (315) 
100

>  <original_smiles>  (315) 
CC(C1CC1)C1CCC2C3CCC4C(=O)CCC4C3CC(=O)C12

>  <smiles>  (315) 
[H]C([H])([H])C([H])(C1([H])C([H])([H])C1([H])[H])C1([H])C([H])([H])C([H])([H])C2([H])C1([H])C(=O)C([H])([H])C1([H])C3([H])C([H])([H])C([H])([H])C(=O)C3([H])C([H])([H])C([H])([H])C21[H]

$$$$
101:0:0
     RDKit          3D

 14 15  0  0  1  0  0  0  0  0999 V2000
   -7.2530   -4.6460   -4.5946 C   0  0  0  0  0  0  0  0  0  0  0  0
   -6.5847   -5.8780   -4.8047 C   0  0  0  0  0  0  0  0  0  0  0  0
   -6.8650   -6.6377   -5.9187 C   0  0  0  0  0  0  0  0  0  0  0  0
   -7.7869   -6.1756   -6.8097 N   0  0  0  0  0  0  0  0  0  0  0  0
   -8.1832   -6.7834   -7.9574 N   0  0  0  0  0  0  0  0  0  0  0  0
   -9.0797   -5.9268   -8.4325 C   0  0  0  0  0  0  0  0  0  0  0  0
   -9.2893   -4.7972   -7.6974 N   0  0  0  0  0  0  0  0  0  0  0  0
   -8.4783   -4.9608   -6.6557 C   0  0  0  0  0  0  0  0  0  0  0  0
   -8.1880   -4.1926   -5.5001 C   0  0  0  0  0  0  0  0  0  0  0  0
   -7.0297   -4.0503   -3.7125 H   0  0  0  0  0  0  0  0  0  0  0  0
   -5.8560   -6.2288   -4.0807 H   0  0  0  0  0  0  0  0  0  0  0  0
   -6.3930   -7.5900   -6.1380 H   0  0  0  0  0  0  0  0  0  0  0  0
   -9.5996   -6.1174   -9.3609 H   0  0  0  0  0  0  0  0  0  0  0  0
   -8.7030   -3.2493   -5.3504 H   0  0  0  0  0  0  0  0  0  0  0  0
  1  9  2  0
  1  2  1  0
  1 10  1  0
  2  3  2  0
  2 11  1  0
  3  4  1  0
  3 12  1  0
  4  8  1  0
  4  5  1  0
  5  6  2  0
  6  7  1  0
  6 13  1  0
  7  8  2  0
  8  9  1  0
  9 14  1  0
M  END
>  <i_m_ct_stereo_status>  (316) 
1

>  <s_m_source_file>  (316) 
/var/tmp/pbs.5076255.sched01/tmp4tnmxshi/11480k6dy83.sdf

>  <i_m_source_file_index>  (316) 
29

>  <i_lp_mmshare_version>  (316) 
48012

>  <i_f3d_flags>  (316) 
0

>  <s_epik_input>  (316) 
W2NIXTFbY0hdW2NIXVtjSF1jKG4xMiluW2NIXW4y

>  <s_epik_cmdline>  (316) 
J2VwaWtfcHl0aG9uJywgJy1waHQnLCAnMi4wJywgJy1waCcsICc3LjAnLCAnLXRuJywgJzgnLCAnLW1hJywgJzIwMCcsICctaW1hZScsICc8aW5maWxlLm1hZT4nLCAnLW9tYWUnLCAnPG91dGZpbGUubWFlPic=

>  <r_epik_Ionization_Penalty>  (316) 
0.00240877

>  <r_epik_Ionization_Penalty_Charging>  (316) 
0

>  <r_epik_Ionization_Penalty_Neutral>  (316) 
0.00240877

>  <r_epik_State_Penalty>  (316) 
0.00166627

>  <r_epik_Charging_Adjusted_Penalty>  (316) 
0.00166627

>  <i_epik_Tot_Q>  (316) 
0

>  <i_epik_Tot_abs_Q>  (316) 
0

>  <s_lp_Force_Field>  (316) 
OPLS3e

>  <r_lp_Energy>  (316) 
12.9833

>  <b_lp_Chiralities_Consistent>  (316) 
1

>  <s_lp_Variant>  (316) 
101:0-1

>  <s_i_glide_gridfile>  (316) 
pfpi4k_grid

>  <i_i_glide_lignum>  (316) 
29

>  <i_i_glide_rotatable_bonds>  (316) 
0

>  <r_i_docking_score>  (316) 
-5.6352

>  <r_i_glide_ligand_efficiency>  (316) 
-0.626133

>  <r_i_glide_ligand_efficiency_sa>  (316) 
-1.30241

>  <r_i_glide_ligand_efficiency_ln>  (316) 
-1.76253

>  <r_i_glide_gscore>  (316) 
-5.6352

>  <r_i_glide_lipo>  (316) 
-1.26606

>  <r_i_glide_hbond>  (316) 
0

>  <r_i_glide_metal>  (316) 
-0

>  <r_i_glide_rewards>  (316) 
-3.35495

>  <r_i_glide_evdw>  (316) 
-17.7162

>  <r_i_glide_ecoul>  (316) 
-0.85591

>  <r_i_glide_erotb>  (316) 
0

>  <r_i_glide_esite>  (316) 
0

>  <r_i_glide_emodel>  (316) 
-26.2043

>  <r_i_glide_energy>  (316) 
-18.5721

>  <r_i_glide_einternal>  (316) 
0

>  <r_i_glide_intrahb_reward>  (316) 
-0

>  <i_i_glide_confnum>  (316) 
1

>  <i_i_glide_posenum>  (316) 
3

>  <r_i_glide_eff_state_penalty>  (316) 
0

>  <ligand_id>  (316) 
101

>  <original_smiles>  (316) 
c1ccn2ncnc2c1

>  <smiles>  (316) 
[H]c1nc2c([H])c([H])c([H])c([H])n2n1

$$$$
101:0:1
     RDKit          3D

 14 15  0  0  1  0  0  0  0  0999 V2000
    2.7175   -2.1305   -3.7640 C   0  0  0  0  0  0  0  0  0  0  0  0
    3.1524   -0.8201   -3.4536 C   0  0  0  0  0  0  0  0  0  0  0  0
    4.2482   -0.6326   -2.6458 C   0  0  0  0  0  0  0  0  0  0  0  0
    4.9121   -1.7185   -2.1708 N   0  0  0  0  0  0  0  0  0  0  0  0
    6.0131   -1.7125   -1.3729 N   0  0  0  0  0  0  0  0  0  0  0  0
    6.2512   -3.0096   -1.2206 C   0  0  0  0  0  0  0  0  0  0  0  0
    5.3950   -3.8579   -1.8538 N   0  0  0  0  0  0  0  0  0  0  0  0
    4.5442   -3.0400   -2.4639 C   0  0  0  0  0  0  0  0  0  0  0  0
    3.4116   -3.2212   -3.3011 C   0  0  0  0  0  0  0  0  0  0  0  0
    1.8144   -2.2845   -4.3416 H   0  0  0  0  0  0  0  0  0  0  0  0
    2.6029    0.0491   -3.8092 H   0  0  0  0  0  0  0  0  0  0  0  0
    4.6094    0.3468   -2.3499 H   0  0  0  0  0  0  0  0  0  0  0  0
    7.0846   -3.3616   -0.6313 H   0  0  0  0  0  0  0  0  0  0  0  0
    3.0842   -4.2290   -3.5300 H   0  0  0  0  0  0  0  0  0  0  0  0
  1  9  2  0
  1  2  1  0
  1 10  1  0
  2  3  2  0
  2 11  1  0
  3  4  1  0
  3 12  1  0
  4  8  1  0
  4  5  1  0
  5  6  2  0
  6  7  1  0
  6 13  1  0
  7  8  2  0
  8  9  1  0
  9 14  1  0
M  END
>  <i_m_ct_stereo_status>  (317) 
1

>  <s_m_source_file>  (317) 
/var/tmp/pbs.5076255.sched01/tmp4tnmxshi/11480k6dy83.sdf

>  <i_m_source_file_index>  (317) 
29

>  <i_lp_mmshare_version>  (317) 
48012

>  <i_f3d_flags>  (317) 
0

>  <s_epik_input>  (317) 
W2NIXTFbY0hdW2NIXVtjSF1jKG4xMiluW2NIXW4y

>  <s_epik_cmdline>  (317) 
J2VwaWtfcHl0aG9uJywgJy1waHQnLCAnMi4wJywgJy1waCcsICc3LjAnLCAnLXRuJywgJzgnLCAnLW1hJywgJzIwMCcsICctaW1hZScsICc8aW5maWxlLm1hZT4nLCAnLW9tYWUnLCAnPG91dGZpbGUubWFlPic=

>  <r_epik_Ionization_Penalty>  (317) 
0.00240877

>  <r_epik_Ionization_Penalty_Charging>  (317) 
0

>  <r_epik_Ionization_Penalty_Neutral>  (317) 
0.00240877

>  <r_epik_State_Penalty>  (317) 
0.00166627

>  <r_epik_Charging_Adjusted_Penalty>  (317) 
0.00166627

>  <i_epik_Tot_Q>  (317) 
0

>  <i_epik_Tot_abs_Q>  (317) 
0

>  <s_lp_Force_Field>  (317) 
OPLS3e

>  <r_lp_Energy>  (317) 
12.9833

>  <b_lp_Chiralities_Consistent>  (317) 
1

>  <s_lp_Variant>  (317) 
101:0-1

>  <s_i_glide_gridfile>  (317) 
pfpi4k_grid

>  <i_i_glide_lignum>  (317) 
29

>  <i_i_glide_rotatable_bonds>  (317) 
0

>  <r_i_docking_score>  (317) 
-4.37898

>  <r_i_glide_ligand_efficiency>  (317) 
-0.486553

>  <r_i_glide_ligand_efficiency_sa>  (317) 
-1.01207

>  <r_i_glide_ligand_efficiency_ln>  (317) 
-1.36962

>  <r_i_glide_gscore>  (317) 
-4.37898

>  <r_i_glide_lipo>  (317) 
-0.57165

>  <r_i_glide_hbond>  (317) 
-0.110266

>  <r_i_glide_metal>  (317) 
-0

>  <r_i_glide_rewards>  (317) 
-2.36941

>  <r_i_glide_evdw>  (317) 
-14.2642

>  <r_i_glide_ecoul>  (317) 
-3.9509

>  <r_i_glide_erotb>  (317) 
0

>  <r_i_glide_esite>  (317) 
-0.0218086

>  <r_i_glide_emodel>  (317) 
-24.1393

>  <r_i_glide_energy>  (317) 
-18.2151

>  <r_i_glide_einternal>  (317) 
0

>  <r_i_glide_intrahb_reward>  (317) 
-0

>  <i_i_glide_confnum>  (317) 
1

>  <i_i_glide_posenum>  (317) 
37

>  <r_i_glide_eff_state_penalty>  (317) 
0

>  <ligand_id>  (317) 
101

>  <original_smiles>  (317) 
c1ccn2ncnc2c1

>  <smiles>  (317) 
[H]c1nc2c([H])c([H])c([H])c([H])n2n1

$$$$
101:0:2
     RDKit          3D

 14 15  0  0  1  0  0  0  0  0999 V2000
   -0.9797   -9.0530    3.1993 C   0  0  0  0  0  0  0  0  0  0  0  0
    0.2294   -9.7572    3.4136 C   0  0  0  0  0  0  0  0  0  0  0  0
    1.4193   -9.2735    2.9156 C   0  0  0  0  0  0  0  0  0  0  0  0
    1.4049   -8.1021    2.2211 N   0  0  0  0  0  0  0  0  0  0  0  0
    2.4771   -7.4642    1.6831 N   0  0  0  0  0  0  0  0  0  0  0  0
    1.9208   -6.3899    1.1381 C   0  0  0  0  0  0  0  0  0  0  0  0
    0.5669   -6.2672    1.2793 N   0  0  0  0  0  0  0  0  0  0  0  0
    0.2385   -7.3585    1.9729 C   0  0  0  0  0  0  0  0  0  0  0  0
   -0.9843   -7.8708    2.4914 C   0  0  0  0  0  0  0  0  0  0  0  0
   -1.9095   -9.4511    3.6001 H   0  0  0  0  0  0  0  0  0  0  0  0
    0.2185  -10.6846    3.9796 H   0  0  0  0  0  0  0  0  0  0  0  0
    2.3762   -9.7685    3.0530 H   0  0  0  0  0  0  0  0  0  0  0  0
    2.5177   -5.6677    0.6003 H   0  0  0  0  0  0  0  0  0  0  0  0
   -1.9112   -7.3386    2.3281 H   0  0  0  0  0  0  0  0  0  0  0  0
  1  9  2  0
  1  2  1  0
  1 10  1  0
  2  3  2  0
  2 11  1  0
  3  4  1  0
  3 12  1  0
  4  8  1  0
  4  5  1  0
  5  6  2  0
  6  7  1  0
  6 13  1  0
  7  8  2  0
  8  9  1  0
  9 14  1  0
M  END
>  <i_m_ct_stereo_status>  (318) 
1

>  <s_m_source_file>  (318) 
/var/tmp/pbs.5076255.sched01/tmp4tnmxshi/11480k6dy83.sdf

>  <i_m_source_file_index>  (318) 
29

>  <i_lp_mmshare_version>  (318) 
48012

>  <i_f3d_flags>  (318) 
0

>  <s_epik_input>  (318) 
W2NIXTFbY0hdW2NIXVtjSF1jKG4xMiluW2NIXW4y

>  <s_epik_cmdline>  (318) 
J2VwaWtfcHl0aG9uJywgJy1waHQnLCAnMi4wJywgJy1waCcsICc3LjAnLCAnLXRuJywgJzgnLCAnLW1hJywgJzIwMCcsICctaW1hZScsICc8aW5maWxlLm1hZT4nLCAnLW9tYWUnLCAnPG91dGZpbGUubWFlPic=

>  <r_epik_Ionization_Penalty>  (318) 
0.00240877

>  <r_epik_Ionization_Penalty_Charging>  (318) 
0

>  <r_epik_Ionization_Penalty_Neutral>  (318) 
0.00240877

>  <r_epik_State_Penalty>  (318) 
0.00166627

>  <r_epik_Charging_Adjusted_Penalty>  (318) 
0.00166627

>  <i_epik_Tot_Q>  (318) 
0

>  <i_epik_Tot_abs_Q>  (318) 
0

>  <s_lp_Force_Field>  (318) 
OPLS3e

>  <r_lp_Energy>  (318) 
12.9833

>  <b_lp_Chiralities_Consistent>  (318) 
1

>  <s_lp_Variant>  (318) 
101:0-1

>  <s_i_glide_gridfile>  (318) 
pfpi4k_grid

>  <i_i_glide_lignum>  (318) 
29

>  <i_i_glide_rotatable_bonds>  (318) 
0

>  <r_i_docking_score>  (318) 
-3.99653

>  <r_i_glide_ligand_efficiency>  (318) 
-0.444059

>  <r_i_glide_ligand_efficiency_sa>  (318) 
-0.923679

>  <r_i_glide_ligand_efficiency_ln>  (318) 
-1.25

>  <r_i_glide_gscore>  (318) 
-3.99653

>  <r_i_glide_lipo>  (318) 
-0.0108562

>  <r_i_glide_hbond>  (318) 
-0.16

>  <r_i_glide_metal>  (318) 
-0

>  <r_i_glide_rewards>  (318) 
-2.25

>  <r_i_glide_evdw>  (318) 
-13.2795

>  <r_i_glide_ecoul>  (318) 
-5.18672

>  <r_i_glide_erotb>  (318) 
0

>  <r_i_glide_esite>  (318) 
-0.13369

>  <r_i_glide_emodel>  (318) 
-23.8774

>  <r_i_glide_energy>  (318) 
-18.4662

>  <r_i_glide_einternal>  (318) 
0

>  <r_i_glide_intrahb_reward>  (318) 
-0

>  <i_i_glide_confnum>  (318) 
2

>  <i_i_glide_posenum>  (318) 
16

>  <r_i_glide_eff_state_penalty>  (318) 
0

>  <ligand_id>  (318) 
101

>  <original_smiles>  (318) 
c1ccn2ncnc2c1

>  <smiles>  (318) 
[H]c1nc2c([H])c([H])c([H])c([H])n2n1

$$$$
102:0:0
     RDKit          3D

 69 74  0  0  1  0  0  0  0  0999 V2000
    7.7901   -4.6620    1.2295 C   0  0  0  0  0  0  0  0  0  0  0  0
    6.3970   -4.9055    0.6675 C   0  0  2  0  0  0  0  0  0  0  0  0
    6.0008   -4.1504   -0.6012 C   0  0  0  0  0  0  0  0  0  0  0  0
    5.1807   -3.1918    0.2672 C   0  0  1  0  0  0  0  0  0  0  0  0
    3.7625   -2.8133   -0.0976 C   0  0  0  0  0  0  0  0  0  0  0  0
    3.2846   -1.6373    0.7769 C   0  0  0  0  0  0  0  0  0  0  0  0
    3.6291   -2.4194   -1.5817 C   0  0  0  0  0  0  0  0  0  0  0  0
    2.9768   -4.0940    0.2628 C   0  0  0  0  0  0  0  0  0  0  0  0
    3.8489   -4.9697    1.1705 C   0  0  0  0  0  0  0  0  0  0  0  0
    3.5129   -6.1987    1.6779 C   0  0  0  0  0  0  0  0  0  0  0  0
    4.4813   -7.0392    2.5063 C   0  0  0  0  0  0  0  0  0  0  0  0
    3.7797   -7.8384    3.6275 C   0  0  1  0  0  0  0  0  0  0  0  0
    4.7365   -8.1319    4.6179 O   0  0  0  0  0  0  0  0  0  0  0  0
    2.5150   -7.0921    4.1382 C   0  0  1  0  0  0  0  0  0  0  0  0
    1.4587   -7.0198    2.9691 C   0  0  1  0  0  0  0  0  0  0  0  0
    2.1581   -6.9177    1.5663 C   0  0  1  0  0  0  0  0  0  0  0  0
    1.3071   -6.3153    0.6149 O   0  0  0  0  0  0  0  0  0  0  0  0
    0.2969   -8.0845    3.1085 C   0  0  1  0  0  0  0  0  0  0  0  0
   -0.9483   -7.6670    2.2883 C   0  0  0  0  0  0  0  0  0  0  0  0
    0.7837   -9.4586    2.6965 C   0  0  0  0  0  0  0  0  0  0  0  0
    1.0477  -10.2459    3.7281 C   0  0  0  0  0  0  0  0  0  0  0  0
    0.7872   -9.5709    5.0364 C   0  0  1  0  0  0  0  0  0  0  0  0
    1.9878   -9.0085    5.5795 O   0  0  0  0  0  0  0  0  0  0  0  0
    1.9353   -7.5834    5.5138 C   0  0  1  0  0  0  0  0  0  0  0  0
    2.6742   -7.0198    6.7437 C   0  0  0  0  0  0  0  0  0  0  0  0
    0.4304   -7.3198    5.6305 C   0  0  1  0  0  0  0  0  0  0  0  0
    0.0457   -5.9829    5.3541 O   0  0  0  0  0  0  0  0  0  0  0  0
   -0.0595   -8.3422    4.6249 C   0  0  1  0  0  0  0  0  0  0  0  0
   -1.4240   -8.6383    4.8445 O   0  0  0  0  0  0  0  0  0  0  0  0
    5.1919   -4.2472    1.3755 C   0  0  1  0  0  0  0  0  0  0  0  0
    5.3431   -3.7116    2.8000 C   0  0  0  0  0  0  0  0  0  0  0  0
    7.9786   -3.5937    1.3402 H   0  0  0  0  0  0  0  0  0  0  0  0
    8.5650   -5.0603    0.5781 H   0  0  0  0  0  0  0  0  0  0  0  0
    7.9107   -5.1238    2.2067 H   0  0  0  0  0  0  0  0  0  0  0  0
    6.2057   -5.9674    0.5090 H   0  0  0  0  0  0  0  0  0  0  0  0
    6.8401   -3.6727   -1.1127 H   0  0  0  0  0  0  0  0  0  0  0  0
    5.3933   -4.7514   -1.2842 H   0  0  0  0  0  0  0  0  0  0  0  0
    5.8161   -2.3421    0.5237 H   0  0  0  0  0  0  0  0  0  0  0  0
    2.2574   -1.3670    0.5574 H   0  0  0  0  0  0  0  0  0  0  0  0
    3.8952   -0.7489    0.6137 H   0  0  0  0  0  0  0  0  0  0  0  0
    3.3162   -1.8715    1.8380 H   0  0  0  0  0  0  0  0  0  0  0  0
    2.6089   -2.1417   -1.8326 H   0  0  0  0  0  0  0  0  0  0  0  0
    3.9185   -3.2282   -2.2512 H   0  0  0  0  0  0  0  0  0  0  0  0
    4.2599   -1.5607   -1.8081 H   0  0  0  0  0  0  0  0  0  0  0  0
    2.0351   -3.8553    0.7497 H   0  0  0  0  0  0  0  0  0  0  0  0
    2.7601   -4.6486   -0.6517 H   0  0  0  0  0  0  0  0  0  0  0  0
    4.9863   -7.7447    1.8459 H   0  0  0  0  0  0  0  0  0  0  0  0
    5.2708   -6.4254    2.9278 H   0  0  0  0  0  0  0  0  0  0  0  0
    3.4716   -8.8043    3.2271 H   0  0  0  0  0  0  0  0  0  0  0  0
    4.4267   -8.8866    5.0959 H   0  0  0  0  0  0  0  0  0  0  0  0
    2.8226   -6.0601    4.3168 H   0  0  0  0  0  0  0  0  0  0  0  0
    0.9792   -6.0465    3.0808 H   0  0  0  0  0  0  0  0  0  0  0  0
    2.3976   -7.9187    1.2056 H   0  0  0  0  0  0  0  0  0  0  0  0
    1.8074   -6.2498   -0.1886 H   0  0  0  0  0  0  0  0  0  0  0  0
   -1.3078   -6.6887    2.6006 H   0  0  0  0  0  0  0  0  0  0  0  0
   -1.7795   -8.3634    2.3966 H   0  0  0  0  0  0  0  0  0  0  0  0
   -0.7432   -7.6313    1.2215 H   0  0  0  0  0  0  0  0  0  0  0  0
    0.8662   -9.7678    1.6749 H   0  0  0  0  0  0  0  0  0  0  0  0
    1.3871  -11.2705    3.6600 H   0  0  0  0  0  0  0  0  0  0  0  0
    0.2938  -10.2282    5.7560 H   0  0  0  0  0  0  0  0  0  0  0  0
    2.6649   -5.9304    6.7603 H   0  0  0  0  0  0  0  0  0  0  0  0
    3.7142   -7.3398    6.7874 H   0  0  0  0  0  0  0  0  0  0  0  0
    2.2065   -7.3614    7.6686 H   0  0  0  0  0  0  0  0  0  0  0  0
    0.0821   -7.5911    6.6287 H   0  0  0  0  0  0  0  0  0  0  0  0
    0.5367   -5.4109    5.9190 H   0  0  0  0  0  0  0  0  0  0  0  0
   -1.5722   -9.6008    4.8828 H   0  0  0  0  0  0  0  0  0  0  0  0
    6.0831   -2.9117    2.8221 H   0  0  0  0  0  0  0  0  0  0  0  0
    5.6855   -4.4625    3.5070 H   0  0  0  0  0  0  0  0  0  0  0  0
    4.4155   -3.2899    3.1834 H   0  0  0  0  0  0  0  0  0  0  0  0
  1  2  1  0
  1 32  1  0
  1 33  1  0
  1 34  1  0
  2 30  1  0
  2  3  1  0
  2 35  1  6
  3  4  1  0
  3 36  1  0
  3 37  1  0
  4 30  1  0
  4  5  1  0
  4 38  1  1
  5  6  1  0
  5  7  1  0
  5  8  1  0
  6 39  1  0
  6 40  1  0
  6 41  1  0
  7 42  1  0
  7 43  1  0
  7 44  1  0
  8  9  1  0
  8 45  1  0
  8 46  1  0
  9 10  2  3
  9 30  1  0
 10 16  1  0
 10 11  1  0
 11 12  1  0
 11 47  1  0
 11 48  1  0
 12 13  1  0
 12 14  1  0
 12 49  1  6
 13 50  1  0
 14 24  1  0
 14 15  1  0
 14 51  1  1
 15 16  1  0
 15 18  1  0
 15 52  1  1
 16 17  1  0
 16 53  1  6
 17 54  1  0
 18 28  1  0
 18 19  1  6
 18 20  1  0
 19 55  1  0
 19 56  1  0
 19 57  1  0
 20 21  2  0
 20 58  1  0
 21 22  1  0
 21 59  1  0
 22 28  1  0
 22 23  1  0
 22 60  1  1
 23 24  1  0
 24 25  1  1
 24 26  1  0
 25 61  1  0
 25 62  1  0
 25 63  1  0
 26 27  1  0
 26 28  1  0
 26 64  1  1
 27 65  1  0
 28 29  1  6
 29 66  1  0
 30 31  1  1
 31 67  1  0
 31 68  1  0
 31 69  1  0
M  END
>  <i_m_ct_stereo_status>  (319) 
1

>  <s_m_source_file>  (319) 
/var/tmp/pbs.5076255.sched01/tmp4tnmxshi/11480k6dy83.sdf

>  <i_m_source_file_index>  (319) 
30

>  <i_lp_mmshare_version>  (319) 
48012

>  <i_f3d_flags>  (319) 
0

>  <s_epik_input>  (319) 
W0NIM11bQ0BASF0xW0NIMl1bQ0BIXShbQ0BdMTJbQ0gzXSlDKFtDSDNdKShbQ0gzXSlbQ0gyXS9DMj1DKFtDQEBIXTNbT0hdKS9bQ0gyXVtDQEBIXShbT0hdKVtDQEBIXShbQ0BASF0zW0NAQF00NVtDSDNdKVtDQF02KFtDSDNdKU9bQ0BIXShbQ0hdPVtDSF00KVtDQEBdNShbT0hdKVtDQEBIXTZbT0hd

>  <s_epik_cmdline>  (319) 
J2VwaWtfcHl0aG9uJywgJy1waHQnLCAnMi4wJywgJy1waCcsICc3LjAnLCAnLXRuJywgJzgnLCAnLW1hJywgJzIwMCcsICctaW1hZScsICc8aW5maWxlLm1hZT4nLCAnLW9tYWUnLCAnPG91dGZpbGUubWFlPic=

>  <r_lp_tautomer_probability>  (319) 
1

>  <r_epik_Ionization_Penalty>  (319) 
5.3768e-07

>  <r_epik_Ionization_Penalty_Charging>  (319) 
0

>  <r_epik_Ionization_Penalty_Neutral>  (319) 
5.3768e-07

>  <r_epik_State_Penalty>  (319) 
-0

>  <r_epik_Charging_Adjusted_Penalty>  (319) 
0

>  <i_epik_Tot_Q>  (319) 
0

>  <i_epik_Tot_abs_Q>  (319) 
0

>  <s_lp_Force_Field>  (319) 
OPLS3e

>  <r_lp_Energy>  (319) 
59.4873

>  <b_lp_Chiralities_Consistent>  (319) 
1

>  <s_lp_Variant>  (319) 
102:0-1

>  <s_i_glide_gridfile>  (319) 
pfpi4k_grid

>  <i_i_glide_lignum>  (319) 
30

>  <i_i_glide_rotatable_bonds>  (319) 
4

>  <r_i_docking_score>  (319) 
-3.47038

>  <r_i_glide_ligand_efficiency>  (319) 
-0.111948

>  <r_i_glide_ligand_efficiency_sa>  (319) 
-0.351671

>  <r_i_glide_ligand_efficiency_ln>  (319) 
-0.782678

>  <r_i_glide_gscore>  (319) 
-3.47038

>  <r_i_glide_lipo>  (319) 
-0.458258

>  <r_i_glide_hbond>  (319) 
-0.106381

>  <r_i_glide_metal>  (319) 
-0

>  <r_i_glide_rewards>  (319) 
-0.473339

>  <r_i_glide_evdw>  (319) 
-21.4546

>  <r_i_glide_ecoul>  (319) 
-9.06449

>  <r_i_glide_erotb>  (319) 
0

>  <r_i_glide_esite>  (319) 
0

>  <r_i_glide_emodel>  (319) 
-36.0543

>  <r_i_glide_energy>  (319) 
-30.5191

>  <r_i_glide_einternal>  (319) 
2.59129

>  <r_i_glide_intrahb_reward>  (319) 
-0

>  <i_i_glide_confnum>  (319) 
1

>  <i_i_glide_posenum>  (319) 
11

>  <r_i_glide_eff_state_penalty>  (319) 
0

>  <ligand_id>  (319) 
102

>  <original_smiles>  (319) 
CC1CC2C(C)(C)CC(=C3CC(O)C4C(C3O)C3(C)C=CC5OC4(C)C(O)C53O)C12C

>  <smiles>  (319) 
[H]OC1([H])C(=C2C([H])([H])C(C([H])([H])[H])(C([H])([H])[H])C3([H])C([H])([H])C([H])(C([H])([H])[H])C23C([H])([H])[H])C([H])([H])C([H])(O[H])C2([H])C1([H])C1(C([H])([H])[H])C([H])=C([H])C3([H])OC2(C([H])([H])[H])C([H])(O[H])C31O[H]

$$$$
102:0:1
     RDKit          3D

 69 74  0  0  1  0  0  0  0  0999 V2000
    8.2818   -3.8414    0.7251 C   0  0  0  0  0  0  0  0  0  0  0  0
    6.8896   -4.1311    0.1763 C   0  0  2  0  0  0  0  0  0  0  0  0
    6.4594   -3.3639   -1.0796 C   0  0  0  0  0  0  0  0  0  0  0  0
    5.6129   -2.4521   -0.1802 C   0  0  1  0  0  0  0  0  0  0  0  0
    4.1655   -2.1264   -0.5134 C   0  0  0  0  0  0  0  0  0  0  0  0
    3.6566   -0.9822    0.3891 C   0  0  0  0  0  0  0  0  0  0  0  0
    3.9968   -1.7029   -1.9845 C   0  0  0  0  0  0  0  0  0  0  0  0
    3.4275   -3.4438   -0.1739 C   0  0  0  0  0  0  0  0  0  0  0  0
    4.3476   -4.3052    0.7003 C   0  0  0  0  0  0  0  0  0  0  0  0
    4.0722   -5.5553    1.1835 C   0  0  0  0  0  0  0  0  0  0  0  0
    5.0907   -6.3779    1.9795 C   0  0  0  0  0  0  0  0  0  0  0  0
    4.4433   -7.2183    3.1037 C   0  0  1  0  0  0  0  0  0  0  0  0
    5.4445   -7.4371    4.0751 O   0  0  0  0  0  0  0  0  0  0  0  0
    3.1469   -6.5410    3.6407 C   0  0  1  0  0  0  0  0  0  0  0  0
    2.0678   -6.4847    2.4859 C   0  0  1  0  0  0  0  0  0  0  0  0
    2.7537   -6.3385    1.0748 C   0  0  1  0  0  0  0  0  0  0  0  0
    1.8647   -5.8232    0.0931 O   0  0  0  0  0  0  0  0  0  0  0  0
    0.9526   -7.5974    2.6210 C   0  0  1  0  0  0  0  0  0  0  0  0
   -0.3163   -7.2273    1.8220 C   0  0  0  0  0  0  0  0  0  0  0  0
    1.4856   -8.9342    2.1628 C   0  0  0  0  0  0  0  0  0  0  0  0
    1.7966   -9.7445    3.1705 C   0  0  0  0  0  0  0  0  0  0  0  0
    1.5224   -9.1025    4.4961 C   0  0  1  0  0  0  0  0  0  0  0  0
    2.6997   -8.5105    5.0485 O   0  0  0  0  0  0  0  0  0  0  0  0
    2.6068   -7.0839    5.0134 C   0  0  1  0  0  0  0  0  0  0  0  0
    3.3407   -6.5228    6.2477 C   0  0  0  0  0  0  0  0  0  0  0  0
    1.0943   -6.8923    5.1584 C   0  0  1  0  0  0  0  0  0  0  0  0
    0.6065   -5.5813    4.9492 O   0  0  0  0  0  0  0  0  0  0  0  0
    0.6186   -7.9040    4.1369 C   0  0  1  0  0  0  0  0  0  0  0  0
   -0.7303   -8.2468    4.4116 O   0  0  0  0  0  0  0  0  0  0  0  0
    5.6628   -3.5318    0.9028 C   0  0  1  0  0  0  0  0  0  0  0  0
    5.8075   -3.0214    2.3368 C   0  0  0  0  0  0  0  0  0  0  0  0
    8.4384   -2.7726    0.8705 H   0  0  0  0  0  0  0  0  0  0  0  0
    9.0571   -4.1897    0.0464 H   0  0  0  0  0  0  0  0  0  0  0  0
    8.4418   -4.3282    1.6847 H   0  0  0  0  0  0  0  0  0  0  0  0
    6.7438   -5.2021    0.0261 H   0  0  0  0  0  0  0  0  0  0  0  0
    7.2776   -2.8514   -1.5906 H   0  0  0  0  0  0  0  0  0  0  0  0
    5.8725   -3.9765   -1.7663 H   0  0  0  0  0  0  0  0  0  0  0  0
    6.2113   -1.5814    0.0950 H   0  0  0  0  0  0  0  0  0  0  0  0
    2.6177   -0.7367    0.1754 H   0  0  0  0  0  0  0  0  0  0  0  0
    4.2413   -0.0750    0.2456 H   0  0  0  0  0  0  0  0  0  0  0  0
    3.7070   -1.2414    1.4427 H   0  0  0  0  0  0  0  0  0  0  0  0
    2.9575   -1.4641   -2.2095 H   0  0  0  0  0  0  0  0  0  0  0  0
    4.3105   -2.4832   -2.6758 H   0  0  0  0  0  0  0  0  0  0  0  0
    4.5898   -0.8152   -2.2005 H   0  0  0  0  0  0  0  0  0  0  0  0
    2.4788   -3.2611    0.3271 H   0  0  0  0  0  0  0  0  0  0  0  0
    3.2276   -3.9938   -1.0925 H   0  0  0  0  0  0  0  0  0  0  0  0
    5.6126   -7.0471    1.2966 H   0  0  0  0  0  0  0  0  0  0  0  0
    5.8588   -5.7417    2.4012 H   0  0  0  0  0  0  0  0  0  0  0  0
    4.1706   -8.1992    2.7083 H   0  0  0  0  0  0  0  0  0  0  0  0
    6.0855   -8.0305    3.7108 H   0  0  0  0  0  0  0  0  0  0  0  0
    3.4157   -5.5031    3.8402 H   0  0  0  0  0  0  0  0  0  0  0  0
    1.5566   -5.5338    2.6307 H   0  0  0  0  0  0  0  0  0  0  0  0
    3.0599   -7.3235    0.7268 H   0  0  0  0  0  0  0  0  0  0  0  0
    2.3083   -5.8272   -0.7517 H   0  0  0  0  0  0  0  0  0  0  0  0
   -0.6962   -6.2694    2.1629 H   0  0  0  0  0  0  0  0  0  0  0  0
   -1.1107   -7.9667    1.9276 H   0  0  0  0  0  0  0  0  0  0  0  0
   -0.1311   -7.1586    0.7519 H   0  0  0  0  0  0  0  0  0  0  0  0
    1.5846   -9.1978    1.1241 H   0  0  0  0  0  0  0  0  0  0  0  0
    2.1849  -10.7486    3.0733 H   0  0  0  0  0  0  0  0  0  0  0  0
    1.0730   -9.7997    5.2060 H   0  0  0  0  0  0  0  0  0  0  0  0
    3.2846   -5.4355    6.2844 H   0  0  0  0  0  0  0  0  0  0  0  0
    4.3911   -6.8045    6.2661 H   0  0  0  0  0  0  0  0  0  0  0  0
    2.8986   -6.9023    7.1688 H   0  0  0  0  0  0  0  0  0  0  0  0
    0.7767   -7.2029    6.1562 H   0  0  0  0  0  0  0  0  0  0  0  0
   -0.3251   -5.6085    5.1151 H   0  0  0  0  0  0  0  0  0  0  0  0
   -0.8435   -9.1802    4.2646 H   0  0  0  0  0  0  0  0  0  0  0  0
    6.5186   -2.1973    2.3722 H   0  0  0  0  0  0  0  0  0  0  0  0
    6.1761   -3.7858    3.0113 H   0  0  0  0  0  0  0  0  0  0  0  0
    4.8686   -2.6486    2.7440 H   0  0  0  0  0  0  0  0  0  0  0  0
  1  2  1  0
  1 32  1  0
  1 33  1  0
  1 34  1  0
  2 30  1  0
  2  3  1  0
  2 35  1  6
  3  4  1  0
  3 36  1  0
  3 37  1  0
  4 30  1  0
  4  5  1  0
  4 38  1  1
  5  6  1  0
  5  7  1  0
  5  8  1  0
  6 39  1  0
  6 40  1  0
  6 41  1  0
  7 42  1  0
  7 43  1  0
  7 44  1  0
  8  9  1  0
  8 45  1  0
  8 46  1  0
  9 10  2  3
  9 30  1  0
 10 16  1  0
 10 11  1  0
 11 12  1  0
 11 47  1  0
 11 48  1  0
 12 13  1  0
 12 14  1  0
 12 49  1  6
 13 50  1  0
 14 24  1  0
 14 15  1  0
 14 51  1  1
 15 16  1  0
 15 18  1  0
 15 52  1  1
 16 17  1  0
 16 53  1  6
 17 54  1  0
 18 28  1  0
 18 19  1  6
 18 20  1  0
 19 55  1  0
 19 56  1  0
 19 57  1  0
 20 21  2  0
 20 58  1  0
 21 22  1  0
 21 59  1  0
 22 28  1  0
 22 23  1  0
 22 60  1  1
 23 24  1  0
 24 25  1  1
 24 26  1  0
 25 61  1  0
 25 62  1  0
 25 63  1  0
 26 27  1  0
 26 28  1  0
 26 64  1  1
 27 65  1  0
 28 29  1  6
 29 66  1  0
 30 31  1  1
 31 67  1  0
 31 68  1  0
 31 69  1  0
M  END
>  <i_m_ct_stereo_status>  (320) 
1

>  <s_m_source_file>  (320) 
/var/tmp/pbs.5076255.sched01/tmp4tnmxshi/11480k6dy83.sdf

>  <i_m_source_file_index>  (320) 
30

>  <i_lp_mmshare_version>  (320) 
48012

>  <i_f3d_flags>  (320) 
0

>  <s_epik_input>  (320) 
W0NIM11bQ0BASF0xW0NIMl1bQ0BIXShbQ0BdMTJbQ0gzXSlDKFtDSDNdKShbQ0gzXSlbQ0gyXS9DMj1DKFtDQEBIXTNbT0hdKS9bQ0gyXVtDQEBIXShbT0hdKVtDQEBIXShbQ0BASF0zW0NAQF00NVtDSDNdKVtDQF02KFtDSDNdKU9bQ0BIXShbQ0hdPVtDSF00KVtDQEBdNShbT0hdKVtDQEBIXTZbT0hd

>  <s_epik_cmdline>  (320) 
J2VwaWtfcHl0aG9uJywgJy1waHQnLCAnMi4wJywgJy1waCcsICc3LjAnLCAnLXRuJywgJzgnLCAnLW1hJywgJzIwMCcsICctaW1hZScsICc8aW5maWxlLm1hZT4nLCAnLW9tYWUnLCAnPG91dGZpbGUubWFlPic=

>  <r_lp_tautomer_probability>  (320) 
1

>  <r_epik_Ionization_Penalty>  (320) 
5.3768e-07

>  <r_epik_Ionization_Penalty_Charging>  (320) 
0

>  <r_epik_Ionization_Penalty_Neutral>  (320) 
5.3768e-07

>  <r_epik_State_Penalty>  (320) 
-0

>  <r_epik_Charging_Adjusted_Penalty>  (320) 
0

>  <i_epik_Tot_Q>  (320) 
0

>  <i_epik_Tot_abs_Q>  (320) 
0

>  <s_lp_Force_Field>  (320) 
OPLS3e

>  <r_lp_Energy>  (320) 
59.4873

>  <b_lp_Chiralities_Consistent>  (320) 
1

>  <s_lp_Variant>  (320) 
102:0-1

>  <s_i_glide_gridfile>  (320) 
pfpi4k_grid

>  <i_i_glide_lignum>  (320) 
30

>  <i_i_glide_rotatable_bonds>  (320) 
4

>  <r_i_docking_score>  (320) 
-3.38501

>  <r_i_glide_ligand_efficiency>  (320) 
-0.109194

>  <r_i_glide_ligand_efficiency_sa>  (320) 
-0.343019

>  <r_i_glide_ligand_efficiency_ln>  (320) 
-0.763423

>  <r_i_glide_gscore>  (320) 
-3.38501

>  <r_i_glide_lipo>  (320) 
-0.61825

>  <r_i_glide_hbond>  (320) 
-0.348435

>  <r_i_glide_metal>  (320) 
-0

>  <r_i_glide_rewards>  (320) 
-0.473339

>  <r_i_glide_evdw>  (320) 
-23.8757

>  <r_i_glide_ecoul>  (320) 
-5.008

>  <r_i_glide_erotb>  (320) 
0

>  <r_i_glide_esite>  (320) 
0

>  <r_i_glide_emodel>  (320) 
-34.9298

>  <r_i_glide_energy>  (320) 
-28.8837

>  <r_i_glide_einternal>  (320) 
1.67977

>  <r_i_glide_intrahb_reward>  (320) 
-0

>  <i_i_glide_confnum>  (320) 
1

>  <i_i_glide_posenum>  (320) 
1

>  <r_i_glide_eff_state_penalty>  (320) 
0

>  <ligand_id>  (320) 
102

>  <original_smiles>  (320) 
CC1CC2C(C)(C)CC(=C3CC(O)C4C(C3O)C3(C)C=CC5OC4(C)C(O)C53O)C12C

>  <smiles>  (320) 
[H]OC1([H])C(=C2C([H])([H])C(C([H])([H])[H])(C([H])([H])[H])C3([H])C([H])([H])C([H])(C([H])([H])[H])C23C([H])([H])[H])C([H])([H])C([H])(O[H])C2([H])C1([H])C1(C([H])([H])[H])C([H])=C([H])C3([H])OC2(C([H])([H])[H])C([H])(O[H])C31O[H]

$$$$
102:0:2
     RDKit          3D

 69 74  0  0  1  0  0  0  0  0999 V2000
    2.0734   -0.6776    7.8465 C   0  0  0  0  0  0  0  0  0  0  0  0
    2.2136   -0.0788    6.4500 C   0  0  2  0  0  0  0  0  0  0  0  0
    1.5250    1.2639    6.1886 C   0  0  0  0  0  0  0  0  0  0  0  0
    0.4146    0.5032    5.4515 C   0  0  1  0  0  0  0  0  0  0  0  0
   -0.0779    0.9520    4.0858 C   0  0  0  0  0  0  0  0  0  0  0  0
   -1.3718    0.2057    3.7156 C   0  0  0  0  0  0  0  0  0  0  0  0
   -0.3668    2.4648    4.0381 C   0  0  0  0  0  0  0  0  0  0  0  0
    1.0722    0.5188    3.1461 C   0  0  0  0  0  0  0  0  0  0  0  0
    1.9580   -0.4888    3.8914 C   0  0  0  0  0  0  0  0  0  0  0  0
    3.1000   -1.0729    3.4147 C   0  0  0  0  0  0  0  0  0  0  0  0
    3.9715   -2.0028    4.2630 C   0  0  0  0  0  0  0  0  0  0  0  0
    4.5892   -3.1563    3.4380 C   0  0  1  0  0  0  0  0  0  0  0  0
    4.8775   -4.2198    4.3163 O   0  0  0  0  0  0  0  0  0  0  0  0
    3.6727   -3.5512    2.2456 C   0  0  1  0  0  0  0  0  0  0  0  0
    3.5856   -2.3393    1.2391 C   0  0  1  0  0  0  0  0  0  0  0  0
    3.6906   -0.9650    1.9987 C   0  0  1  0  0  0  0  0  0  0  0  0
    3.1464    0.0905    1.2439 O   0  0  0  0  0  0  0  0  0  0  0  0
    4.4992   -2.5131   -0.0369 C   0  0  1  0  0  0  0  0  0  0  0  0
    4.0228   -1.6168   -1.2039 C   0  0  0  0  0  0  0  0  0  0  0  0
    5.9436   -2.2047    0.2963 C   0  0  0  0  0  0  0  0  0  0  0  0
    6.6758   -3.3052    0.4549 C   0  0  0  0  0  0  0  0  0  0  0  0
    5.8593   -4.5428    0.2457 C   0  0  1  0  0  0  0  0  0  0  0  0
    5.3976   -5.0997    1.4745 O   0  0  0  0  0  0  0  0  0  0  0  0
    3.9809   -4.9384    1.5776 C   0  0  1  0  0  0  0  0  0  0  0  0
    3.4122   -6.1533    2.3384 C   0  0  0  0  0  0  0  0  0  0  0  0
    3.5614   -4.9849    0.1038 C   0  0  1  0  0  0  0  0  0  0  0  0
    2.2168   -4.6439   -0.1772 O   0  0  0  0  0  0  0  0  0  0  0  0
    4.5934   -4.0315   -0.4677 C   0  0  1  0  0  0  0  0  0  0  0  0
    4.7386   -4.2469   -1.8634 O   0  0  0  0  0  0  0  0  0  0  0  0
    1.3703   -0.6849    5.3023 C   0  0  1  0  0  0  0  0  0  0  0  0
    0.7401   -2.0722    5.4770 C   0  0  0  0  0  0  0  0  0  0  0  0
    1.0292   -0.7251    8.1553 H   0  0  0  0  0  0  0  0  0  0  0  0
    2.6015   -0.0880    8.5935 H   0  0  0  0  0  0  0  0  0  0  0  0
    2.4701   -1.6896    7.8871 H   0  0  0  0  0  0  0  0  0  0  0  0
    3.2612    0.0004    6.1546 H   0  0  0  0  0  0  0  0  0  0  0  0
    1.1849    1.7747    7.0925 H   0  0  0  0  0  0  0  0  0  0  0  0
    2.1218    1.9190    5.5491 H   0  0  0  0  0  0  0  0  0  0  0  0
   -0.3842    0.2917    6.1641 H   0  0  0  0  0  0  0  0  0  0  0  0
   -1.7288    0.5111    2.7328 H   0  0  0  0  0  0  0  0  0  0  0  0
   -2.1690    0.4064    4.4313 H   0  0  0  0  0  0  0  0  0  0  0  0
   -1.2143   -0.8681    3.6914 H   0  0  0  0  0  0  0  0  0  0  0  0
   -0.7263    2.7735    3.0567 H   0  0  0  0  0  0  0  0  0  0  0  0
    0.5183    3.0585    4.2606 H   0  0  0  0  0  0  0  0  0  0  0  0
   -1.1308    2.7321    4.7670 H   0  0  0  0  0  0  0  0  0  0  0  0
    0.7016    0.0966    2.2136 H   0  0  0  0  0  0  0  0  0  0  0  0
    1.6852    1.3866    2.8994 H   0  0  0  0  0  0  0  0  0  0  0  0
    4.7791   -1.4166    4.7017 H   0  0  0  0  0  0  0  0  0  0  0  0
    3.4165   -2.4061    5.1027 H   0  0  0  0  0  0  0  0  0  0  0  0
    5.5518   -2.8288    3.0398 H   0  0  0  0  0  0  0  0  0  0  0  0
    5.3412   -4.8801    3.8180 H   0  0  0  0  0  0  0  0  0  0  0  0
    2.6700   -3.6618    2.6601 H   0  0  0  0  0  0  0  0  0  0  0  0
    2.5619   -2.3644    0.8660 H   0  0  0  0  0  0  0  0  0  0  0  0
    4.7365   -0.6990    2.1579 H   0  0  0  0  0  0  0  0  0  0  0  0
    2.3637   -0.2202    0.8052 H   0  0  0  0  0  0  0  0  0  0  0  0
    2.9861   -1.8274   -1.4589 H   0  0  0  0  0  0  0  0  0  0  0  0
    4.6145   -1.7541   -2.1075 H   0  0  0  0  0  0  0  0  0  0  0  0
    4.1025   -0.5593   -0.9663 H   0  0  0  0  0  0  0  0  0  0  0  0
    6.3266   -1.1991    0.3792 H   0  0  0  0  0  0  0  0  0  0  0  0
    7.7273   -3.3365    0.6904 H   0  0  0  0  0  0  0  0  0  0  0  0
    6.3997   -5.3034   -0.3158 H   0  0  0  0  0  0  0  0  0  0  0  0
    2.3301   -6.0786    2.4415 H   0  0  0  0  0  0  0  0  0  0  0  0
    3.8350   -6.2642    3.3347 H   0  0  0  0  0  0  0  0  0  0  0  0
    3.6259   -7.0799    1.8036 H   0  0  0  0  0  0  0  0  0  0  0  0
    3.7287   -5.9891   -0.2942 H   0  0  0  0  0  0  0  0  0  0  0  0
    2.1231   -4.6652   -1.1207 H   0  0  0  0  0  0  0  0  0  0  0  0
    4.1121   -4.9093   -2.1429 H   0  0  0  0  0  0  0  0  0  0  0  0
    0.0335   -2.0717    6.3064 H   0  0  0  0  0  0  0  0  0  0  0  0
    1.4687   -2.8450    5.7039 H   0  0  0  0  0  0  0  0  0  0  0  0
    0.1946   -2.3844    4.5880 H   0  0  0  0  0  0  0  0  0  0  0  0
  1  2  1  0
  1 32  1  0
  1 33  1  0
  1 34  1  0
  2 30  1  0
  2  3  1  0
  2 35  1  6
  3  4  1  0
  3 36  1  0
  3 37  1  0
  4 30  1  0
  4  5  1  0
  4 38  1  1
  5  6  1  0
  5  7  1  0
  5  8  1  0
  6 39  1  0
  6 40  1  0
  6 41  1  0
  7 42  1  0
  7 43  1  0
  7 44  1  0
  8  9  1  0
  8 45  1  0
  8 46  1  0
  9 10  2  3
  9 30  1  0
 10 16  1  0
 10 11  1  0
 11 12  1  0
 11 47  1  0
 11 48  1  0
 12 13  1  0
 12 14  1  0
 12 49  1  6
 13 50  1  0
 14 24  1  0
 14 15  1  0
 14 51  1  1
 15 16  1  0
 15 18  1  0
 15 52  1  6
 16 17  1  0
 16 53  1  1
 17 54  1  0
 18 28  1  0
 18 19  1  6
 18 20  1  0
 19 55  1  0
 19 56  1  0
 19 57  1  0
 20 21  2  0
 20 58  1  0
 21 22  1  0
 21 59  1  0
 22 28  1  0
 22 23  1  0
 22 60  1  6
 23 24  1  0
 24 25  1  1
 24 26  1  0
 25 61  1  0
 25 62  1  0
 25 63  1  0
 26 27  1  0
 26 28  1  0
 26 64  1  6
 27 65  1  0
 28 29  1  6
 29 66  1  0
 30 31  1  1
 31 67  1  0
 31 68  1  0
 31 69  1  0
M  END
>  <i_m_ct_stereo_status>  (321) 
1

>  <s_m_source_file>  (321) 
/var/tmp/pbs.5076255.sched01/tmp4tnmxshi/11480k6dy83.sdf

>  <i_m_source_file_index>  (321) 
30

>  <i_lp_mmshare_version>  (321) 
48012

>  <i_f3d_flags>  (321) 
0

>  <s_epik_input>  (321) 
W0NIM11bQ0BASF0xW0NIMl1bQ0BIXShbQ0BdMTJbQ0gzXSlDKFtDSDNdKShbQ0gzXSlbQ0gyXS9DMj1DKFtDQEBIXTNbT0hdKS9bQ0gyXVtDQEBIXShbT0hdKVtDQEBIXShbQ0BASF0zW0NAQF00NVtDSDNdKVtDQF02KFtDSDNdKU9bQ0BIXShbQ0hdPVtDSF00KVtDQEBdNShbT0hdKVtDQEBIXTZbT0hd

>  <s_epik_cmdline>  (321) 
J2VwaWtfcHl0aG9uJywgJy1waHQnLCAnMi4wJywgJy1waCcsICc3LjAnLCAnLXRuJywgJzgnLCAnLW1hJywgJzIwMCcsICctaW1hZScsICc8aW5maWxlLm1hZT4nLCAnLW9tYWUnLCAnPG91dGZpbGUubWFlPic=

>  <r_lp_tautomer_probability>  (321) 
1

>  <r_epik_Ionization_Penalty>  (321) 
5.3768e-07

>  <r_epik_Ionization_Penalty_Charging>  (321) 
0

>  <r_epik_Ionization_Penalty_Neutral>  (321) 
5.3768e-07

>  <r_epik_State_Penalty>  (321) 
-0

>  <r_epik_Charging_Adjusted_Penalty>  (321) 
0

>  <i_epik_Tot_Q>  (321) 
0

>  <i_epik_Tot_abs_Q>  (321) 
0

>  <s_lp_Force_Field>  (321) 
OPLS3e

>  <r_lp_Energy>  (321) 
59.4873

>  <b_lp_Chiralities_Consistent>  (321) 
1

>  <s_lp_Variant>  (321) 
102:0-1

>  <s_i_glide_gridfile>  (321) 
pfpi4k_grid

>  <i_i_glide_lignum>  (321) 
30

>  <i_i_glide_rotatable_bonds>  (321) 
4

>  <r_i_docking_score>  (321) 
-3.05951

>  <r_i_glide_ligand_efficiency>  (321) 
-0.098694

>  <r_i_glide_ligand_efficiency_sa>  (321) 
-0.310036

>  <r_i_glide_ligand_efficiency_ln>  (321) 
-0.690014

>  <r_i_glide_gscore>  (321) 
-3.05951

>  <r_i_glide_lipo>  (321) 
-0.287764

>  <r_i_glide_hbond>  (321) 
-0.00992856

>  <r_i_glide_metal>  (321) 
-0

>  <r_i_glide_rewards>  (321) 
-0.473339

>  <r_i_glide_evdw>  (321) 
-19.875

>  <r_i_glide_ecoul>  (321) 
-8.63155

>  <r_i_glide_erotb>  (321) 
0

>  <r_i_glide_esite>  (321) 
0

>  <r_i_glide_emodel>  (321) 
-33.9419

>  <r_i_glide_energy>  (321) 
-28.5066

>  <r_i_glide_einternal>  (321) 
2.05413

>  <r_i_glide_intrahb_reward>  (321) 
-0

>  <i_i_glide_confnum>  (321) 
1

>  <i_i_glide_posenum>  (321) 
17

>  <r_i_glide_eff_state_penalty>  (321) 
0

>  <ligand_id>  (321) 
102

>  <original_smiles>  (321) 
CC1CC2C(C)(C)CC(=C3CC(O)C4C(C3O)C3(C)C=CC5OC4(C)C(O)C53O)C12C

>  <smiles>  (321) 
[H]OC1([H])C(=C2C([H])([H])C(C([H])([H])[H])(C([H])([H])[H])C3([H])C([H])([H])C([H])(C([H])([H])[H])C23C([H])([H])[H])C([H])([H])C([H])(O[H])C2([H])C1([H])C1(C([H])([H])[H])C([H])=C([H])C3([H])OC2(C([H])([H])[H])C([H])(O[H])C31O[H]

$$$$
102:1:0
     RDKit          3D

 69 74  0  0  1  0  0  0  0  0999 V2000
    7.6672   -6.8990    1.6620 C   0  0  0  0  0  0  0  0  0  0  0  0
    6.7316   -5.7820    1.1993 C   0  0  2  0  0  0  0  0  0  0  0  0
    7.3791   -4.4271    0.9120 C   0  0  0  0  0  0  0  0  0  0  0  0
    6.2251   -3.7311    1.6316 C   0  0  1  0  0  0  0  0  0  0  0  0
    5.0668   -3.0261    0.9139 C   0  0  0  0  0  0  0  0  0  0  0  0
    5.1239   -1.4979    1.1177 C   0  0  0  0  0  0  0  0  0  0  0  0
    5.0005   -3.3288   -0.5961 C   0  0  0  0  0  0  0  0  0  0  0  0
    3.8666   -3.6698    1.6136 C   0  0  0  0  0  0  0  0  0  0  0  0
    4.2844   -5.1196    1.8447 C   0  0  0  0  0  0  0  0  0  0  0  0
    3.5123   -6.2144    1.6243 C   0  0  0  0  0  0  0  0  0  0  0  0
    2.0720   -6.1491    1.1349 C   0  0  0  0  0  0  0  0  0  0  0  0
    1.1255   -6.8592    2.1013 C   0  0  1  0  0  0  0  0  0  0  0  0
   -0.1819   -6.6581    1.5893 O   0  0  0  0  0  0  0  0  0  0  0  0
    1.4955   -8.3656    2.2810 C   0  0  1  0  0  0  0  0  0  0  0  0
    3.0077   -8.5438    2.6784 C   0  0  1  0  0  0  0  0  0  0  0  0
    3.9914   -7.6477    1.8483 C   0  0  1  0  0  0  0  0  0  0  0  0
    4.2151   -8.2584    0.5927 O   0  0  0  0  0  0  0  0  0  0  0  0
    3.2357   -8.6208    4.2327 C   0  0  1  0  0  0  0  0  0  0  0  0
    4.6360   -9.1930    4.5619 C   0  0  0  0  0  0  0  0  0  0  0  0
    3.0584   -7.2600    4.8729 C   0  0  0  0  0  0  0  0  0  0  0  0
    1.8849   -7.1351    5.4915 C   0  0  0  0  0  0  0  0  0  0  0  0
    1.0667   -8.3871    5.3821 C   0  0  1  0  0  0  0  0  0  0  0  0
    0.1152   -8.3052    4.3140 O   0  0  0  0  0  0  0  0  0  0  0  0
    0.5134   -9.1545    3.2306 C   0  0  1  0  0  0  0  0  0  0  0  0
   -0.7531   -9.6739    2.5260 C   0  0  0  0  0  0  0  0  0  0  0  0
    1.1856  -10.2835    4.0306 C   0  0  1  0  0  0  0  0  0  0  0  0
    1.8491  -11.2711    3.2725 O   0  0  0  0  0  0  0  0  0  0  0  0
    2.0831   -9.4558    4.9333 C   0  0  1  0  0  0  0  0  0  0  0  0
    2.5207  -10.2144    6.0555 O   0  0  0  0  0  0  0  0  0  0  0  0
    5.7771   -5.0892    2.2092 C   0  0  1  0  0  0  0  0  0  0  0  0
    6.0061   -5.3088    3.7039 C   0  0  0  0  0  0  0  0  0  0  0  0
    8.2673   -6.5874    2.5187 H   0  0  0  0  0  0  0  0  0  0  0  0
    8.3673   -7.1903    0.8800 H   0  0  0  0  0  0  0  0  0  0  0  0
    7.1264   -7.7928    1.9591 H   0  0  0  0  0  0  0  0  0  0  0  0
    6.1590   -6.0742    0.3168 H   0  0  0  0  0  0  0  0  0  0  0  0
    8.3161   -4.2935    1.4560 H   0  0  0  0  0  0  0  0  0  0  0  0
    7.4974   -4.2011   -0.1461 H   0  0  0  0  0  0  0  0  0  0  0  0
    6.6092   -3.1205    2.4396 H   0  0  0  0  0  0  0  0  0  0  0  0
    4.2685   -1.0028    0.6601 H   0  0  0  0  0  0  0  0  0  0  0  0
    6.0215   -1.0785    0.6691 H   0  0  0  0  0  0  0  0  0  0  0  0
    5.1342   -1.2258    2.1698 H   0  0  0  0  0  0  0  0  0  0  0  0
    4.0969   -2.9058   -1.0411 H   0  0  0  0  0  0  0  0  0  0  0  0
    4.9808   -4.4035   -0.7861 H   0  0  0  0  0  0  0  0  0  0  0  0
    5.8584   -2.9100   -1.1222 H   0  0  0  0  0  0  0  0  0  0  0  0
    3.7422   -3.2251    2.5988 H   0  0  0  0  0  0  0  0  0  0  0  0
    2.9401   -3.5066    1.0703 H   0  0  0  0  0  0  0  0  0  0  0  0
    1.7386   -5.1289    0.9739 H   0  0  0  0  0  0  0  0  0  0  0  0
    2.0197   -6.6227    0.1571 H   0  0  0  0  0  0  0  0  0  0  0  0
    1.1836   -6.3336    3.0516 H   0  0  0  0  0  0  0  0  0  0  0  0
   -0.4138   -7.4228    1.0825 H   0  0  0  0  0  0  0  0  0  0  0  0
    1.4112   -8.8279    1.2959 H   0  0  0  0  0  0  0  0  0  0  0  0
    3.2732   -9.5498    2.3507 H   0  0  0  0  0  0  0  0  0  0  0  0
    4.9581   -7.6204    2.3318 H   0  0  0  0  0  0  0  0  0  0  0  0
    4.3114   -9.1967    0.7185 H   0  0  0  0  0  0  0  0  0  0  0  0
    4.7335  -10.2127    4.1918 H   0  0  0  0  0  0  0  0  0  0  0  0
    4.8224   -9.2160    5.6341 H   0  0  0  0  0  0  0  0  0  0  0  0
    5.4515   -8.6153    4.1354 H   0  0  0  0  0  0  0  0  0  0  0  0
    3.8057   -6.4876    4.8471 H   0  0  0  0  0  0  0  0  0  0  0  0
    1.5463   -6.2600    6.0211 H   0  0  0  0  0  0  0  0  0  0  0  0
    0.5707   -8.6284    6.3227 H   0  0  0  0  0  0  0  0  0  0  0  0
   -0.5075  -10.3606    1.7147 H   0  0  0  0  0  0  0  0  0  0  0  0
   -1.3711   -8.8709    2.1286 H   0  0  0  0  0  0  0  0  0  0  0  0
   -1.3703  -10.2309    3.2284 H   0  0  0  0  0  0  0  0  0  0  0  0
    0.4352  -10.8040    4.6298 H   0  0  0  0  0  0  0  0  0  0  0  0
    2.1285  -11.9702    3.8515 H   0  0  0  0  0  0  0  0  0  0  0  0
    1.8360  -10.8023    6.3633 H   0  0  0  0  0  0  0  0  0  0  0  0
    7.0268   -5.0712    3.9830 H   0  0  0  0  0  0  0  0  0  0  0  0
    5.8540   -6.3463    3.9839 H   0  0  0  0  0  0  0  0  0  0  0  0
    5.3534   -4.6841    4.3107 H   0  0  0  0  0  0  0  0  0  0  0  0
  1  2  1  0
  1 32  1  0
  1 33  1  0
  1 34  1  0
  2 30  1  0
  2  3  1  0
  2 35  1  6
  3  4  1  0
  3 36  1  0
  3 37  1  0
  4 30  1  0
  4  5  1  0
  4 38  1  1
  5  6  1  0
  5  7  1  0
  5  8  1  0
  6 39  1  0
  6 40  1  0
  6 41  1  0
  7 42  1  0
  7 43  1  0
  7 44  1  0
  8  9  1  0
  8 45  1  0
  8 46  1  0
  9 10  2  3
  9 30  1  0
 10 16  1  0
 10 11  1  0
 11 12  1  0
 11 47  1  0
 11 48  1  0
 12 13  1  0
 12 14  1  0
 12 49  1  1
 13 50  1  0
 14 24  1  0
 14 15  1  0
 14 51  1  6
 15 16  1  0
 15 18  1  0
 15 52  1  6
 16 17  1  0
 16 53  1  1
 17 54  1  0
 18 28  1  0
 18 19  1  6
 18 20  1  0
 19 55  1  0
 19 56  1  0
 19 57  1  0
 20 21  2  0
 20 58  1  0
 21 22  1  0
 21 59  1  0
 22 28  1  0
 22 23  1  0
 22 60  1  1
 23 24  1  0
 24 25  1  6
 24 26  1  0
 25 61  1  0
 25 62  1  0
 25 63  1  0
 26 27  1  0
 26 28  1  0
 26 64  1  1
 27 65  1  0
 28 29  1  1
 29 66  1  0
 30 31  1  1
 31 67  1  0
 31 68  1  0
 31 69  1  0
M  END
>  <i_m_ct_stereo_status>  (322) 
1

>  <s_m_source_file>  (322) 
/var/tmp/pbs.5076255.sched01/tmp4tnmxshi/11480k6dy83.sdf

>  <i_m_source_file_index>  (322) 
31

>  <i_lp_mmshare_version>  (322) 
48012

>  <i_f3d_flags>  (322) 
0

>  <s_epik_input>  (322) 
W0NIM11bQ0BASF0xW0NIMl1bQ0BIXShbQ0BdMTJbQ0gzXSlDKFtDSDNdKShbQ0gzXSlbQ0gyXS9DMj1DKFtDQEBIXTNbT0hdKS9bQ0gyXVtDQEBIXShbT0hdKVtDQEBIXShbQ0BASF0zW0NAQF00NVtDSDNdKVtDQF02KFtDSDNdKU9bQ0BIXShbQ0hdPVtDSF00KVtDQEBdNShbT0hdKVtDQEBIXTZbT0hd

>  <s_epik_cmdline>  (322) 
J2VwaWtfcHl0aG9uJywgJy1waHQnLCAnMi4wJywgJy1waCcsICc3LjAnLCAnLXRuJywgJzgnLCAnLW1hJywgJzIwMCcsICctaW1hZScsICc8aW5maWxlLm1hZT4nLCAnLW9tYWUnLCAnPG91dGZpbGUubWFlPic=

>  <r_lp_tautomer_probability>  (322) 
1

>  <r_epik_Ionization_Penalty>  (322) 
5.3768e-07

>  <r_epik_Ionization_Penalty_Charging>  (322) 
0

>  <r_epik_Ionization_Penalty_Neutral>  (322) 
5.3768e-07

>  <r_epik_State_Penalty>  (322) 
-0

>  <r_epik_Charging_Adjusted_Penalty>  (322) 
0

>  <i_epik_Tot_Q>  (322) 
0

>  <i_epik_Tot_abs_Q>  (322) 
0

>  <s_lp_Force_Field>  (322) 
OPLS3e

>  <r_lp_Energy>  (322) 
50.8753

>  <b_lp_Chiralities_Consistent>  (322) 
1

>  <s_lp_Variant>  (322) 
102:0-2

>  <s_i_glide_gridfile>  (322) 
pfpi4k_grid

>  <i_i_glide_lignum>  (322) 
31

>  <i_i_glide_rotatable_bonds>  (322) 
4

>  <r_i_docking_score>  (322) 
-3.47178

>  <r_i_glide_ligand_efficiency>  (322) 
-0.111993

>  <r_i_glide_ligand_efficiency_sa>  (322) 
-0.351813

>  <r_i_glide_ligand_efficiency_ln>  (322) 
-0.782993

>  <r_i_glide_gscore>  (322) 
-3.47178

>  <r_i_glide_lipo>  (322) 
-0.657687

>  <r_i_glide_hbond>  (322) 
0

>  <r_i_glide_metal>  (322) 
-0

>  <r_i_glide_rewards>  (322) 
-0.473339

>  <r_i_glide_evdw>  (322) 
-22.6828

>  <r_i_glide_ecoul>  (322) 
-8.04412

>  <r_i_glide_erotb>  (322) 
0

>  <r_i_glide_esite>  (322) 
0

>  <r_i_glide_emodel>  (322) 
-37.0267

>  <r_i_glide_energy>  (322) 
-30.7269

>  <r_i_glide_einternal>  (322) 
1.80556

>  <r_i_glide_intrahb_reward>  (322) 
-0

>  <i_i_glide_confnum>  (322) 
1

>  <i_i_glide_posenum>  (322) 
38

>  <r_i_glide_eff_state_penalty>  (322) 
0

>  <ligand_id>  (322) 
102

>  <original_smiles>  (322) 
CC1CC2C(C)(C)CC(=C3CC(O)C4C(C3O)C3(C)C=CC5OC4(C)C(O)C53O)C12C

>  <smiles>  (322) 
[H]OC1([H])C(=C2C([H])([H])C(C([H])([H])[H])(C([H])([H])[H])C3([H])C([H])([H])C([H])(C([H])([H])[H])C23C([H])([H])[H])C([H])([H])C([H])(O[H])C2([H])C1([H])C1(C([H])([H])[H])C([H])=C([H])C3([H])OC2(C([H])([H])[H])C([H])(O[H])C31O[H]

$$$$
102:1:1
     RDKit          3D

 69 74  0  0  1  0  0  0  0  0999 V2000
    7.3287   -6.7662    2.1363 C   0  0  0  0  0  0  0  0  0  0  0  0
    6.4584   -5.6988    1.4791 C   0  0  2  0  0  0  0  0  0  0  0  0
    7.1506   -4.3922    1.0999 C   0  0  0  0  0  0  0  0  0  0  0  0
    5.9592   -3.6022    1.6458 C   0  0  1  0  0  0  0  0  0  0  0  0
    4.8726   -2.9765    0.7549 C   0  0  0  0  0  0  0  0  0  0  0  0
    4.9320   -1.4374    0.7967 C   0  0  0  0  0  0  0  0  0  0  0  0
    4.9293   -3.4406   -0.7156 C   0  0  0  0  0  0  0  0  0  0  0  0
    3.6021   -3.5327    1.4091 C   0  0  0  0  0  0  0  0  0  0  0  0
    3.9782   -4.9465    1.8433 C   0  0  0  0  0  0  0  0  0  0  0  0
    3.2040   -6.0532    1.6809 C   0  0  0  0  0  0  0  0  0  0  0  0
    1.8121   -6.0469    1.0650 C   0  0  0  0  0  0  0  0  0  0  0  0
    0.7796   -6.6484    2.0200 C   0  0  1  0  0  0  0  0  0  0  0  0
   -0.4646   -6.5370    1.3706 O   0  0  0  0  0  0  0  0  0  0  0  0
    1.1131   -8.1173    2.3895 C   0  0  1  0  0  0  0  0  0  0  0  0
    2.5808   -8.2586    2.9319 C   0  0  1  0  0  0  0  0  0  0  0  0
    3.6370   -7.4536    2.1001 C   0  0  1  0  0  0  0  0  0  0  0  0
    3.9100   -8.1891    0.9273 O   0  0  0  0  0  0  0  0  0  0  0  0
    2.6705   -8.1617    4.4959 C   0  0  1  0  0  0  0  0  0  0  0  0
    4.0251   -8.7049    5.0039 C   0  0  0  0  0  0  0  0  0  0  0  0
    2.4626   -6.7356    4.9634 C   0  0  0  0  0  0  0  0  0  0  0  0
    1.2414   -6.5348    5.4565 C   0  0  0  0  0  0  0  0  0  0  0  0
    0.4148   -7.7828    5.4088 C   0  0  1  0  0  0  0  0  0  0  0  0
   -0.4504   -7.8173    4.2671 O   0  0  0  0  0  0  0  0  0  0  0  0
    0.0313   -8.7834    3.3238 C   0  0  1  0  0  0  0  0  0  0  0  0
   -1.1826   -9.3662    2.5732 C   0  0  0  0  0  0  0  0  0  0  0  0
    0.6180   -9.8196    4.2975 C   0  0  1  0  0  0  0  0  0  0  0  0
    1.3212  -10.8900    3.6923 O   0  0  0  0  0  0  0  0  0  0  0  0
    1.4498   -8.8988    5.1773 C   0  0  1  0  0  0  0  0  0  0  0  0
    1.7431   -9.4870    6.4372 O   0  0  0  0  0  0  0  0  0  0  0  0
    5.4373   -4.8877    2.3280 C   0  0  1  0  0  0  0  0  0  0  0  0
    5.5335   -4.9461    3.8572 C   0  0  0  0  0  0  0  0  0  0  0  0
    7.8674   -6.3781    3.0095 H   0  0  0  0  0  0  0  0  0  0  0  0
    8.0893   -7.1525    1.4598 H   0  0  0  0  0  0  0  0  0  0  0  0
    6.7515   -7.6189    2.4832 H   0  0  0  0  0  0  0  0  0  0  0  0
    5.9581   -6.0727    0.5823 H   0  0  0  0  0  0  0  0  0  0  0  0
    8.0527   -4.2012    1.6840 H   0  0  0  0  0  0  0  0  0  0  0  0
    7.3533   -4.2965    0.0397 H   0  0  0  0  0  0  0  0  0  0  0  0
    6.2914   -2.9094    2.4209 H   0  0  0  0  0  0  0  0  0  0  0  0
    4.1271   -0.9884    0.2181 H   0  0  0  0  0  0  0  0  0  0  0  0
    5.8691   -1.0724    0.3824 H   0  0  0  0  0  0  0  0  0  0  0  0
    4.8561   -1.0515    1.8071 H   0  0  0  0  0  0  0  0  0  0  0  0
    4.0739   -3.0609   -1.2784 H   0  0  0  0  0  0  0  0  0  0  0  0
    4.9027   -4.5281   -0.7892 H   0  0  0  0  0  0  0  0  0  0  0  0
    5.8352   -3.0883   -1.2090 H   0  0  0  0  0  0  0  0  0  0  0  0
    3.3980   -2.9857    2.3239 H   0  0  0  0  0  0  0  0  0  0  0  0
    2.7361   -3.4380    0.7657 H   0  0  0  0  0  0  0  0  0  0  0  0
    1.5060   -5.0489    0.7538 H   0  0  0  0  0  0  0  0  0  0  0  0
    1.8468   -6.6312    0.1474 H   0  0  0  0  0  0  0  0  0  0  0  0
    0.7592   -6.0101    2.9019 H   0  0  0  0  0  0  0  0  0  0  0  0
   -0.5884   -7.3344    0.8642 H   0  0  0  0  0  0  0  0  0  0  0  0
    1.1014   -8.6766    1.4546 H   0  0  0  0  0  0  0  0  0  0  0  0
    2.8644   -9.2900    2.7229 H   0  0  0  0  0  0  0  0  0  0  0  0
    4.5665   -7.3839    2.6445 H   0  0  0  0  0  0  0  0  0  0  0  0
    4.6376   -7.7835    0.4796 H   0  0  0  0  0  0  0  0  0  0  0  0
    4.1372   -9.7572    4.7579 H   0  0  0  0  0  0  0  0  0  0  0  0
    4.1121   -8.6102    6.0834 H   0  0  0  0  0  0  0  0  0  0  0  0
    4.8849   -8.1838    4.5930 H   0  0  0  0  0  0  0  0  0  0  0  0
    3.2226   -5.9729    4.9042 H   0  0  0  0  0  0  0  0  0  0  0  0
    0.8758   -5.6030    5.8577 H   0  0  0  0  0  0  0  0  0  0  0  0
   -0.1522   -7.9106    6.3252 H   0  0  0  0  0  0  0  0  0  0  0  0
   -0.8697  -10.1300    1.8635 H   0  0  0  0  0  0  0  0  0  0  0  0
   -1.7477   -8.6054    2.0388 H   0  0  0  0  0  0  0  0  0  0  0  0
   -1.8654   -9.8425    3.2764 H   0  0  0  0  0  0  0  0  0  0  0  0
   -0.1654  -10.2580    4.8840 H   0  0  0  0  0  0  0  0  0  0  0  0
    1.5784  -11.5087    4.3657 H   0  0  0  0  0  0  0  0  0  0  0  0
    1.4320  -10.3847    6.4592 H   0  0  0  0  0  0  0  0  0  0  0  0
    6.5277   -4.6960    4.2093 H   0  0  0  0  0  0  0  0  0  0  0  0
    5.3249   -5.9405    4.2280 H   0  0  0  0  0  0  0  0  0  0  0  0
    4.8376   -4.2537    4.3244 H   0  0  0  0  0  0  0  0  0  0  0  0
  1  2  1  0
  1 32  1  0
  1 33  1  0
  1 34  1  0
  2 30  1  0
  2  3  1  0
  2 35  1  6
  3  4  1  0
  3 36  1  0
  3 37  1  0
  4 30  1  0
  4  5  1  0
  4 38  1  1
  5  6  1  0
  5  7  1  0
  5  8  1  0
  6 39  1  0
  6 40  1  0
  6 41  1  0
  7 42  1  0
  7 43  1  0
  7 44  1  0
  8  9  1  0
  8 45  1  0
  8 46  1  0
  9 10  2  3
  9 30  1  0
 10 16  1  0
 10 11  1  0
 11 12  1  0
 11 47  1  0
 11 48  1  0
 12 13  1  0
 12 14  1  0
 12 49  1  1
 13 50  1  0
 14 24  1  0
 14 15  1  0
 14 51  1  6
 15 16  1  0
 15 18  1  0
 15 52  1  1
 16 17  1  0
 16 53  1  1
 17 54  1  0
 18 28  1  0
 18 19  1  1
 18 20  1  0
 19 55  1  0
 19 56  1  0
 19 57  1  0
 20 21  2  0
 20 58  1  0
 21 22  1  0
 21 59  1  0
 22 28  1  0
 22 23  1  0
 22 60  1  1
 23 24  1  0
 24 25  1  6
 24 26  1  0
 25 61  1  0
 25 62  1  0
 25 63  1  0
 26 27  1  0
 26 28  1  0
 26 64  1  1
 27 65  1  0
 28 29  1  1
 29 66  1  0
 30 31  1  1
 31 67  1  0
 31 68  1  0
 31 69  1  0
M  END
>  <i_m_ct_stereo_status>  (323) 
1

>  <s_m_source_file>  (323) 
/var/tmp/pbs.5076255.sched01/tmp4tnmxshi/11480k6dy83.sdf

>  <i_m_source_file_index>  (323) 
31

>  <i_lp_mmshare_version>  (323) 
48012

>  <i_f3d_flags>  (323) 
0

>  <s_epik_input>  (323) 
W0NIM11bQ0BASF0xW0NIMl1bQ0BIXShbQ0BdMTJbQ0gzXSlDKFtDSDNdKShbQ0gzXSlbQ0gyXS9DMj1DKFtDQEBIXTNbT0hdKS9bQ0gyXVtDQEBIXShbT0hdKVtDQEBIXShbQ0BASF0zW0NAQF00NVtDSDNdKVtDQF02KFtDSDNdKU9bQ0BIXShbQ0hdPVtDSF00KVtDQEBdNShbT0hdKVtDQEBIXTZbT0hd

>  <s_epik_cmdline>  (323) 
J2VwaWtfcHl0aG9uJywgJy1waHQnLCAnMi4wJywgJy1waCcsICc3LjAnLCAnLXRuJywgJzgnLCAnLW1hJywgJzIwMCcsICctaW1hZScsICc8aW5maWxlLm1hZT4nLCAnLW9tYWUnLCAnPG91dGZpbGUubWFlPic=

>  <r_lp_tautomer_probability>  (323) 
1

>  <r_epik_Ionization_Penalty>  (323) 
5.3768e-07

>  <r_epik_Ionization_Penalty_Charging>  (323) 
0

>  <r_epik_Ionization_Penalty_Neutral>  (323) 
5.3768e-07

>  <r_epik_State_Penalty>  (323) 
-0

>  <r_epik_Charging_Adjusted_Penalty>  (323) 
0

>  <i_epik_Tot_Q>  (323) 
0

>  <i_epik_Tot_abs_Q>  (323) 
0

>  <s_lp_Force_Field>  (323) 
OPLS3e

>  <r_lp_Energy>  (323) 
50.8753

>  <b_lp_Chiralities_Consistent>  (323) 
1

>  <s_lp_Variant>  (323) 
102:0-2

>  <s_i_glide_gridfile>  (323) 
pfpi4k_grid

>  <i_i_glide_lignum>  (323) 
31

>  <i_i_glide_rotatable_bonds>  (323) 
4

>  <r_i_docking_score>  (323) 
-3.40443

>  <r_i_glide_ligand_efficiency>  (323) 
-0.10982

>  <r_i_glide_ligand_efficiency_sa>  (323) 
-0.344987

>  <r_i_glide_ligand_efficiency_ln>  (323) 
-0.767803

>  <r_i_glide_gscore>  (323) 
-3.40443

>  <r_i_glide_lipo>  (323) 
-0.656622

>  <r_i_glide_hbond>  (323) 
0

>  <r_i_glide_metal>  (323) 
-0

>  <r_i_glide_rewards>  (323) 
-0.473339

>  <r_i_glide_evdw>  (323) 
-21.6656

>  <r_i_glide_ecoul>  (323) 
-7.94124

>  <r_i_glide_erotb>  (323) 
0

>  <r_i_glide_esite>  (323) 
0

>  <r_i_glide_emodel>  (323) 
-35.6855

>  <r_i_glide_energy>  (323) 
-29.6069

>  <r_i_glide_einternal>  (323) 
2.32424

>  <r_i_glide_intrahb_reward>  (323) 
-0

>  <i_i_glide_confnum>  (323) 
2

>  <i_i_glide_posenum>  (323) 
39

>  <r_i_glide_eff_state_penalty>  (323) 
0

>  <ligand_id>  (323) 
102

>  <original_smiles>  (323) 
CC1CC2C(C)(C)CC(=C3CC(O)C4C(C3O)C3(C)C=CC5OC4(C)C(O)C53O)C12C

>  <smiles>  (323) 
[H]OC1([H])C(=C2C([H])([H])C(C([H])([H])[H])(C([H])([H])[H])C3([H])C([H])([H])C([H])(C([H])([H])[H])C23C([H])([H])[H])C([H])([H])C([H])(O[H])C2([H])C1([H])C1(C([H])([H])[H])C([H])=C([H])C3([H])OC2(C([H])([H])[H])C([H])(O[H])C31O[H]

$$$$
102:1:2
     RDKit          3D

 69 74  0  0  1  0  0  0  0  0999 V2000
    7.2805   -7.4017    2.4060 C   0  0  0  0  0  0  0  0  0  0  0  0
    6.5146   -6.3286    1.6375 C   0  0  2  0  0  0  0  0  0  0  0  0
    7.3346   -5.1381    1.1432 C   0  0  0  0  0  0  0  0  0  0  0  0
    6.2215   -4.1905    1.5810 C   0  0  1  0  0  0  0  0  0  0  0  0
    5.2014   -3.5545    0.6223 C   0  0  0  0  0  0  0  0  0  0  0  0
    5.4152   -2.0307    0.5077 C   0  0  0  0  0  0  0  0  0  0  0  0
    5.2105   -4.1671   -0.7929 C   0  0  0  0  0  0  0  0  0  0  0  0
    3.8866   -3.9142    1.3231 C   0  0  0  0  0  0  0  0  0  0  0  0
    4.1200   -5.3062    1.9002 C   0  0  0  0  0  0  0  0  0  0  0  0
    3.2365   -6.3382    1.8472 C   0  0  0  0  0  0  0  0  0  0  0  0
    1.8481   -6.2398    1.2387 C   0  0  0  0  0  0  0  0  0  0  0  0
    0.7642   -6.6457    2.2287 C   0  0  1  0  0  0  0  0  0  0  0  0
   -0.4629   -6.4926    1.5498 O   0  0  0  0  0  0  0  0  0  0  0  0
    0.9575   -8.1035    2.7345 C   0  0  1  0  0  0  0  0  0  0  0  0
    2.4077   -8.3350    3.2966 C   0  0  1  0  0  0  0  0  0  0  0  0
    3.5289   -7.7375    2.3836 C   0  0  1  0  0  0  0  0  0  0  0  0
    3.6963   -8.6145    1.2844 O   0  0  0  0  0  0  0  0  0  0  0  0
    2.5180   -8.0885    4.8438 C   0  0  1  0  0  0  0  0  0  0  0  0
    3.8071   -8.7111    5.4198 C   0  0  0  0  0  0  0  0  0  0  0  0
    2.4535   -6.6092    5.1586 C   0  0  0  0  0  0  0  0  0  0  0  0
    1.2582   -6.2389    5.6124 C   0  0  0  0  0  0  0  0  0  0  0  0
    0.3176   -7.3998    5.6937 C   0  0  1  0  0  0  0  0  0  0  0  0
   -0.5607   -7.4763    4.5620 O   0  0  0  0  0  0  0  0  0  0  0  0
   -0.1781   -8.5706    3.7173 C   0  0  1  0  0  0  0  0  0  0  0  0
   -1.4355   -9.0937    2.9865 C   0  0  0  0  0  0  0  0  0  0  0  0
    0.3191   -9.5545    4.7933 C   0  0  1  0  0  0  0  0  0  0  0  0
    0.9457  -10.7400    4.3315 O   0  0  0  0  0  0  0  0  0  0  0  0
    1.2295   -8.6310    5.5838 C   0  0  1  0  0  0  0  0  0  0  0  0
    1.4356   -9.1376    6.8942 O   0  0  0  0  0  0  0  0  0  0  0  0
    5.5777   -5.3407    2.3853 C   0  0  1  0  0  0  0  0  0  0  0  0
    5.6789   -5.2472    3.9061 C   0  0  0  0  0  0  0  0  0  0  0  0
    7.8496   -6.9746    3.2356 H   0  0  0  0  0  0  0  0  0  0  0  0
    8.0001   -7.9173    1.7713 H   0  0  0  0  0  0  0  0  0  0  0  0
    6.6222   -8.1554    2.8269 H   0  0  0  0  0  0  0  0  0  0  0  0
    5.9738   -6.7464    0.7824 H   0  0  0  0  0  0  0  0  0  0  0  0
    8.2390   -4.9732    1.7305 H   0  0  0  0  0  0  0  0  0  0  0  0
    7.5562   -5.1653    0.0843 H   0  0  0  0  0  0  0  0  0  0  0  0
    6.6195   -3.4568    2.2718 H   0  0  0  0  0  0  0  0  0  0  0  0
    4.6580   -1.5678   -0.1226 H   0  0  0  0  0  0  0  0  0  0  0  0
    6.3841   -1.8086    0.0697 H   0  0  0  0  0  0  0  0  0  0  0  0
    5.3788   -1.5397    1.4745 H   0  0  0  0  0  0  0  0  0  0  0  0
    4.3934   -3.7704   -1.4007 H   0  0  0  0  0  0  0  0  0  0  0  0
    5.0847   -5.2508   -0.7564 H   0  0  0  0  0  0  0  0  0  0  0  0
    6.1449   -3.9471   -1.3085 H   0  0  0  0  0  0  0  0  0  0  0  0
    3.7387   -3.2549    2.1739 H   0  0  0  0  0  0  0  0  0  0  0  0
    3.0322   -3.7949    0.6673 H   0  0  0  0  0  0  0  0  0  0  0  0
    1.6443   -5.2630    0.8068 H   0  0  0  0  0  0  0  0  0  0  0  0
    1.8024   -6.9395    0.4185 H   0  0  0  0  0  0  0  0  0  0  0  0
    0.8020   -5.9326    3.0474 H   0  0  0  0  0  0  0  0  0  0  0  0
   -0.6196   -7.2797    1.0406 H   0  0  0  0  0  0  0  0  0  0  0  0
    0.8891   -8.7557    1.8607 H   0  0  0  0  0  0  0  0  0  0  0  0
    2.5867   -9.4071    3.2072 H   0  0  0  0  0  0  0  0  0  0  0  0
    4.4677   -7.7175    2.9212 H   0  0  0  0  0  0  0  0  0  0  0  0
    3.8780   -9.4905    1.6063 H   0  0  0  0  0  0  0  0  0  0  0  0
    3.8145   -9.7918    5.2808 H   0  0  0  0  0  0  0  0  0  0  0  0
    3.9040   -8.5153    6.4862 H   0  0  0  0  0  0  0  0  0  0  0  0
    4.7126   -8.3190    4.9610 H   0  0  0  0  0  0  0  0  0  0  0  0
    3.2823   -5.9331    5.0423 H   0  0  0  0  0  0  0  0  0  0  0  0
    0.9758   -5.2443    5.9179 H   0  0  0  0  0  0  0  0  0  0  0  0
   -0.2161   -7.3701    6.6385 H   0  0  0  0  0  0  0  0  0  0  0  0
   -1.1860   -9.9427    2.3497 H   0  0  0  0  0  0  0  0  0  0  0  0
   -1.9199   -8.3331    2.3771 H   0  0  0  0  0  0  0  0  0  0  0  0
   -2.1937   -9.4398    3.6820 H   0  0  0  0  0  0  0  0  0  0  0  0
   -0.5140   -9.8502    5.4322 H   0  0  0  0  0  0  0  0  0  0  0  0
    1.0545  -11.3310    5.0667 H   0  0  0  0  0  0  0  0  0  0  0  0
    1.6554  -10.0593    6.8398 H   0  0  0  0  0  0  0  0  0  0  0  0
    6.7014   -5.0564    4.2245 H   0  0  0  0  0  0  0  0  0  0  0  0
    5.3855   -6.1775    4.3784 H   0  0  0  0  0  0  0  0  0  0  0  0
    5.0540   -4.4493    4.3004 H   0  0  0  0  0  0  0  0  0  0  0  0
  1  2  1  0
  1 32  1  0
  1 33  1  0
  1 34  1  0
  2 30  1  0
  2  3  1  0
  2 35  1  6
  3  4  1  0
  3 36  1  0
  3 37  1  0
  4 30  1  0
  4  5  1  0
  4 38  1  1
  5  6  1  0
  5  7  1  0
  5  8  1  0
  6 39  1  0
  6 40  1  0
  6 41  1  0
  7 42  1  0
  7 43  1  0
  7 44  1  0
  8  9  1  0
  8 45  1  0
  8 46  1  0
  9 10  2  3
  9 30  1  0
 10 16  1  0
 10 11  1  0
 11 12  1  0
 11 47  1  0
 11 48  1  0
 12 13  1  0
 12 14  1  0
 12 49  1  1
 13 50  1  0
 14 24  1  0
 14 15  1  0
 14 51  1  6
 15 16  1  0
 15 18  1  0
 15 52  1  1
 16 17  1  0
 16 53  1  1
 17 54  1  0
 18 28  1  0
 18 19  1  1
 18 20  1  0
 19 55  1  0
 19 56  1  0
 19 57  1  0
 20 21  2  0
 20 58  1  0
 21 22  1  0
 21 59  1  0
 22 28  1  0
 22 23  1  0
 22 60  1  1
 23 24  1  0
 24 25  1  6
 24 26  1  0
 25 61  1  0
 25 62  1  0
 25 63  1  0
 26 27  1  0
 26 28  1  0
 26 64  1  1
 27 65  1  0
 28 29  1  1
 29 66  1  0
 30 31  1  1
 31 67  1  0
 31 68  1  0
 31 69  1  0
M  END
>  <i_m_ct_stereo_status>  (324) 
1

>  <s_m_source_file>  (324) 
/var/tmp/pbs.5076255.sched01/tmp4tnmxshi/11480k6dy83.sdf

>  <i_m_source_file_index>  (324) 
31

>  <i_lp_mmshare_version>  (324) 
48012

>  <i_f3d_flags>  (324) 
0

>  <s_epik_input>  (324) 
W0NIM11bQ0BASF0xW0NIMl1bQ0BIXShbQ0BdMTJbQ0gzXSlDKFtDSDNdKShbQ0gzXSlbQ0gyXS9DMj1DKFtDQEBIXTNbT0hdKS9bQ0gyXVtDQEBIXShbT0hdKVtDQEBIXShbQ0BASF0zW0NAQF00NVtDSDNdKVtDQF02KFtDSDNdKU9bQ0BIXShbQ0hdPVtDSF00KVtDQEBdNShbT0hdKVtDQEBIXTZbT0hd

>  <s_epik_cmdline>  (324) 
J2VwaWtfcHl0aG9uJywgJy1waHQnLCAnMi4wJywgJy1waCcsICc3LjAnLCAnLXRuJywgJzgnLCAnLW1hJywgJzIwMCcsICctaW1hZScsICc8aW5maWxlLm1hZT4nLCAnLW9tYWUnLCAnPG91dGZpbGUubWFlPic=

>  <r_lp_tautomer_probability>  (324) 
1

>  <r_epik_Ionization_Penalty>  (324) 
5.3768e-07

>  <r_epik_Ionization_Penalty_Charging>  (324) 
0

>  <r_epik_Ionization_Penalty_Neutral>  (324) 
5.3768e-07

>  <r_epik_State_Penalty>  (324) 
-0

>  <r_epik_Charging_Adjusted_Penalty>  (324) 
0

>  <i_epik_Tot_Q>  (324) 
0

>  <i_epik_Tot_abs_Q>  (324) 
0

>  <s_lp_Force_Field>  (324) 
OPLS3e

>  <r_lp_Energy>  (324) 
50.8753

>  <b_lp_Chiralities_Consistent>  (324) 
1

>  <s_lp_Variant>  (324) 
102:0-2

>  <s_i_glide_gridfile>  (324) 
pfpi4k_grid

>  <i_i_glide_lignum>  (324) 
31

>  <i_i_glide_rotatable_bonds>  (324) 
4

>  <r_i_docking_score>  (324) 
-3.33331

>  <r_i_glide_ligand_efficiency>  (324) 
-0.107526

>  <r_i_glide_ligand_efficiency_sa>  (324) 
-0.337781

>  <r_i_glide_ligand_efficiency_ln>  (324) 
-0.751764

>  <r_i_glide_gscore>  (324) 
-3.33331

>  <r_i_glide_lipo>  (324) 
-0.4636

>  <r_i_glide_hbond>  (324) 
0

>  <r_i_glide_metal>  (324) 
-0

>  <r_i_glide_rewards>  (324) 
-0.473339

>  <r_i_glide_evdw>  (324) 
-20.5225

>  <r_i_glide_ecoul>  (324) 
-9.13497

>  <r_i_glide_erotb>  (324) 
0

>  <r_i_glide_esite>  (324) 
0

>  <r_i_glide_emodel>  (324) 
-35.8625

>  <r_i_glide_energy>  (324) 
-29.6575

>  <r_i_glide_einternal>  (324) 
1.593

>  <r_i_glide_intrahb_reward>  (324) 
-0

>  <i_i_glide_confnum>  (324) 
1

>  <i_i_glide_posenum>  (324) 
36

>  <r_i_glide_eff_state_penalty>  (324) 
0

>  <ligand_id>  (324) 
102

>  <original_smiles>  (324) 
CC1CC2C(C)(C)CC(=C3CC(O)C4C(C3O)C3(C)C=CC5OC4(C)C(O)C53O)C12C

>  <smiles>  (324) 
[H]OC1([H])C(=C2C([H])([H])C(C([H])([H])[H])(C([H])([H])[H])C3([H])C([H])([H])C([H])(C([H])([H])[H])C23C([H])([H])[H])C([H])([H])C([H])(O[H])C2([H])C1([H])C1(C([H])([H])[H])C([H])=C([H])C3([H])OC2(C([H])([H])[H])C([H])(O[H])C31O[H]

$$$$
103:0:0
     RDKit          3D

 78 82  0  0  1  0  0  0  0  0999 V2000
    1.3052   -4.0053   -1.5781 C   0  0  0  0  0  0  0  0  0  0  0  0
    2.6266   -3.3276   -1.3311 C   0  0  2  0  0  0  0  0  0  0  0  0
    3.1157   -3.0580   -2.7597 C   0  0  0  0  0  0  0  0  0  0  0  0
    4.4132   -2.3340   -2.8120 C   0  0  0  0  0  0  0  0  0  0  0  0
    4.6283   -1.6931   -3.8540 O   0  0  0  0  0  0  0  0  0  0  0  0
    5.3870   -2.3930   -1.5930 C   0  0  0  0  0  0  0  0  0  0  0  0
    6.5220   -1.9176   -1.6191 O   0  0  0  0  0  0  0  0  0  0  0  0
    4.8405   -2.9540   -0.2494 C   0  0  2  0  0  0  0  0  0  0  0  0
    4.3474   -1.7130    0.5466 C   0  0  0  0  0  0  0  0  0  0  0  0
    6.0079   -3.6132    0.5106 C   0  0  0  0  0  0  0  0  0  0  0  0
    5.5430   -4.2404    1.8484 C   0  0  0  0  0  0  0  0  0  0  0  0
    4.4673   -5.3548    1.6752 C   0  0  2  0  0  0  0  0  0  0  0  0
    5.1991   -6.4817    0.8745 C   0  0  0  0  0  0  0  0  0  0  0  0
    3.2814   -4.7564    0.8492 C   0  0  2  0  0  0  0  0  0  0  0  0
    2.2394   -5.8566    0.6012 C   0  0  0  0  0  0  0  0  0  0  0  0
    2.2637   -7.0952    1.5078 C   0  0  0  0  0  0  0  0  0  0  0  0
    2.6476   -6.8028    2.9782 C   0  0  1  0  0  0  0  0  0  0  0  0
    2.4243   -8.0171    4.0185 C   0  0  2  0  0  0  0  0  0  0  0  0
    1.7139   -9.2004    3.2959 C   0  0  0  0  0  0  0  0  0  0  0  0
    1.4398   -7.5276    5.1254 C   0  0  0  0  0  0  0  0  0  0  0  0
    1.1867   -8.5328    6.2586 C   0  0  0  0  0  0  0  0  0  0  0  0
    2.4903   -8.9332    6.9499 C   0  0  1  0  0  0  0  0  0  0  0  0
    2.1901   -9.8159    8.0160 O   0  0  0  0  0  0  0  0  0  0  0  0
    3.5417   -9.5334    5.9716 C   0  0  0  0  0  0  0  0  0  0  0  0
    4.8591   -9.7299    6.7628 C   0  0  0  0  0  0  0  0  0  0  0  0
    3.1696  -10.9713    5.5214 C   0  0  0  0  0  0  0  0  0  0  0  0
    3.7419   -8.5672    4.7193 C   0  0  2  0  0  0  0  0  0  0  0  0
    4.6757   -7.3870    5.0548 C   0  0  0  0  0  0  0  0  0  0  0  0
    5.0954   -6.6549    3.7943 C   0  0  0  0  0  0  0  0  0  0  0  0
    3.9458   -5.8982    3.0896 C   0  0  1  0  0  0  0  0  0  0  0  0
    3.5776   -4.6972    4.0041 C   0  0  0  0  0  0  0  0  0  0  0  0
    3.7244   -4.0223   -0.4790 C   0  0  1  0  0  0  0  0  0  0  0  0
    1.4036   -4.9680   -2.0475 H   0  0  0  0  0  0  0  0  0  0  0  0
    0.7575   -3.3749   -2.2874 H   0  0  0  0  0  0  0  0  0  0  0  0
    0.6685   -4.2347   -0.7328 H   0  0  0  0  0  0  0  0  0  0  0  0
    2.4218   -2.3518   -0.8999 H   0  0  0  0  0  0  0  0  0  0  0  0
    3.2080   -3.9495   -3.3824 H   0  0  0  0  0  0  0  0  0  0  0  0
    2.4302   -2.3927   -3.2797 H   0  0  0  0  0  0  0  0  0  0  0  0
    3.7287   -1.9806    1.4037 H   0  0  0  0  0  0  0  0  0  0  0  0
    3.7673   -1.0193   -0.0659 H   0  0  0  0  0  0  0  0  0  0  0  0
    5.1949   -1.1310    0.9144 H   0  0  0  0  0  0  0  0  0  0  0  0
    6.4792   -4.3634   -0.1347 H   0  0  0  0  0  0  0  0  0  0  0  0
    6.7896   -2.8707    0.7256 H   0  0  0  0  0  0  0  0  0  0  0  0
    6.4263   -4.6351    2.3623 H   0  0  0  0  0  0  0  0  0  0  0  0
    5.1477   -3.4241    2.4541 H   0  0  0  0  0  0  0  0  0  0  0  0
    4.8302   -7.4829    1.0516 H   0  0  0  0  0  0  0  0  0  0  0  0
    6.2516   -6.5337    1.1435 H   0  0  0  0  0  0  0  0  0  0  0  0
    5.1747   -6.3364   -0.2015 H   0  0  0  0  0  0  0  0  0  0  0  0
    2.7771   -3.9765    1.4268 H   0  0  0  0  0  0  0  0  0  0  0  0
    1.2662   -5.4258    0.7814 H   0  0  0  0  0  0  0  0  0  0  0  0
    2.3016   -6.1740   -0.4358 H   0  0  0  0  0  0  0  0  0  0  0  0
    1.2451   -7.4593    1.4532 H   0  0  0  0  0  0  0  0  0  0  0  0
    2.8576   -7.9005    1.0924 H   0  0  0  0  0  0  0  0  0  0  0  0
    1.8373   -6.1223    3.2405 H   0  0  0  0  0  0  0  0  0  0  0  0
    1.4434  -10.0124    3.9570 H   0  0  0  0  0  0  0  0  0  0  0  0
    2.3443   -9.6329    2.5158 H   0  0  0  0  0  0  0  0  0  0  0  0
    0.7565   -8.9094    2.8627 H   0  0  0  0  0  0  0  0  0  0  0  0
    1.8327   -6.6251    5.5892 H   0  0  0  0  0  0  0  0  0  0  0  0
    0.4832   -7.2433    4.6759 H   0  0  0  0  0  0  0  0  0  0  0  0
    0.5309   -8.0640    6.9889 H   0  0  0  0  0  0  0  0  0  0  0  0
    0.6474   -9.4020    5.8903 H   0  0  0  0  0  0  0  0  0  0  0  0
    2.9110   -8.0108    7.3605 H   0  0  0  0  0  0  0  0  0  0  0  0
    1.9254  -10.6865    7.6743 H   0  0  0  0  0  0  0  0  0  0  0  0
    5.6832  -10.0146    6.1018 H   0  0  0  0  0  0  0  0  0  0  0  0
    4.7529  -10.5148    7.5152 H   0  0  0  0  0  0  0  0  0  0  0  0
    5.1344   -8.8302    7.3144 H   0  0  0  0  0  0  0  0  0  0  0  0
    3.5107  -11.1875    4.5062 H   0  0  0  0  0  0  0  0  0  0  0  0
    2.1000  -11.1585    5.5782 H   0  0  0  0  0  0  0  0  0  0  0  0
    3.6135  -11.7354    6.1624 H   0  0  0  0  0  0  0  0  0  0  0  0
    4.2901   -9.1486    3.9718 H   0  0  0  0  0  0  0  0  0  0  0  0
    4.2148   -6.7032    5.7646 H   0  0  0  0  0  0  0  0  0  0  0  0
    5.6111   -7.7181    5.5046 H   0  0  0  0  0  0  0  0  0  0  0  0
    5.8764   -5.9456    4.0741 H   0  0  0  0  0  0  0  0  0  0  0  0
    5.5669   -7.3995    3.1527 H   0  0  0  0  0  0  0  0  0  0  0  0
    3.0850   -5.0155    4.9171 H   0  0  0  0  0  0  0  0  0  0  0  0
    2.8955   -3.9942    3.5302 H   0  0  0  0  0  0  0  0  0  0  0  0
    4.4602   -4.1421    4.3188 H   0  0  0  0  0  0  0  0  0  0  0  0
    4.1811   -4.7849   -1.1083 H   0  0  0  0  0  0  0  0  0  0  0  0
  1  2  1  0
  1 33  1  0
  1 34  1  0
  1 35  1  0
  2 32  1  0
  2  3  1  0
  2 36  1  1
  3  4  1  0
  3 37  1  0
  3 38  1  0
  4  5  2  0
  4  6  1  0
  6  7  2  0
  6  8  1  0
  8 32  1  0
  8  9  1  1
  8 10  1  0
  9 39  1  0
  9 40  1  0
  9 41  1  0
 10 11  1  0
 10 42  1  0
 10 43  1  0
 11 12  1  0
 11 44  1  0
 11 45  1  0
 12 30  1  0
 12 13  1  6
 12 14  1  0
 13 46  1  0
 13 47  1  0
 13 48  1  0
 14 15  1  0
 14 32  1  0
 14 49  1  1
 15 16  1  0
 15 50  1  0
 15 51  1  0
 16 17  1  0
 16 52  1  0
 16 53  1  0
 17 30  1  0
 17 18  1  0
 17 54  1  1
 18 27  1  0
 18 19  1  6
 18 20  1  0
 19 55  1  0
 19 56  1  0
 19 57  1  0
 20 21  1  0
 20 58  1  0
 20 59  1  0
 21 22  1  0
 21 60  1  0
 21 61  1  0
 22 23  1  0
 22 24  1  0
 22 62  1  1
 23 63  1  0
 24 25  1  0
 24 26  1  0
 24 27  1  0
 25 64  1  0
 25 65  1  0
 25 66  1  0
 26 67  1  0
 26 68  1  0
 26 69  1  0
 27 28  1  0
 27 70  1  6
 28 29  1  0
 28 71  1  0
 28 72  1  0
 29 30  1  0
 29 73  1  0
 29 74  1  0
 30 31  1  1
 31 75  1  0
 31 76  1  0
 31 77  1  0
 32 78  1  6
M  END
>  <i_m_ct_stereo_status>  (325) 
1

>  <s_m_source_file>  (325) 
/var/tmp/pbs.5076255.sched01/tmp4tnmxshi/11480k6dy83.sdf

>  <i_m_source_file_index>  (325) 
32

>  <i_lp_mmshare_version>  (325) 
48012

>  <i_f3d_flags>  (325) 
0

>  <s_epik_input>  (325) 
Tz1DMUMoPU8pW0NIMl1bQ0BASF0oW0NIM10pW0NAQEhdKFtDQF0xMltDSDNdKVtDQEBIXTNbQ0BAXShbQ0gzXSkoW0NIMl1bQ0gyXTIpW0NAQF00KFtDSDNdKVtDQEBIXShbQ0gyXVtDSDJdMylbQ0BAXTUoW0NIM10pW0NAQEhdKFtDSDJdW0NIMl00KUMoW0NIM10pKFtDSDNdKVtDQEhdKFtPSF0pW0NIMl1bQ0gyXTU=

>  <s_epik_cmdline>  (325) 
J2VwaWtfcHl0aG9uJywgJy1waHQnLCAnMi4wJywgJy1waCcsICc3LjAnLCAnLXRuJywgJzgnLCAnLW1hJywgJzIwMCcsICctaW1hZScsICc8aW5maWxlLm1hZT4nLCAnLW9tYWUnLCAnPG91dGZpbGUubWFlPic=

>  <r_lp_tautomer_probability>  (325) 
1

>  <r_epik_Ionization_Penalty>  (325) 
3.17926e-06

>  <r_epik_Ionization_Penalty_Charging>  (325) 
0

>  <r_epik_Ionization_Penalty_Neutral>  (325) 
3.17926e-06

>  <r_epik_State_Penalty>  (325) 
-0

>  <r_epik_Charging_Adjusted_Penalty>  (325) 
0

>  <i_epik_Tot_Q>  (325) 
0

>  <i_epik_Tot_abs_Q>  (325) 
0

>  <s_lp_Force_Field>  (325) 
OPLS3e

>  <r_lp_Energy>  (325) 
113.879

>  <b_lp_Chiralities_Consistent>  (325) 
1

>  <s_lp_Variant>  (325) 
103:0-1

>  <s_i_glide_gridfile>  (325) 
pfpi4k_grid

>  <i_i_glide_lignum>  (325) 
32

>  <i_i_glide_rotatable_bonds>  (325) 
1

>  <r_i_docking_score>  (325) 
-3.47379

>  <r_i_glide_ligand_efficiency>  (325) 
-0.108556

>  <r_i_glide_ligand_efficiency_sa>  (325) 
-0.344643

>  <r_i_glide_ligand_efficiency_ln>  (325) 
-0.777876

>  <r_i_glide_gscore>  (325) 
-3.47379

>  <r_i_glide_lipo>  (325) 
-0.340988

>  <r_i_glide_hbond>  (325) 
-0.32

>  <r_i_glide_metal>  (325) 
-0

>  <r_i_glide_rewards>  (325) 
-0.565692

>  <r_i_glide_evdw>  (325) 
-16.4756

>  <r_i_glide_ecoul>  (325) 
-9.31676

>  <r_i_glide_erotb>  (325) 
0

>  <r_i_glide_esite>  (325) 
-0.0258139

>  <r_i_glide_emodel>  (325) 
-27.6417

>  <r_i_glide_energy>  (325) 
-25.7924

>  <r_i_glide_einternal>  (325) 
0.0668565

>  <r_i_glide_intrahb_reward>  (325) 
-0

>  <i_i_glide_confnum>  (325) 
1

>  <i_i_glide_posenum>  (325) 
10

>  <r_i_glide_eff_state_penalty>  (325) 
0

>  <ligand_id>  (325) 
103

>  <original_smiles>  (325) 
CC1CC(=O)C(=O)C2(C)CCC3(C)C(CCC4C5(C)CCC(O)C(C)(C)C5CCC43C)C12

>  <smiles>  (325) 
[H]OC1([H])C([H])([H])C([H])([H])C2(C([H])([H])[H])C([H])(C([H])([H])C([H])([H])C3(C([H])([H])[H])C2([H])C([H])([H])C([H])([H])C2([H])C4([H])C([H])(C([H])([H])[H])C([H])([H])C(=O)C(=O)C4(C([H])([H])[H])C([H])([H])C([H])([H])C23C([H])([H])[H])C1(C([H])([H])[H])C([H])([H])[H]

$$$$
103:0:1
     RDKit          3D

 78 82  0  0  1  0  0  0  0  0999 V2000
    1.2708   -3.8982   -1.8580 C   0  0  0  0  0  0  0  0  0  0  0  0
    2.5351   -3.2460   -1.3274 C   0  0  2  0  0  0  0  0  0  0  0  0
    3.2859   -2.9017   -2.5995 C   0  0  0  0  0  0  0  0  0  0  0  0
    4.6228   -2.3410   -2.2971 C   0  0  0  0  0  0  0  0  0  0  0  0
    5.2294   -1.9270   -3.2732 O   0  0  0  0  0  0  0  0  0  0  0  0
    5.2612   -2.3670   -0.9132 C   0  0  0  0  0  0  0  0  0  0  0  0
    6.3788   -1.8966   -0.7162 O   0  0  0  0  0  0  0  0  0  0  0  0
    4.4568   -2.9646    0.2500 C   0  0  2  0  0  0  0  0  0  0  0  0
    3.8208   -1.7402    0.9655 C   0  0  0  0  0  0  0  0  0  0  0  0
    5.4506   -3.6820    1.1677 C   0  0  0  0  0  0  0  0  0  0  0  0
    4.7046   -4.3668    2.3078 C   0  0  0  0  0  0  0  0  0  0  0  0
    3.7042   -5.4632    1.8421 C   0  0  2  0  0  0  0  0  0  0  0  0
    4.5873   -6.5541    1.1415 C   0  0  0  0  0  0  0  0  0  0  0  0
    2.7087   -4.8149    0.8248 C   0  0  2  0  0  0  0  0  0  0  0  0
    1.7385   -5.8867    0.2924 C   0  0  0  0  0  0  0  0  0  0  0  0
    1.5173   -7.1285    1.1691 C   0  0  0  0  0  0  0  0  0  0  0  0
    1.6205   -6.9128    2.6779 C   0  0  1  0  0  0  0  0  0  0  0  0
    1.2152   -8.1934    3.5512 C   0  0  2  0  0  0  0  0  0  0  0  0
    0.6459   -9.3325    2.6326 C   0  0  0  0  0  0  0  0  0  0  0  0
    0.0565   -7.7221    4.4537 C   0  0  0  0  0  0  0  0  0  0  0  0
   -0.3650   -8.8414    5.3681 C   0  0  0  0  0  0  0  0  0  0  0  0
    0.6909   -9.3038    6.3437 C   0  0  1  0  0  0  0  0  0  0  0  0
    0.0045  -10.2277    7.1675 O   0  0  0  0  0  0  0  0  0  0  0  0
    1.9130   -9.8505    5.5877 C   0  0  0  0  0  0  0  0  0  0  0  0
    3.0304  -10.0802    6.6415 C   0  0  0  0  0  0  0  0  0  0  0  0
    1.5966  -11.2344    4.9452 C   0  0  0  0  0  0  0  0  0  0  0  0
    2.3517   -8.7945    4.4866 C   0  0  2  0  0  0  0  0  0  0  0  0
    3.1793   -7.6494    5.0882 C   0  0  0  0  0  0  0  0  0  0  0  0
    3.8542   -6.8640    3.9819 C   0  0  0  0  0  0  0  0  0  0  0  0
    2.8885   -6.0530    3.0871 C   0  0  1  0  0  0  0  0  0  0  0  0
    2.3372   -4.8968    3.9722 C   0  0  0  0  0  0  0  0  0  0  0  0
    3.4199   -4.0071   -0.3203 C   0  0  1  0  0  0  0  0  0  0  0  0
    1.3707   -4.8540   -2.2736 H   0  0  0  0  0  0  0  0  0  0  0  0
    0.9465   -3.2119   -2.6264 H   0  0  0  0  0  0  0  0  0  0  0  0
    0.4890   -3.8629   -1.1119 H   0  0  0  0  0  0  0  0  0  0  0  0
    2.1881   -2.2895   -0.9499 H   0  0  0  0  0  0  0  0  0  0  0  0
    3.4895   -3.7509   -3.2529 H   0  0  0  0  0  0  0  0  0  0  0  0
    2.7810   -2.1691   -3.2247 H   0  0  0  0  0  0  0  0  0  0  0  0
    3.0342   -2.0504    1.6500 H   0  0  0  0  0  0  0  0  0  0  0  0
    3.3724   -1.0118    0.2844 H   0  0  0  0  0  0  0  0  0  0  0  0
    4.5689   -1.1811    1.5332 H   0  0  0  0  0  0  0  0  0  0  0  0
    6.0327   -4.3900    0.5754 H   0  0  0  0  0  0  0  0  0  0  0  0
    6.1828   -2.9699    1.5582 H   0  0  0  0  0  0  0  0  0  0  0  0
    5.4535   -4.7717    2.9779 H   0  0  0  0  0  0  0  0  0  0  0  0
    4.1988   -3.5733    2.8440 H   0  0  0  0  0  0  0  0  0  0  0  0
    4.1767   -7.5554    1.1853 H   0  0  0  0  0  0  0  0  0  0  0  0
    5.5620   -6.6390    1.6214 H   0  0  0  0  0  0  0  0  0  0  0  0
    4.7910   -6.3609    0.0903 H   0  0  0  0  0  0  0  0  0  0  0  0
    2.1105   -4.0630    1.3312 H   0  0  0  0  0  0  0  0  0  0  0  0
    0.7660   -5.4523    0.1634 H   0  0  0  0  0  0  0  0  0  0  0  0
    2.0014   -6.2122   -0.7111 H   0  0  0  0  0  0  0  0  0  0  0  0
    0.5326   -7.4936    0.8703 H   0  0  0  0  0  0  0  0  0  0  0  0
    2.2024   -7.9458    0.9572 H   0  0  0  0  0  0  0  0  0  0  0  0
    0.7753   -6.2355    2.7872 H   0  0  0  0  0  0  0  0  0  0  0  0
    0.2308  -10.1877    3.1446 H   0  0  0  0  0  0  0  0  0  0  0  0
    1.4040   -9.7528    1.9736 H   0  0  0  0  0  0  0  0  0  0  0  0
   -0.2089   -9.0109    2.0403 H   0  0  0  0  0  0  0  0  0  0  0  0
    0.3258   -6.8625    5.0615 H   0  0  0  0  0  0  0  0  0  0  0  0
   -0.8155   -7.4470    3.8525 H   0  0  0  0  0  0  0  0  0  0  0  0
   -1.2116   -8.6670    5.9788 H   0  0  0  0  0  0  0  0  0  0  0  0
   -0.7750   -9.5977    4.7288 H   0  0  0  0  0  0  0  0  0  0  0  0
    0.9671   -8.4585    6.9837 H   0  0  0  0  0  0  0  0  0  0  0  0
    0.4978  -11.0574    7.2397 H   0  0  0  0  0  0  0  0  0  0  0  0
    3.9785  -10.3317    6.1698 H   0  0  0  0  0  0  0  0  0  0  0  0
    2.8115  -10.8829    7.3350 H   0  0  0  0  0  0  0  0  0  0  0  0
    3.1571   -9.2138    7.2910 H   0  0  0  0  0  0  0  0  0  0  0  0
    2.1077  -11.3963    3.9984 H   0  0  0  0  0  0  0  0  0  0  0  0
    0.5282  -11.4224    4.8137 H   0  0  0  0  0  0  0  0  0  0  0  0
    1.9305  -12.0404    5.5907 H   0  0  0  0  0  0  0  0  0  0  0  0
    3.0297   -9.3429    3.8400 H   0  0  0  0  0  0  0  0  0  0  0  0
    2.5726   -7.0179    5.7340 H   0  0  0  0  0  0  0  0  0  0  0  0
    3.9947   -8.0228    5.7025 H   0  0  0  0  0  0  0  0  0  0  0  0
    4.5748   -6.1975    4.4476 H   0  0  0  0  0  0  0  0  0  0  0  0
    4.4376   -7.5853    3.4145 H   0  0  0  0  0  0  0  0  0  0  0  0
    1.6628   -5.2557    4.7418 H   0  0  0  0  0  0  0  0  0  0  0  0
    1.7718   -4.1580    3.4078 H   0  0  0  0  0  0  0  0  0  0  0  0
    3.1261   -4.3777    4.5086 H   0  0  0  0  0  0  0  0  0  0  0  0
    3.9829   -4.7164   -0.9449 H   0  0  0  0  0  0  0  0  0  0  0  0
  1  2  1  0
  1 33  1  0
  1 34  1  0
  1 35  1  0
  2 32  1  0
  2  3  1  0
  2 36  1  1
  3  4  1  0
  3 37  1  0
  3 38  1  0
  4  5  2  0
  4  6  1  0
  6  7  2  0
  6  8  1  0
  8 32  1  0
  8  9  1  1
  8 10  1  0
  9 39  1  0
  9 40  1  0
  9 41  1  0
 10 11  1  0
 10 42  1  0
 10 43  1  0
 11 12  1  0
 11 44  1  0
 11 45  1  0
 12 30  1  0
 12 13  1  6
 12 14  1  0
 13 46  1  0
 13 47  1  0
 13 48  1  0
 14 15  1  0
 14 32  1  0
 14 49  1  1
 15 16  1  0
 15 50  1  0
 15 51  1  0
 16 17  1  0
 16 52  1  0
 16 53  1  0
 17 30  1  0
 17 18  1  0
 17 54  1  1
 18 27  1  0
 18 19  1  6
 18 20  1  0
 19 55  1  0
 19 56  1  0
 19 57  1  0
 20 21  1  0
 20 58  1  0
 20 59  1  0
 21 22  1  0
 21 60  1  0
 21 61  1  0
 22 23  1  0
 22 24  1  0
 22 62  1  1
 23 63  1  0
 24 25  1  0
 24 26  1  0
 24 27  1  0
 25 64  1  0
 25 65  1  0
 25 66  1  0
 26 67  1  0
 26 68  1  0
 26 69  1  0
 27 28  1  0
 27 70  1  6
 28 29  1  0
 28 71  1  0
 28 72  1  0
 29 30  1  0
 29 73  1  0
 29 74  1  0
 30 31  1  1
 31 75  1  0
 31 76  1  0
 31 77  1  0
 32 78  1  6
M  END
>  <i_m_ct_stereo_status>  (326) 
1

>  <s_m_source_file>  (326) 
/var/tmp/pbs.5076255.sched01/tmp4tnmxshi/11480k6dy83.sdf

>  <i_m_source_file_index>  (326) 
32

>  <i_lp_mmshare_version>  (326) 
48012

>  <i_f3d_flags>  (326) 
0

>  <s_epik_input>  (326) 
Tz1DMUMoPU8pW0NIMl1bQ0BASF0oW0NIM10pW0NAQEhdKFtDQF0xMltDSDNdKVtDQEBIXTNbQ0BAXShbQ0gzXSkoW0NIMl1bQ0gyXTIpW0NAQF00KFtDSDNdKVtDQEBIXShbQ0gyXVtDSDJdMylbQ0BAXTUoW0NIM10pW0NAQEhdKFtDSDJdW0NIMl00KUMoW0NIM10pKFtDSDNdKVtDQEhdKFtPSF0pW0NIMl1bQ0gyXTU=

>  <s_epik_cmdline>  (326) 
J2VwaWtfcHl0aG9uJywgJy1waHQnLCAnMi4wJywgJy1waCcsICc3LjAnLCAnLXRuJywgJzgnLCAnLW1hJywgJzIwMCcsICctaW1hZScsICc8aW5maWxlLm1hZT4nLCAnLW9tYWUnLCAnPG91dGZpbGUubWFlPic=

>  <r_lp_tautomer_probability>  (326) 
1

>  <r_epik_Ionization_Penalty>  (326) 
3.17926e-06

>  <r_epik_Ionization_Penalty_Charging>  (326) 
0

>  <r_epik_Ionization_Penalty_Neutral>  (326) 
3.17926e-06

>  <r_epik_State_Penalty>  (326) 
-0

>  <r_epik_Charging_Adjusted_Penalty>  (326) 
0

>  <i_epik_Tot_Q>  (326) 
0

>  <i_epik_Tot_abs_Q>  (326) 
0

>  <s_lp_Force_Field>  (326) 
OPLS3e

>  <r_lp_Energy>  (326) 
113.879

>  <b_lp_Chiralities_Consistent>  (326) 
1

>  <s_lp_Variant>  (326) 
103:0-1

>  <s_i_glide_gridfile>  (326) 
pfpi4k_grid

>  <i_i_glide_lignum>  (326) 
32

>  <i_i_glide_rotatable_bonds>  (326) 
1

>  <r_i_docking_score>  (326) 
-2.30466

>  <r_i_glide_ligand_efficiency>  (326) 
-0.0720207

>  <r_i_glide_ligand_efficiency_sa>  (326) 
-0.228651

>  <r_i_glide_ligand_efficiency_ln>  (326) 
-0.516076

>  <r_i_glide_gscore>  (326) 
-2.30466

>  <r_i_glide_lipo>  (326) 
-0.224775

>  <r_i_glide_hbond>  (326) 
-0.279223

>  <r_i_glide_metal>  (326) 
-0

>  <r_i_glide_rewards>  (326) 
-0.491131

>  <r_i_glide_evdw>  (326) 
1.79085

>  <r_i_glide_ecoul>  (326) 
-9.21665

>  <r_i_glide_erotb>  (326) 
0

>  <r_i_glide_esite>  (326) 
-0.0165763

>  <r_i_glide_emodel>  (326) 
-7.227

>  <r_i_glide_energy>  (326) 
-7.4258

>  <r_i_glide_einternal>  (326) 
1.12621

>  <r_i_glide_intrahb_reward>  (326) 
-0

>  <i_i_glide_confnum>  (326) 
2

>  <i_i_glide_posenum>  (326) 
2

>  <r_i_glide_eff_state_penalty>  (326) 
0

>  <ligand_id>  (326) 
103

>  <original_smiles>  (326) 
CC1CC(=O)C(=O)C2(C)CCC3(C)C(CCC4C5(C)CCC(O)C(C)(C)C5CCC43C)C12

>  <smiles>  (326) 
[H]OC1([H])C([H])([H])C([H])([H])C2(C([H])([H])[H])C([H])(C([H])([H])C([H])([H])C3(C([H])([H])[H])C2([H])C([H])([H])C([H])([H])C2([H])C4([H])C([H])(C([H])([H])[H])C([H])([H])C(=O)C(=O)C4(C([H])([H])[H])C([H])([H])C([H])([H])C23C([H])([H])[H])C1(C([H])([H])[H])C([H])([H])[H]

$$$$
103:0:2
     RDKit          3D

 78 82  0  0  1  0  0  0  0  0999 V2000
    1.1720   -4.5692   -1.2494 C   0  0  0  0  0  0  0  0  0  0  0  0
    2.3441   -3.6069   -1.0554 C   0  0  2  0  0  0  0  0  0  0  0  0
    2.6757   -3.0484   -2.4800 C   0  0  0  0  0  0  0  0  0  0  0  0
    3.8906   -2.1216   -2.5528 C   0  0  0  0  0  0  0  0  0  0  0  0
    4.1112   -1.4709   -3.5680 O   0  0  0  0  0  0  0  0  0  0  0  0
    4.8411   -2.0290   -1.3373 C   0  0  0  0  0  0  0  0  0  0  0  0
    5.8193   -1.2984   -1.4009 O   0  0  0  0  0  0  0  0  0  0  0  0
    4.5306   -2.8378   -0.0425 C   0  0  2  0  0  0  0  0  0  0  0  0
    3.8636   -1.8234    0.9223 C   0  0  0  0  0  0  0  0  0  0  0  0
    5.8806   -3.2966    0.5719 C   0  0  0  0  0  0  0  0  0  0  0  0
    5.6799   -4.1056    1.8709 C   0  0  0  0  0  0  0  0  0  0  0  0
    4.8707   -5.4132    1.6716 C   0  0  2  0  0  0  0  0  0  0  0  0
    5.7555   -6.2684    0.7138 C   0  0  0  0  0  0  0  0  0  0  0  0
    3.5058   -5.0064    0.9910 C   0  0  2  0  0  0  0  0  0  0  0  0
    2.7278   -6.2837    0.7195 C   0  0  0  0  0  0  0  0  0  0  0  0
    3.0726   -7.5754    1.4746 C   0  0  0  0  0  0  0  0  0  0  0  0
    3.5277   -7.3603    2.9346 C   0  0  1  0  0  0  0  0  0  0  0  0
    3.6610   -8.6920    3.8534 C   0  0  2  0  0  0  0  0  0  0  0  0
    3.1531   -9.9307    3.0478 C   0  0  0  0  0  0  0  0  0  0  0  0
    2.6972   -8.5261    5.0700 C   0  0  0  0  0  0  0  0  0  0  0  0
    2.7586   -9.6573    6.1073 C   0  0  0  0  0  0  0  0  0  0  0  0
    4.1837   -9.8394    6.6486 C   0  0  1  0  0  0  0  0  0  0  0  0
    4.1821  -10.8729    7.6094 O   0  0  0  0  0  0  0  0  0  0  0  0
    5.2464  -10.0854    5.5447 C   0  0  0  0  0  0  0  0  0  0  0  0
    6.6374  -10.0422    6.2333 C   0  0  0  0  0  0  0  0  0  0  0  0
    5.1316  -11.5291    4.9691 C   0  0  0  0  0  0  0  0  0  0  0  0
    5.1201   -8.9842    4.4055 C   0  0  2  0  0  0  0  0  0  0  0  0
    5.7974   -7.6538    4.8021 C   0  0  0  0  0  0  0  0  0  0  0  0
    5.9483   -6.7393    3.5984 C   0  0  0  0  0  0  0  0  0  0  0  0
    4.6059   -6.1950    3.0509 C   0  0  1  0  0  0  0  0  0  0  0  0
    4.0652   -5.1899    4.1091 C   0  0  0  0  0  0  0  0  0  0  0  0
    3.6508   -4.1036   -0.3152 C   0  0  1  0  0  0  0  0  0  0  0  0
    1.4124   -5.4379   -1.8157 H   0  0  0  0  0  0  0  0  0  0  0  0
    0.4108   -4.0603   -1.8461 H   0  0  0  0  0  0  0  0  0  0  0  0
    0.7635   -5.0265   -0.3654 H   0  0  0  0  0  0  0  0  0  0  0  0
    1.9486   -2.7793   -0.4772 H   0  0  0  0  0  0  0  0  0  0  0  0
    2.8983   -3.8588   -3.1705 H   0  0  0  0  0  0  0  0  0  0  0  0
    1.8147   -2.4982   -2.8874 H   0  0  0  0  0  0  0  0  0  0  0  0
    3.4113   -2.2984    1.7885 H   0  0  0  0  0  0  0  0  0  0  0  0
    3.0874   -1.2231    0.4410 H   0  0  0  0  0  0  0  0  0  0  0  0
    4.5977   -1.1130    1.2950 H   0  0  0  0  0  0  0  0  0  0  0  0
    6.4525   -3.8725   -0.1739 H   0  0  0  0  0  0  0  0  0  0  0  0
    6.4991   -2.4230    0.8068 H   0  0  0  0  0  0  0  0  0  0  0  0
    6.6651   -4.3398    2.2868 H   0  0  0  0  0  0  0  0  0  0  0  0
    5.1768   -3.4532    2.5904 H   0  0  0  0  0  0  0  0  0  0  0  0
    5.6156   -7.3425    0.8218 H   0  0  0  0  0  0  0  0  0  0  0  0
    6.8224   -6.1195    0.8989 H   0  0  0  0  0  0  0  0  0  0  0  0
    5.5947   -6.0422   -0.3366 H   0  0  0  0  0  0  0  0  0  0  0  0
    2.9251   -4.4139    1.6839 H   0  0  0  0  0  0  0  0  0  0  0  0
    1.6803   -6.1308    0.9793 H   0  0  0  0  0  0  0  0  0  0  0  0
    2.8933   -6.4314   -0.3370 H   0  0  0  0  0  0  0  0  0  0  0  0
    2.1577   -8.1589    1.4540 H   0  0  0  0  0  0  0  0  0  0  0  0
    3.7825   -8.1889    0.9203 H   0  0  0  0  0  0  0  0  0  0  0  0
    2.6113   -6.9034    3.3151 H   0  0  0  0  0  0  0  0  0  0  0  0
    3.1114  -10.8420    3.6319 H   0  0  0  0  0  0  0  0  0  0  0  0
    3.7877  -10.1449    2.1826 H   0  0  0  0  0  0  0  0  0  0  0  0
    2.1214   -9.8154    2.7081 H   0  0  0  0  0  0  0  0  0  0  0  0
    2.9253   -7.5976    5.5904 H   0  0  0  0  0  0  0  0  0  0  0  0
    1.6683   -8.4200    4.7142 H   0  0  0  0  0  0  0  0  0  0  0  0
    2.0815   -9.4086    6.9283 H   0  0  0  0  0  0  0  0  0  0  0  0
    2.3705  -10.5853    5.6846 H   0  0  0  0  0  0  0  0  0  0  0  0
    4.4370   -8.9188    7.1780 H   0  0  0  0  0  0  0  0  0  0  0  0
    3.6143  -11.5769    7.2971 H   0  0  0  0  0  0  0  0  0  0  0  0
    7.4406  -10.0647    5.4966 H   0  0  0  0  0  0  0  0  0  0  0  0
    6.7740  -10.8882    6.9056 H   0  0  0  0  0  0  0  0  0  0  0  0
    6.7462   -9.1506    6.8564 H   0  0  0  0  0  0  0  0  0  0  0  0
    5.4065  -11.5658    3.9132 H   0  0  0  0  0  0  0  0  0  0  0  0
    4.1303  -11.9495    5.0817 H   0  0  0  0  0  0  0  0  0  0  0  0
    5.7875  -12.2265    5.4872 H   0  0  0  0  0  0  0  0  0  0  0  0
    5.7049   -9.3548    3.5623 H   0  0  0  0  0  0  0  0  0  0  0  0
    5.2664   -7.1606    5.6146 H   0  0  0  0  0  0  0  0  0  0  0  0
    6.8140   -7.8079    5.1485 H   0  0  0  0  0  0  0  0  0  0  0  0
    6.5888   -5.9039    3.8845 H   0  0  0  0  0  0  0  0  0  0  0  0
    6.5044   -7.3071    2.8510 H   0  0  0  0  0  0  0  0  0  0  0  0
    3.7282   -5.6920    5.0107 H   0  0  0  0  0  0  0  0  0  0  0  0
    3.2098   -4.6192    3.7503 H   0  0  0  0  0  0  0  0  0  0  0  0
    4.8315   -4.4818    4.4221 H   0  0  0  0  0  0  0  0  0  0  0  0
    4.1678   -4.7004   -1.0652 H   0  0  0  0  0  0  0  0  0  0  0  0
  1  2  1  0
  1 33  1  0
  1 34  1  0
  1 35  1  0
  2 32  1  0
  2  3  1  0
  2 36  1  1
  3  4  1  0
  3 37  1  0
  3 38  1  0
  4  5  2  0
  4  6  1  0
  6  7  2  0
  6  8  1  0
  8 32  1  0
  8  9  1  1
  8 10  1  0
  9 39  1  0
  9 40  1  0
  9 41  1  0
 10 11  1  0
 10 42  1  0
 10 43  1  0
 11 12  1  0
 11 44  1  0
 11 45  1  0
 12 30  1  0
 12 13  1  6
 12 14  1  0
 13 46  1  0
 13 47  1  0
 13 48  1  0
 14 15  1  0
 14 32  1  0
 14 49  1  1
 15 16  1  0
 15 50  1  0
 15 51  1  0
 16 17  1  0
 16 52  1  0
 16 53  1  0
 17 30  1  0
 17 18  1  0
 17 54  1  1
 18 27  1  0
 18 19  1  6
 18 20  1  0
 19 55  1  0
 19 56  1  0
 19 57  1  0
 20 21  1  0
 20 58  1  0
 20 59  1  0
 21 22  1  0
 21 60  1  0
 21 61  1  0
 22 23  1  0
 22 24  1  0
 22 62  1  1
 23 63  1  0
 24 25  1  0
 24 26  1  0
 24 27  1  0
 25 64  1  0
 25 65  1  0
 25 66  1  0
 26 67  1  0
 26 68  1  0
 26 69  1  0
 27 28  1  0
 27 70  1  6
 28 29  1  0
 28 71  1  0
 28 72  1  0
 29 30  1  0
 29 73  1  0
 29 74  1  0
 30 31  1  1
 31 75  1  0
 31 76  1  0
 31 77  1  0
 32 78  1  6
M  END
>  <i_m_ct_stereo_status>  (327) 
1

>  <s_m_source_file>  (327) 
/var/tmp/pbs.5076255.sched01/tmp4tnmxshi/11480k6dy83.sdf

>  <i_m_source_file_index>  (327) 
32

>  <i_lp_mmshare_version>  (327) 
48012

>  <i_f3d_flags>  (327) 
0

>  <s_epik_input>  (327) 
Tz1DMUMoPU8pW0NIMl1bQ0BASF0oW0NIM10pW0NAQEhdKFtDQF0xMltDSDNdKVtDQEBIXTNbQ0BAXShbQ0gzXSkoW0NIMl1bQ0gyXTIpW0NAQF00KFtDSDNdKVtDQEBIXShbQ0gyXVtDSDJdMylbQ0BAXTUoW0NIM10pW0NAQEhdKFtDSDJdW0NIMl00KUMoW0NIM10pKFtDSDNdKVtDQEhdKFtPSF0pW0NIMl1bQ0gyXTU=

>  <s_epik_cmdline>  (327) 
J2VwaWtfcHl0aG9uJywgJy1waHQnLCAnMi4wJywgJy1waCcsICc3LjAnLCAnLXRuJywgJzgnLCAnLW1hJywgJzIwMCcsICctaW1hZScsICc8aW5maWxlLm1hZT4nLCAnLW9tYWUnLCAnPG91dGZpbGUubWFlPic=

>  <r_lp_tautomer_probability>  (327) 
1

>  <r_epik_Ionization_Penalty>  (327) 
3.17926e-06

>  <r_epik_Ionization_Penalty_Charging>  (327) 
0

>  <r_epik_Ionization_Penalty_Neutral>  (327) 
3.17926e-06

>  <r_epik_State_Penalty>  (327) 
-0

>  <r_epik_Charging_Adjusted_Penalty>  (327) 
0

>  <i_epik_Tot_Q>  (327) 
0

>  <i_epik_Tot_abs_Q>  (327) 
0

>  <s_lp_Force_Field>  (327) 
OPLS3e

>  <r_lp_Energy>  (327) 
113.879

>  <b_lp_Chiralities_Consistent>  (327) 
1

>  <s_lp_Variant>  (327) 
103:0-1

>  <s_i_glide_gridfile>  (327) 
pfpi4k_grid

>  <i_i_glide_lignum>  (327) 
32

>  <i_i_glide_rotatable_bonds>  (327) 
1

>  <r_i_docking_score>  (327) 
-2.08474

>  <r_i_glide_ligand_efficiency>  (327) 
-0.0651481

>  <r_i_glide_ligand_efficiency_sa>  (327) 
-0.206832

>  <r_i_glide_ligand_efficiency_ln>  (327) 
-0.46683

>  <r_i_glide_gscore>  (327) 
-2.08474

>  <r_i_glide_lipo>  (327) 
-0.250932

>  <r_i_glide_hbond>  (327) 
-0.0805994

>  <r_i_glide_metal>  (327) 
-0

>  <r_i_glide_rewards>  (327) 
-0.390861

>  <r_i_glide_evdw>  (327) 
-10.996

>  <r_i_glide_ecoul>  (327) 
-5.22466

>  <r_i_glide_erotb>  (327) 
0

>  <r_i_glide_esite>  (327) 
-0.0288473

>  <r_i_glide_emodel>  (327) 
-16.6136

>  <r_i_glide_energy>  (327) 
-16.2207

>  <r_i_glide_einternal>  (327) 
0.280734

>  <r_i_glide_intrahb_reward>  (327) 
-0

>  <i_i_glide_confnum>  (327) 
1

>  <i_i_glide_posenum>  (327) 
6

>  <r_i_glide_eff_state_penalty>  (327) 
0

>  <ligand_id>  (327) 
103

>  <original_smiles>  (327) 
CC1CC(=O)C(=O)C2(C)CCC3(C)C(CCC4C5(C)CCC(O)C(C)(C)C5CCC43C)C12

>  <smiles>  (327) 
[H]OC1([H])C([H])([H])C([H])([H])C2(C([H])([H])[H])C([H])(C([H])([H])C([H])([H])C3(C([H])([H])[H])C2([H])C([H])([H])C([H])([H])C2([H])C4([H])C([H])(C([H])([H])[H])C([H])([H])C(=O)C(=O)C4(C([H])([H])[H])C([H])([H])C([H])([H])C23C([H])([H])[H])C1(C([H])([H])[H])C([H])([H])[H]

$$$$
104:0:0
     RDKit          3D

 73 79  0  0  1  0  0  0  0  0999 V2000
    7.3530   -3.6585    0.1255 C   0  0  0  0  0  0  0  0  0  0  0  0
    5.8702   -3.8139    0.5264 C   0  0  2  0  0  0  0  0  0  0  0  0
    5.5572   -2.9057    1.7322 C   0  0  0  0  0  0  0  0  0  0  0  0
    6.2253   -1.8980    1.8890 O   0  0  0  0  0  0  0  0  0  0  0  0
    4.4793   -3.1878    2.5134 N   0  0  0  0  0  0  0  0  0  0  0  0
    3.9615   -2.1700    3.4824 C   0  0  2  0  0  0  0  0  0  0  0  0
    2.6536   -2.5848    4.2232 C   0  0  2  0  0  0  0  0  0  0  0  0
    1.5001   -2.7006    3.1899 C   0  0  0  0  0  0  0  0  0  0  0  0
    1.3001   -1.3363    2.5082 C   0  0  1  0  0  0  0  0  0  0  0  0
    0.8791   -0.3192    3.5827 C   0  0  0  0  0  0  0  0  0  0  0  0
    2.0092   -0.1852    4.6261 C   0  0  1  0  0  0  0  0  0  0  0  0
    2.2632   -1.5487    5.2889 C   0  0  0  0  0  0  0  0  0  0  0  0
    3.3042    0.2624    3.9314 C   0  0  0  0  0  0  0  0  0  0  0  0
    3.6965   -0.7525    2.8443 C   0  0  2  0  0  0  0  0  0  0  0  0
    2.5758   -0.8634    1.7993 C   0  0  0  0  0  0  0  0  0  0  0  0
    4.1497   -4.6037    2.6850 C   0  0  0  0  0  0  0  0  0  0  0  0
    4.0523   -5.4075    1.3517 C   0  0  2  0  0  0  0  0  0  0  0  0
    2.8252   -5.0405    0.4804 C   0  0  0  0  0  0  0  0  0  0  0  0
    1.5594   -5.4657    1.0036 O   0  0  0  0  0  0  0  0  0  0  0  0
    1.5110   -6.4701    1.9536 C   0  0  0  0  0  0  0  0  0  0  0  0
    2.6023   -7.1893    2.3031 C   0  0  0  0  0  0  0  0  0  0  0  0
    2.4613   -8.2452    3.3399 C   0  0  0  0  0  0  0  0  0  0  0  0
    3.4135   -8.8391    3.8395 O   0  0  0  0  0  0  0  0  0  0  0  0
    1.0201   -8.6076    3.7403 C   0  0  1  0  0  0  0  0  0  0  0  0
    0.4685   -9.6550    2.7587 C   0  0  0  0  0  0  0  0  0  0  0  0
    0.9903   -9.2180    5.0203 O   0  0  0  0  0  0  0  0  0  0  0  0
    0.1743   -7.2903    3.7819 C   0  0  0  0  0  0  0  0  0  0  0  0
   -1.3402   -7.5528    3.9324 C   0  0  0  0  0  0  0  0  0  0  0  0
    0.6312   -6.2999    4.8897 C   0  0  0  0  0  0  0  0  0  0  0  0
    0.2692   -6.6044    2.5364 O   0  0  0  0  0  0  0  0  0  0  0  0
    3.9496   -6.9040    1.6179 C   0  0  2  0  0  0  0  0  0  0  0  0
    5.3130   -7.2323    2.2366 C   0  0  0  0  0  0  0  0  0  0  0  0
    6.2867   -6.2461    1.5194 C   0  0  0  0  0  0  0  0  0  0  0  0
    5.4159   -5.2904    0.6673 C   0  0  2  0  0  0  0  0  0  0  0  0
    7.5785   -2.6212   -0.1455 H   0  0  0  0  0  0  0  0  0  0  0  0
    7.5922   -4.2600   -0.7360 H   0  0  0  0  0  0  0  0  0  0  0  0
    8.0231   -3.9319    0.9430 H   0  0  0  0  0  0  0  0  0  0  0  0
    5.2731   -3.3718   -0.2747 H   0  0  0  0  0  0  0  0  0  0  0  0
    4.7386   -2.0583    4.2389 H   0  0  0  0  0  0  0  0  0  0  0  0
    2.7828   -3.5021    4.8072 H   0  0  0  0  0  0  0  0  0  0  0  0
    1.7235   -3.4096    2.4070 H   0  0  0  0  0  0  0  0  0  0  0  0
    0.5819   -3.0656    3.6556 H   0  0  0  0  0  0  0  0  0  0  0  0
    0.5516   -1.4263    1.7310 H   0  0  0  0  0  0  0  0  0  0  0  0
    0.6583    0.6420    3.1192 H   0  0  0  0  0  0  0  0  0  0  0  0
   -0.0341   -0.6735    4.0651 H   0  0  0  0  0  0  0  0  0  0  0  0
    1.7278    0.5430    5.3843 H   0  0  0  0  0  0  0  0  0  0  0  0
    1.3654   -1.8891    5.8109 H   0  0  0  0  0  0  0  0  0  0  0  0
    3.0533   -1.4771    6.0401 H   0  0  0  0  0  0  0  0  0  0  0  0
    3.1829    1.2509    3.4833 H   0  0  0  0  0  0  0  0  0  0  0  0
    4.1177    0.3491    4.6550 H   0  0  0  0  0  0  0  0  0  0  0  0
    4.5496   -0.2810    2.3570 H   0  0  0  0  0  0  0  0  0  0  0  0
    2.8518   -1.5563    1.0052 H   0  0  0  0  0  0  0  0  0  0  0  0
    2.4104    0.0945    1.3033 H   0  0  0  0  0  0  0  0  0  0  0  0
    4.9104   -4.9677    3.3856 H   0  0  0  0  0  0  0  0  0  0  0  0
    3.2071   -4.7950    3.1920 H   0  0  0  0  0  0  0  0  0  0  0  0
    2.7736   -3.9664    0.2921 H   0  0  0  0  0  0  0  0  0  0  0  0
    2.9095   -5.5048   -0.5002 H   0  0  0  0  0  0  0  0  0  0  0  0
    0.3596   -9.2295    1.7615 H   0  0  0  0  0  0  0  0  0  0  0  0
   -0.5089  -10.0368    3.0601 H   0  0  0  0  0  0  0  0  0  0  0  0
    1.1305  -10.5210    2.6706 H   0  0  0  0  0  0  0  0  0  0  0  0
    0.1327   -9.5925    5.1587 H   0  0  0  0  0  0  0  0  0  0  0  0
   -1.5817   -8.1464    4.8113 H   0  0  0  0  0  0  0  0  0  0  0  0
   -1.7337   -8.0612    3.0523 H   0  0  0  0  0  0  0  0  0  0  0  0
   -1.8776   -6.6120    4.0081 H   0  0  0  0  0  0  0  0  0  0  0  0
    0.5018   -6.7107    5.8902 H   0  0  0  0  0  0  0  0  0  0  0  0
    0.0628   -5.3737    4.8339 H   0  0  0  0  0  0  0  0  0  0  0  0
    1.6824   -6.0210    4.7921 H   0  0  0  0  0  0  0  0  0  0  0  0
    3.8977   -7.4270    0.6596 H   0  0  0  0  0  0  0  0  0  0  0  0
    5.3241   -7.0637    3.3146 H   0  0  0  0  0  0  0  0  0  0  0  0
    5.5960   -8.2709    2.0813 H   0  0  0  0  0  0  0  0  0  0  0  0
    6.8887   -5.7124    2.2636 H   0  0  0  0  0  0  0  0  0  0  0  0
    6.9843   -6.7835    0.8732 H   0  0  0  0  0  0  0  0  0  0  0  0
    5.3270   -5.7007   -0.3334 H   0  0  0  0  0  0  0  0  0  0  0  0
  1  2  1  0
  1 35  1  0
  1 36  1  0
  1 37  1  0
  2 34  1  0
  2  3  1  0
  2 38  1  6
  3  4  2  0
  3  5  1  0
  5  6  1  0
  5 16  1  0
  6 14  1  0
  6  7  1  0
  6 39  1  1
  7 12  1  0
  7  8  1  0
  7 40  1  1
  8  9  1  0
  8 41  1  0
  8 42  1  0
  9 15  1  0
  9 10  1  0
  9 43  1  6
 10 11  1  0
 10 44  1  0
 10 45  1  0
 11 12  1  0
 11 13  1  0
 11 46  1  1
 12 47  1  0
 12 48  1  0
 13 14  1  0
 13 49  1  0
 13 50  1  0
 14 15  1  0
 14 51  1  6
 15 52  1  0
 15 53  1  0
 17 16  1  1
 16 54  1  0
 16 55  1  0
 17 31  1  0
 17 34  1  0
 17 18  1  0
 18 19  1  0
 18 56  1  0
 18 57  1  0
 19 20  1  0
 20 30  1  0
 20 21  2  0
 21 22  1  0
 21 31  1  0
 22 23  2  0
 22 24  1  0
 24 25  1  0
 24 26  1  1
 24 27  1  0
 25 58  1  0
 25 59  1  0
 25 60  1  0
 26 61  1  0
 27 28  1  0
 27 29  1  0
 27 30  1  0
 28 62  1  0
 28 63  1  0
 28 64  1  0
 29 65  1  0
 29 66  1  0
 29 67  1  0
 31 32  1  0
 31 68  1  6
 32 33  1  0
 32 69  1  0
 32 70  1  0
 33 34  1  0
 33 71  1  0
 33 72  1  0
 34 73  1  6
M  END
>  <i_m_ct_stereo_status>  (328) 
1

>  <s_m_source_file>  (328) 
/var/tmp/pbs.5076255.sched01/tmp4tnmxshi/11480k6dy83.sdf

>  <i_m_source_file_index>  (328) 
33

>  <i_lp_mmshare_version>  (328) 
48012

>  <i_f3d_flags>  (328) 
0

>  <s_epik_input>  (328) 
W0NIMl0xW0NASF0oW0NIMl0yKVtDSDJdW0NAQEhdKFtDSDJdMylbQ0gyXVtDQEhdMltDQEBIXShbQ0BIXTEzKU4oW0NIMl00KUMoPU8pW0NAQEhdKFtDSDNdKVtDQEhdNVtDSDJdW0NIMl1bQ0BIXShbQ0BAXTQ1NilDNz1DKE9bQ0gyXTYpT0MoW0NIM10pKFtDSDNdKVtDQF0oQzc9TykoW0NIM10pW09IXQ==

>  <s_epik_cmdline>  (328) 
J2VwaWtfcHl0aG9uJywgJy1waHQnLCAnMi4wJywgJy1waCcsICc3LjAnLCAnLXRuJywgJzgnLCAnLW1hJywgJzIwMCcsICctaW1hZScsICc8aW5maWxlLm1hZT4nLCAnLW9tYWUnLCAnPG91dGZpbGUubWFlPic=

>  <r_lp_tautomer_probability>  (328) 
1

>  <r_epik_Ionization_Penalty>  (328) 
4.52717e-05

>  <r_epik_Ionization_Penalty_Charging>  (328) 
0

>  <r_epik_Ionization_Penalty_Neutral>  (328) 
4.52717e-05

>  <r_epik_State_Penalty>  (328) 
-0

>  <r_epik_Charging_Adjusted_Penalty>  (328) 
0

>  <i_epik_Tot_Q>  (328) 
0

>  <i_epik_Tot_abs_Q>  (328) 
0

>  <s_lp_Force_Field>  (328) 
OPLS3e

>  <r_lp_Energy>  (328) 
52.8944

>  <b_lp_Chiralities_Consistent>  (328) 
1

>  <s_lp_Variant>  (328) 
104:0-1

>  <s_i_glide_gridfile>  (328) 
pfpi4k_grid

>  <i_i_glide_lignum>  (328) 
33

>  <i_i_glide_rotatable_bonds>  (328) 
2

>  <r_i_docking_score>  (328) 
-3.02551

>  <r_i_glide_ligand_efficiency>  (328) 
-0.0889855

>  <r_i_glide_ligand_efficiency_sa>  (328) 
-0.288278

>  <r_i_glide_ligand_efficiency_ln>  (328) 
-0.668419

>  <r_i_glide_gscore>  (328) 
-3.02551

>  <r_i_glide_lipo>  (328) 
-0.553144

>  <r_i_glide_hbond>  (328) 
-0.190864

>  <r_i_glide_metal>  (328) 
-0

>  <r_i_glide_rewards>  (328) 
-0.310336

>  <r_i_glide_evdw>  (328) 
-30.5295

>  <r_i_glide_ecoul>  (328) 
-3.54679

>  <r_i_glide_erotb>  (328) 
0.0915896

>  <r_i_glide_esite>  (328) 
-0.00425937

>  <r_i_glide_emodel>  (328) 
-39.2581

>  <r_i_glide_energy>  (328) 
-34.0762

>  <r_i_glide_einternal>  (328) 
1.09914

>  <r_i_glide_intrahb_reward>  (328) 
-0

>  <i_i_glide_confnum>  (328) 
2

>  <i_i_glide_posenum>  (328) 
37

>  <r_i_glide_eff_state_penalty>  (328) 
0

>  <ligand_id>  (328) 
104

>  <original_smiles>  (328) 
CC1C(=O)N(C2C3CC4CC(C3)CC2C4)CC23COC4=C(C(=O)C(C)(O)C(C)(C)O4)C2CCC13

>  <smiles>  (328) 
[H]OC1(C([H])([H])[H])C(=O)C2=C(OC([H])([H])C34C([H])([H])N(C5([H])C6([H])C([H])([H])C7([H])C([H])([H])C([H])(C6([H])[H])C([H])([H])C5([H])C7([H])[H])C(=O)C([H])(C([H])([H])[H])C3([H])C([H])([H])C([H])([H])C24[H])OC1(C([H])([H])[H])C([H])([H])[H]

$$$$
104:0:1
     RDKit          3D

 73 79  0  0  1  0  0  0  0  0999 V2000
    7.5036   -3.1138   -0.4240 C   0  0  0  0  0  0  0  0  0  0  0  0
    6.0675   -3.3148    0.0989 C   0  0  2  0  0  0  0  0  0  0  0  0
    5.8188   -2.4197    1.3361 C   0  0  0  0  0  0  0  0  0  0  0  0
    6.4908   -1.3985    1.4647 O   0  0  0  0  0  0  0  0  0  0  0  0
    4.8034   -2.7373    2.1803 N   0  0  0  0  0  0  0  0  0  0  0  0
    4.3083   -1.7597    3.1857 C   0  0  2  0  0  0  0  0  0  0  0  0
    3.1356   -2.2723    4.0746 C   0  0  2  0  0  0  0  0  0  0  0  0
    1.8741   -2.5056    3.1955 C   0  0  0  0  0  0  0  0  0  0  0  0
    1.4643   -1.1823    2.5360 C   0  0  1  0  0  0  0  0  0  0  0  0
    1.1038   -0.1804    3.6448 C   0  0  0  0  0  0  0  0  0  0  0  0
    2.3443    0.0702    4.5309 C   0  0  1  0  0  0  0  0  0  0  0  0
    2.7950   -1.2519    5.1762 C   0  0  0  0  0  0  0  0  0  0  0  0
    3.5061    0.6107    3.6780 C   0  0  0  0  0  0  0  0  0  0  0  0
    3.8485   -0.3951    2.5609 C   0  0  2  0  0  0  0  0  0  0  0  0
    2.6119   -0.6216    1.6735 C   0  0  0  0  0  0  0  0  0  0  0  0
    4.5307   -4.1747    2.3734 C   0  0  0  0  0  0  0  0  0  0  0  0
    4.3693   -4.9791    1.0467 C   0  0  2  0  0  0  0  0  0  0  0  0
    3.0659   -4.6548    0.2684 C   0  0  0  0  0  0  0  0  0  0  0  0
    1.8604   -5.1311    0.8842 O   0  0  0  0  0  0  0  0  0  0  0  0
    1.9225   -6.1361    1.8238 C   0  0  0  0  0  0  0  0  0  0  0  0
    3.0692   -6.8297    2.0890 C   0  0  0  0  0  0  0  0  0  0  0  0
    3.0313   -7.8896    3.1168 C   0  0  0  0  0  0  0  0  0  0  0  0
    4.0388   -8.4536    3.5574 O   0  0  0  0  0  0  0  0  0  0  0  0
    1.6353   -8.2979    3.6191 C   0  0  1  0  0  0  0  0  0  0  0  0
    1.0546   -9.3647    2.6688 C   0  0  0  0  0  0  0  0  0  0  0  0
    1.7183   -8.9177    4.8913 O   0  0  0  0  0  0  0  0  0  0  0  0
    0.7507   -7.0121    3.7329 C   0  0  0  0  0  0  0  0  0  0  0  0
   -0.7385   -7.3288    3.9930 C   0  0  0  0  0  0  0  0  0  0  0  0
    1.2512   -6.0117    4.8131 C   0  0  0  0  0  0  0  0  0  0  0  0
    0.7308   -6.3152    2.4886 O   0  0  0  0  0  0  0  0  0  0  0  0
    4.3415   -6.4808    1.3104 C   0  0  2  0  0  0  0  0  0  0  0  0
    5.7616   -6.7613    1.8253 C   0  0  0  0  0  0  0  0  0  0  0  0
    6.6416   -5.7355    1.0446 C   0  0  0  0  0  0  0  0  0  0  0  0
    5.6681   -4.8049    0.2708 C   0  0  2  0  0  0  0  0  0  0  0  0
    7.6719   -2.0692   -0.6990 H   0  0  0  0  0  0  0  0  0  0  0  0
    7.6924   -3.7186   -1.3047 H   0  0  0  0  0  0  0  0  0  0  0  0
    8.2426   -3.3608    0.3414 H   0  0  0  0  0  0  0  0  0  0  0  0
    5.3934   -2.8967   -0.6518 H   0  0  0  0  0  0  0  0  0  0  0  0
    5.1557   -1.5607    3.8455 H   0  0  0  0  0  0  0  0  0  0  0  0
    3.4286   -3.1708    4.6289 H   0  0  0  0  0  0  0  0  0  0  0  0
    2.0459   -3.2016    2.3840 H   0  0  0  0  0  0  0  0  0  0  0  0
    1.0597   -2.9339    3.7850 H   0  0  0  0  0  0  0  0  0  0  0  0
    0.6147   -1.3649    1.8819 H   0  0  0  0  0  0  0  0  0  0  0  0
    0.7418    0.7486    3.2026 H   0  0  0  0  0  0  0  0  0  0  0  0
    0.2937   -0.5979    4.2437 H   0  0  0  0  0  0  0  0  0  0  0  0
    2.0947    0.7893    5.3108 H   0  0  0  0  0  0  0  0  0  0  0  0
    2.0031   -1.6513    5.8126 H   0  0  0  0  0  0  0  0  0  0  0  0
    3.6589   -1.0916    5.8252 H   0  0  0  0  0  0  0  0  0  0  0  0
    3.2427    1.5767    3.2410 H   0  0  0  0  0  0  0  0  0  0  0  0
    4.3859    0.7883    4.2992 H   0  0  0  0  0  0  0  0  0  0  0  0
    4.6197    0.0876    1.9592 H   0  0  0  0  0  0  0  0  0  0  0  0
    2.8524   -1.3050    0.8589 H   0  0  0  0  0  0  0  0  0  0  0  0
    2.3115    0.3098    1.1898 H   0  0  0  0  0  0  0  0  0  0  0  0
    5.3745   -4.5088    2.9899 H   0  0  0  0  0  0  0  0  0  0  0  0
    3.6692   -4.4187    2.9735 H   0  0  0  0  0  0  0  0  0  0  0  0
    2.9594   -3.5836    0.0925 H   0  0  0  0  0  0  0  0  0  0  0  0
    3.1012   -5.1073   -0.7029 H   0  0  0  0  0  0  0  0  0  0  0  0
    0.8536   -8.9535    1.6849 H   0  0  0  0  0  0  0  0  0  0  0  0
    0.1204   -9.7801    3.0498 H   0  0  0  0  0  0  0  0  0  0  0  0
    1.7385  -10.2063    2.5383 H   0  0  0  0  0  0  0  0  0  0  0  0
    2.1316   -9.7648    4.7833 H   0  0  0  0  0  0  0  0  0  0  0  0
   -0.8891   -7.9350    4.8878 H   0  0  0  0  0  0  0  0  0  0  0  0
   -1.1761   -7.8570    3.1474 H   0  0  0  0  0  0  0  0  0  0  0  0
   -1.3056   -6.4073    4.1134 H   0  0  0  0  0  0  0  0  0  0  0  0
    1.2074   -6.4321    5.8201 H   0  0  0  0  0  0  0  0  0  0  0  0
    0.6419   -5.1085    4.8099 H   0  0  0  0  0  0  0  0  0  0  0  0
    2.2805   -5.6896    4.6431 H   0  0  0  0  0  0  0  0  0  0  0  0
    4.2429   -7.0078    0.3546 H   0  0  0  0  0  0  0  0  0  0  0  0
    5.8408   -6.5915    2.9006 H   0  0  0  0  0  0  0  0  0  0  0  0
    6.0697   -7.7889    1.6479 H   0  0  0  0  0  0  0  0  0  0  0  0
    7.2760   -5.1828    1.7466 H   0  0  0  0  0  0  0  0  0  0  0  0
    7.3055   -6.2477    0.3449 H   0  0  0  0  0  0  0  0  0  0  0  0
    5.5259   -5.2207   -0.7269 H   0  0  0  0  0  0  0  0  0  0  0  0
  1  2  1  0
  1 35  1  0
  1 36  1  0
  1 37  1  0
  2 34  1  0
  2  3  1  0
  2 38  1  6
  3  4  2  0
  3  5  1  0
  5  6  1  0
  5 16  1  0
  6 14  1  0
  6  7  1  0
  6 39  1  1
  7 12  1  0
  7  8  1  0
  7 40  1  1
  8  9  1  0
  8 41  1  0
  8 42  1  0
  9 15  1  0
  9 10  1  0
  9 43  1  6
 10 11  1  0
 10 44  1  0
 10 45  1  0
 11 12  1  0
 11 13  1  0
 11 46  1  1
 12 47  1  0
 12 48  1  0
 13 14  1  0
 13 49  1  0
 13 50  1  0
 14 15  1  0
 14 51  1  6
 15 52  1  0
 15 53  1  0
 17 16  1  1
 16 54  1  0
 16 55  1  0
 17 31  1  0
 17 34  1  0
 17 18  1  0
 18 19  1  0
 18 56  1  0
 18 57  1  0
 19 20  1  0
 20 30  1  0
 20 21  2  0
 21 22  1  0
 21 31  1  0
 22 23  2  0
 22 24  1  0
 24 25  1  0
 24 26  1  1
 24 27  1  0
 25 58  1  0
 25 59  1  0
 25 60  1  0
 26 61  1  0
 27 28  1  0
 27 29  1  0
 27 30  1  0
 28 62  1  0
 28 63  1  0
 28 64  1  0
 29 65  1  0
 29 66  1  0
 29 67  1  0
 31 32  1  0
 31 68  1  6
 32 33  1  0
 32 69  1  0
 32 70  1  0
 33 34  1  0
 33 71  1  0
 33 72  1  0
 34 73  1  6
M  END
>  <i_m_ct_stereo_status>  (329) 
1

>  <s_m_source_file>  (329) 
/var/tmp/pbs.5076255.sched01/tmp4tnmxshi/11480k6dy83.sdf

>  <i_m_source_file_index>  (329) 
33

>  <i_lp_mmshare_version>  (329) 
48012

>  <i_f3d_flags>  (329) 
0

>  <s_epik_input>  (329) 
W0NIMl0xW0NASF0oW0NIMl0yKVtDSDJdW0NAQEhdKFtDSDJdMylbQ0gyXVtDQEhdMltDQEBIXShbQ0BIXTEzKU4oW0NIMl00KUMoPU8pW0NAQEhdKFtDSDNdKVtDQEhdNVtDSDJdW0NIMl1bQ0BIXShbQ0BAXTQ1NilDNz1DKE9bQ0gyXTYpT0MoW0NIM10pKFtDSDNdKVtDQF0oQzc9TykoW0NIM10pW09IXQ==

>  <s_epik_cmdline>  (329) 
J2VwaWtfcHl0aG9uJywgJy1waHQnLCAnMi4wJywgJy1waCcsICc3LjAnLCAnLXRuJywgJzgnLCAnLW1hJywgJzIwMCcsICctaW1hZScsICc8aW5maWxlLm1hZT4nLCAnLW9tYWUnLCAnPG91dGZpbGUubWFlPic=

>  <r_lp_tautomer_probability>  (329) 
1

>  <r_epik_Ionization_Penalty>  (329) 
4.52717e-05

>  <r_epik_Ionization_Penalty_Charging>  (329) 
0

>  <r_epik_Ionization_Penalty_Neutral>  (329) 
4.52717e-05

>  <r_epik_State_Penalty>  (329) 
-0

>  <r_epik_Charging_Adjusted_Penalty>  (329) 
0

>  <i_epik_Tot_Q>  (329) 
0

>  <i_epik_Tot_abs_Q>  (329) 
0

>  <s_lp_Force_Field>  (329) 
OPLS3e

>  <r_lp_Energy>  (329) 
52.8944

>  <b_lp_Chiralities_Consistent>  (329) 
1

>  <s_lp_Variant>  (329) 
104:0-1

>  <s_i_glide_gridfile>  (329) 
pfpi4k_grid

>  <i_i_glide_lignum>  (329) 
33

>  <i_i_glide_rotatable_bonds>  (329) 
2

>  <r_i_docking_score>  (329) 
-2.9835

>  <r_i_glide_ligand_efficiency>  (329) 
-0.08775

>  <r_i_glide_ligand_efficiency_sa>  (329) 
-0.284276

>  <r_i_glide_ligand_efficiency_ln>  (329) 
-0.659139

>  <r_i_glide_gscore>  (329) 
-2.9835

>  <r_i_glide_lipo>  (329) 
-0.666804

>  <r_i_glide_hbond>  (329) 
-0.077692

>  <r_i_glide_metal>  (329) 
-0

>  <r_i_glide_rewards>  (329) 
-0.389667

>  <r_i_glide_evdw>  (329) 
-32.6775

>  <r_i_glide_ecoul>  (329) 
-2.03462

>  <r_i_glide_erotb>  (329) 
0.0915896

>  <r_i_glide_esite>  (329) 
-0.00186214

>  <r_i_glide_emodel>  (329) 
-39.8535

>  <r_i_glide_energy>  (329) 
-34.7121

>  <r_i_glide_einternal>  (329) 
1.79778

>  <r_i_glide_intrahb_reward>  (329) 
-0

>  <i_i_glide_confnum>  (329) 
4

>  <i_i_glide_posenum>  (329) 
36

>  <r_i_glide_eff_state_penalty>  (329) 
0

>  <ligand_id>  (329) 
104

>  <original_smiles>  (329) 
CC1C(=O)N(C2C3CC4CC(C3)CC2C4)CC23COC4=C(C(=O)C(C)(O)C(C)(C)O4)C2CCC13

>  <smiles>  (329) 
[H]OC1(C([H])([H])[H])C(=O)C2=C(OC([H])([H])C34C([H])([H])N(C5([H])C6([H])C([H])([H])C7([H])C([H])([H])C([H])(C6([H])[H])C([H])([H])C5([H])C7([H])[H])C(=O)C([H])(C([H])([H])[H])C3([H])C([H])([H])C([H])([H])C24[H])OC1(C([H])([H])[H])C([H])([H])[H]

$$$$
104:0:2
     RDKit          3D

 73 79  0  0  1  0  0  0  0  0999 V2000
    5.4005   -0.9227   -1.6561 C   0  0  0  0  0  0  0  0  0  0  0  0
    4.3047   -1.7172   -0.9962 C   0  0  2  0  0  0  0  0  0  0  0  0
    3.8865   -1.0754    0.3509 C   0  0  0  0  0  0  0  0  0  0  0  0
    4.1206    0.1077    0.5828 O   0  0  0  0  0  0  0  0  0  0  0  0
    3.2189   -1.8846    1.2175 N   0  0  0  0  0  0  0  0  0  0  0  0
    2.6518   -1.2888    2.4517 C   0  0  2  0  0  0  0  0  0  0  0  0
    3.6188   -1.4052    3.6581 C   0  0  2  0  0  0  0  0  0  0  0  0
    3.8209   -2.8859    4.0537 C   0  0  0  0  0  0  0  0  0  0  0  0
    2.4199   -3.4957    4.3466 C   0  0  1  0  0  0  0  0  0  0  0  0
    1.8506   -2.8129    5.5829 C   0  0  0  0  0  0  0  0  0  0  0  0
    1.6553   -1.3237    5.2531 C   0  0  1  0  0  0  0  0  0  0  0  0
    3.0224   -0.6992    4.8984 C   0  0  0  0  0  0  0  0  0  0  0  0
    0.6898   -1.1450    4.0608 C   0  0  0  0  0  0  0  0  0  0  0  0
    1.2643   -1.8635    2.8175 C   0  0  2  0  0  0  0  0  0  0  0  0
    1.3695   -3.3561    3.1784 C   0  0  0  0  0  0  0  0  0  0  0  0
    3.6241   -3.3025    1.1730 C   0  0  0  0  0  0  0  0  0  0  0  0
    3.6266   -4.0183   -0.1479 C   0  0  2  0  0  0  0  0  0  0  0  0
    2.1977   -4.2314   -0.6563 C   0  0  0  0  0  0  0  0  0  0  0  0
    1.4379   -5.2341    0.0502 O   0  0  0  0  0  0  0  0  0  0  0  0
    2.0848   -6.1676    0.8279 C   0  0  0  0  0  0  0  0  0  0  0  0
    3.4280   -6.3142    0.8405 C   0  0  0  0  0  0  0  0  0  0  0  0
    4.0236   -7.3539    1.7109 C   0  0  0  0  0  0  0  0  0  0  0  0
    5.2269   -7.4435    1.9431 O   0  0  0  0  0  0  0  0  0  0  0  0
    3.0177   -8.3528    2.3311 C   0  0  1  0  0  0  0  0  0  0  0  0
    2.7759   -9.4921    1.3476 C   0  0  0  0  0  0  0  0  0  0  0  0
    3.5758   -8.9540    3.4853 O   0  0  0  0  0  0  0  0  0  0  0  0
    1.6991   -7.6047    2.7170 C   0  0  0  0  0  0  0  0  0  0  0  0
    0.5286   -8.5171    3.1062 C   0  0  0  0  0  0  0  0  0  0  0  0
    1.9186   -6.5862    3.8303 C   0  0  0  0  0  0  0  0  0  0  0  0
    1.1928   -6.8636    1.6109 O   0  0  0  0  0  0  0  0  0  0  0  0
    4.2915   -5.3903   -0.0307 C   0  0  2  0  0  0  0  0  0  0  0  0
    5.7641   -5.0672    0.2555 C   0  0  0  0  0  0  0  0  0  0  0  0
    5.9892   -3.7223   -0.4954 C   0  0  0  0  0  0  0  0  0  0  0  0
    4.6018   -3.2309   -1.0022 C   0  0  2  0  0  0  0  0  0  0  0  0
    5.0604    0.1600   -1.8478 H   0  0  0  0  0  0  0  0  0  0  0  0
    5.6719   -1.3136   -2.6312 H   0  0  0  0  0  0  0  0  0  0  0  0
    6.2969   -0.8474   -1.0269 H   0  0  0  0  0  0  0  0  0  0  0  0
    3.4143   -1.5762   -1.6001 H   0  0  0  0  0  0  0  0  0  0  0  0
    2.4784   -0.2247    2.2745 H   0  0  0  0  0  0  0  0  0  0  0  0
    4.5817   -0.9693    3.3995 H   0  0  0  0  0  0  0  0  0  0  0  0
    4.4035   -3.4550    3.3937 H   0  0  0  0  0  0  0  0  0  0  0  0
    4.5032   -3.0173    4.8884 H   0  0  0  0  0  0  0  0  0  0  0  0
    2.5924   -4.4801    4.6854 H   0  0  0  0  0  0  0  0  0  0  0  0
    0.9342   -3.3237    5.8714 H   0  0  0  0  0  0  0  0  0  0  0  0
    2.5654   -2.9625    6.3896 H   0  0  0  0  0  0  0  0  0  0  0  0
    1.2477   -0.8477    6.1357 H   0  0  0  0  0  0  0  0  0  0  0  0
    3.7130   -0.8061    5.7349 H   0  0  0  0  0  0  0  0  0  0  0  0
    2.9110    0.3635    4.7051 H   0  0  0  0  0  0  0  0  0  0  0  0
   -0.2992   -1.5407    4.2979 H   0  0  0  0  0  0  0  0  0  0  0  0
    0.5594   -0.0869    3.8430 H   0  0  0  0  0  0  0  0  0  0  0  0
    0.6007   -1.7353    1.9628 H   0  0  0  0  0  0  0  0  0  0  0  0
    1.4979   -3.9225    2.2749 H   0  0  0  0  0  0  0  0  0  0  0  0
    0.4242   -3.8022    3.4357 H   0  0  0  0  0  0  0  0  0  0  0  0
    4.6585   -3.2025    1.4808 H   0  0  0  0  0  0  0  0  0  0  0  0
    3.3058   -4.0208    1.8943 H   0  0  0  0  0  0  0  0  0  0  0  0
    1.6277   -3.3107   -0.6495 H   0  0  0  0  0  0  0  0  0  0  0  0
    2.1929   -4.5434   -1.6840 H   0  0  0  0  0  0  0  0  0  0  0  0
    2.2220   -9.1416    0.4808 H   0  0  0  0  0  0  0  0  0  0  0  0
    2.1671  -10.2882    1.7656 H   0  0  0  0  0  0  0  0  0  0  0  0
    3.7042   -9.9364    0.9949 H   0  0  0  0  0  0  0  0  0  0  0  0
    2.9648   -9.5936    3.8187 H   0  0  0  0  0  0  0  0  0  0  0  0
    0.8105   -9.1755    3.9203 H   0  0  0  0  0  0  0  0  0  0  0  0
    0.2103   -9.1160    2.2573 H   0  0  0  0  0  0  0  0  0  0  0  0
   -0.3387   -7.9370    3.4266 H   0  0  0  0  0  0  0  0  0  0  0  0
    2.2405   -7.0126    4.7760 H   0  0  0  0  0  0  0  0  0  0  0  0
    1.0344   -5.9766    4.0391 H   0  0  0  0  0  0  0  0  0  0  0  0
    2.7167   -5.9545    3.4747 H   0  0  0  0  0  0  0  0  0  0  0  0
    4.2889   -5.8515   -1.0116 H   0  0  0  0  0  0  0  0  0  0  0  0
    5.9561   -4.9414    1.3234 H   0  0  0  0  0  0  0  0  0  0  0  0
    6.4347   -5.8519   -0.0929 H   0  0  0  0  0  0  0  0  0  0  0  0
    6.4597   -2.9983    0.1733 H   0  0  0  0  0  0  0  0  0  0  0  0
    6.6552   -3.8529   -1.3436 H   0  0  0  0  0  0  0  0  0  0  0  0
    4.4731   -3.5919   -2.0154 H   0  0  0  0  0  0  0  0  0  0  0  0
  1  2  1  0
  1 35  1  0
  1 36  1  0
  1 37  1  0
  2 34  1  0
  2  3  1  0
  2 38  1  6
  3  4  2  0
  3  5  1  0
  5  6  1  0
  5 16  1  0
  6 14  1  0
  6  7  1  0
  6 39  1  6
  7 12  1  0
  7  8  1  0
  7 40  1  6
  8  9  1  0
  8 41  1  0
  8 42  1  0
  9 15  1  0
  9 10  1  0
  9 43  1  1
 10 11  1  0
 10 44  1  0
 10 45  1  0
 11 12  1  0
 11 13  1  0
 11 46  1  1
 12 47  1  0
 12 48  1  0
 13 14  1  0
 13 49  1  0
 13 50  1  0
 14 15  1  0
 14 51  1  6
 15 52  1  0
 15 53  1  0
 17 16  1  1
 16 54  1  0
 16 55  1  0
 17 31  1  0
 17 34  1  0
 17 18  1  0
 18 19  1  0
 18 56  1  0
 18 57  1  0
 19 20  1  0
 20 30  1  0
 20 21  2  0
 21 22  1  0
 21 31  1  0
 22 23  2  0
 22 24  1  0
 24 25  1  0
 24 26  1  1
 24 27  1  0
 25 58  1  0
 25 59  1  0
 25 60  1  0
 26 61  1  0
 27 28  1  0
 27 29  1  0
 27 30  1  0
 28 62  1  0
 28 63  1  0
 28 64  1  0
 29 65  1  0
 29 66  1  0
 29 67  1  0
 31 32  1  0
 31 68  1  6
 32 33  1  0
 32 69  1  0
 32 70  1  0
 33 34  1  0
 33 71  1  0
 33 72  1  0
 34 73  1  6
M  END
>  <i_m_ct_stereo_status>  (330) 
1

>  <s_m_source_file>  (330) 
/var/tmp/pbs.5076255.sched01/tmp4tnmxshi/11480k6dy83.sdf

>  <i_m_source_file_index>  (330) 
33

>  <i_lp_mmshare_version>  (330) 
48012

>  <i_f3d_flags>  (330) 
0

>  <s_epik_input>  (330) 
W0NIMl0xW0NASF0oW0NIMl0yKVtDSDJdW0NAQEhdKFtDSDJdMylbQ0gyXVtDQEhdMltDQEBIXShbQ0BIXTEzKU4oW0NIMl00KUMoPU8pW0NAQEhdKFtDSDNdKVtDQEhdNVtDSDJdW0NIMl1bQ0BIXShbQ0BAXTQ1NilDNz1DKE9bQ0gyXTYpT0MoW0NIM10pKFtDSDNdKVtDQF0oQzc9TykoW0NIM10pW09IXQ==

>  <s_epik_cmdline>  (330) 
J2VwaWtfcHl0aG9uJywgJy1waHQnLCAnMi4wJywgJy1waCcsICc3LjAnLCAnLXRuJywgJzgnLCAnLW1hJywgJzIwMCcsICctaW1hZScsICc8aW5maWxlLm1hZT4nLCAnLW9tYWUnLCAnPG91dGZpbGUubWFlPic=

>  <r_lp_tautomer_probability>  (330) 
1

>  <r_epik_Ionization_Penalty>  (330) 
4.52717e-05

>  <r_epik_Ionization_Penalty_Charging>  (330) 
0

>  <r_epik_Ionization_Penalty_Neutral>  (330) 
4.52717e-05

>  <r_epik_State_Penalty>  (330) 
-0

>  <r_epik_Charging_Adjusted_Penalty>  (330) 
0

>  <i_epik_Tot_Q>  (330) 
0

>  <i_epik_Tot_abs_Q>  (330) 
0

>  <s_lp_Force_Field>  (330) 
OPLS3e

>  <r_lp_Energy>  (330) 
52.8944

>  <b_lp_Chiralities_Consistent>  (330) 
1

>  <s_lp_Variant>  (330) 
104:0-1

>  <s_i_glide_gridfile>  (330) 
pfpi4k_grid

>  <i_i_glide_lignum>  (330) 
33

>  <i_i_glide_rotatable_bonds>  (330) 
2

>  <r_i_docking_score>  (330) 
-1.06376

>  <r_i_glide_ligand_efficiency>  (330) 
-0.0312869

>  <r_i_glide_ligand_efficiency_sa>  (330) 
-0.101358

>  <r_i_glide_ligand_efficiency_ln>  (330) 
-0.235014

>  <r_i_glide_gscore>  (330) 
-1.06376

>  <r_i_glide_lipo>  (330) 
-0.243485

>  <r_i_glide_hbond>  (330) 
-0.0934049

>  <r_i_glide_metal>  (330) 
-0

>  <r_i_glide_rewards>  (330) 
-0.284872

>  <r_i_glide_evdw>  (330) 
-17.4703

>  <r_i_glide_ecoul>  (330) 
-4.26032

>  <r_i_glide_erotb>  (330) 
0.0915896

>  <r_i_glide_esite>  (330) 
-0.0572092

>  <r_i_glide_emodel>  (330) 
-0.235079

>  <r_i_glide_energy>  (330) 
-21.7306

>  <r_i_glide_einternal>  (330) 
36.3375

>  <r_i_glide_intrahb_reward>  (330) 
-0

>  <i_i_glide_confnum>  (330) 
2

>  <i_i_glide_posenum>  (330) 
19

>  <r_i_glide_eff_state_penalty>  (330) 
0

>  <ligand_id>  (330) 
104

>  <original_smiles>  (330) 
CC1C(=O)N(C2C3CC4CC(C3)CC2C4)CC23COC4=C(C(=O)C(C)(O)C(C)(C)O4)C2CCC13

>  <smiles>  (330) 
[H]OC1(C([H])([H])[H])C(=O)C2=C(OC([H])([H])C34C([H])([H])N(C5([H])C6([H])C([H])([H])C7([H])C([H])([H])C([H])(C6([H])[H])C([H])([H])C5([H])C7([H])[H])C(=O)C([H])(C([H])([H])[H])C3([H])C([H])([H])C([H])([H])C24[H])OC1(C([H])([H])[H])C([H])([H])[H]

$$$$
106:0:0
     RDKit          3D

 16 17  0  0  1  0  0  0  0  0999 V2000
    0.6007   -2.5163    4.3399 C   0  0  0  0  0  0  0  0  0  0  0  0
   -0.3176   -1.3893    4.6708 C   0  0  0  0  0  0  0  0  0  0  0  0
   -1.2017   -1.3800    5.6740 N   0  0  0  0  0  0  0  0  0  0  0  0
   -1.8629   -0.1615    5.6655 N   0  0  0  0  0  0  0  0  0  0  0  0
   -1.3838    0.5419    4.6335 C   0  0  0  0  0  0  0  0  0  0  0  0
   -1.6565    1.8220    4.0849 C   0  0  0  0  0  0  0  0  0  0  0  0
   -0.9537    2.2142    2.9720 C   0  0  0  0  0  0  0  0  0  0  0  0
    0.0137    1.3415    2.4227 C   0  0  0  0  0  0  0  0  0  0  0  0
    0.3432    0.1373    2.8853 N   0  0  0  0  0  0  0  0  0  0  0  0
   -0.3889   -0.2134    3.9818 N   0  0  0  0  0  0  0  0  0  0  0  0
    0.4596   -3.3277    5.0538 H   0  0  0  0  0  0  0  0  0  0  0  0
    1.6382   -2.1853    4.3906 H   0  0  0  0  0  0  0  0  0  0  0  0
    0.3950   -2.8937    3.3380 H   0  0  0  0  0  0  0  0  0  0  0  0
   -2.4137    2.4566    4.5313 H   0  0  0  0  0  0  0  0  0  0  0  0
   -1.1266    3.1821    2.5082 H   0  0  0  0  0  0  0  0  0  0  0  0
    0.5541    1.6646    1.5372 H   0  0  0  0  0  0  0  0  0  0  0  0
  1  2  1  0
  1 11  1  0
  1 12  1  0
  1 13  1  0
  2 10  1  0
  2  3  2  0
  3  4  1  0
  4  5  2  0
  5 10  1  0
  5  6  1  0
  6  7  2  0
  6 14  1  0
  7  8  1  0
  7 15  1  0
  8  9  2  0
  8 16  1  0
  9 10  1  0
M  END
>  <i_m_ct_stereo_status>  (331) 
1

>  <s_m_source_file>  (331) 
/var/tmp/pbs.5076255.sched01/tmp4tnmxshi/11480k6dy83.sdf

>  <i_m_source_file_index>  (331) 
35

>  <i_lp_mmshare_version>  (331) 
48012

>  <i_f3d_flags>  (331) 
0

>  <s_epik_input>  (331) 
bjFuYyhbQ0gzXSluKGMxMiluW2NIXVtjSF1bY0hdMg==

>  <s_epik_cmdline>  (331) 
J2VwaWtfcHl0aG9uJywgJy1waHQnLCAnMi4wJywgJy1waCcsICc3LjAnLCAnLXRuJywgJzgnLCAnLW1hJywgJzIwMCcsICctaW1hZScsICc8aW5maWxlLm1hZT4nLCAnLW9tYWUnLCAnPG91dGZpbGUubWFlPic=

>  <r_lp_tautomer_probability>  (331) 
1

>  <r_epik_Ionization_Penalty>  (331) 
3.47523e-07

>  <r_epik_Ionization_Penalty_Charging>  (331) 
0

>  <r_epik_Ionization_Penalty_Neutral>  (331) 
3.47523e-07

>  <r_epik_State_Penalty>  (331) 
-0

>  <r_epik_Charging_Adjusted_Penalty>  (331) 
0

>  <i_epik_Tot_Q>  (331) 
0

>  <i_epik_Tot_abs_Q>  (331) 
0

>  <s_lp_Force_Field>  (331) 
OPLS3e

>  <r_lp_Energy>  (331) 
13.7077

>  <b_lp_Chiralities_Consistent>  (331) 
1

>  <s_lp_Variant>  (331) 
106:0-1

>  <s_i_glide_gridfile>  (331) 
pfpi4k_grid

>  <i_i_glide_lignum>  (331) 
35

>  <i_i_glide_rotatable_bonds>  (331) 
0

>  <r_i_docking_score>  (331) 
-3.83291

>  <r_i_glide_ligand_efficiency>  (331) 
-0.383291

>  <r_i_glide_ligand_efficiency_sa>  (331) 
-0.825775

>  <r_i_glide_ligand_efficiency_ln>  (331) 
-1.16058

>  <r_i_glide_gscore>  (331) 
-3.83291

>  <r_i_glide_lipo>  (331) 
-0.0422257

>  <r_i_glide_hbond>  (331) 
0

>  <r_i_glide_metal>  (331) 
-0

>  <r_i_glide_rewards>  (331) 
-2.25

>  <r_i_glide_evdw>  (331) 
-13.69

>  <r_i_glide_ecoul>  (331) 
-4.32416

>  <r_i_glide_erotb>  (331) 
0

>  <r_i_glide_esite>  (331) 
-0.20756

>  <r_i_glide_emodel>  (331) 
-23.3028

>  <r_i_glide_energy>  (331) 
-18.0141

>  <r_i_glide_einternal>  (331) 
0

>  <r_i_glide_intrahb_reward>  (331) 
-0

>  <i_i_glide_confnum>  (331) 
1

>  <i_i_glide_posenum>  (331) 
16

>  <r_i_glide_eff_state_penalty>  (331) 
0

>  <ligand_id>  (331) 
106

>  <original_smiles>  (331) 
Cc1nnc2cccnn12

>  <smiles>  (331) 
[H]c1nn2c(C([H])([H])[H])nnc2c([H])c1[H]

$$$$
106:0:1
     RDKit          3D

 16 17  0  0  1  0  0  0  0  0999 V2000
    4.8364   -1.3988    1.1891 C   0  0  0  0  0  0  0  0  0  0  0  0
    3.9878   -2.2412    0.2951 C   0  0  0  0  0  0  0  0  0  0  0  0
    3.2810   -3.3078    0.6787 N   0  0  0  0  0  0  0  0  0  0  0  0
    2.6237   -3.8222   -0.4300 N   0  0  0  0  0  0  0  0  0  0  0  0
    2.9507   -3.0577   -1.4746 C   0  0  0  0  0  0  0  0  0  0  0  0
    2.6114   -3.0546   -2.8502 C   0  0  0  0  0  0  0  0  0  0  0  0
    3.1431   -2.0733   -3.6490 C   0  0  0  0  0  0  0  0  0  0  0  0
    4.0057   -1.1144   -3.0678 C   0  0  0  0  0  0  0  0  0  0  0  0
    4.3981   -1.0595   -1.7987 N   0  0  0  0  0  0  0  0  0  0  0  0
    3.8252   -2.0393   -1.0444 N   0  0  0  0  0  0  0  0  0  0  0  0
    4.7978   -1.7891    2.2045 H   0  0  0  0  0  0  0  0  0  0  0  0
    4.4737   -0.3702    1.1965 H   0  0  0  0  0  0  0  0  0  0  0  0
    5.8730   -1.4136    0.8513 H   0  0  0  0  0  0  0  0  0  0  0  0
    1.9452   -3.8148   -3.2440 H   0  0  0  0  0  0  0  0  0  0  0  0
    2.8878   -2.0281   -4.6996 H   0  0  0  0  0  0  0  0  0  0  0  0
    4.4019   -0.3312   -3.7041 H   0  0  0  0  0  0  0  0  0  0  0  0
  1  2  1  0
  1 11  1  0
  1 12  1  0
  1 13  1  0
  2 10  1  0
  2  3  2  0
  3  4  1  0
  4  5  2  0
  5 10  1  0
  5  6  1  0
  6  7  2  0
  6 14  1  0
  7  8  1  0
  7 15  1  0
  8  9  2  0
  8 16  1  0
  9 10  1  0
M  END
>  <i_m_ct_stereo_status>  (332) 
1

>  <s_m_source_file>  (332) 
/var/tmp/pbs.5076255.sched01/tmp4tnmxshi/11480k6dy83.sdf

>  <i_m_source_file_index>  (332) 
35

>  <i_lp_mmshare_version>  (332) 
48012

>  <i_f3d_flags>  (332) 
0

>  <s_epik_input>  (332) 
bjFuYyhbQ0gzXSluKGMxMiluW2NIXVtjSF1bY0hdMg==

>  <s_epik_cmdline>  (332) 
J2VwaWtfcHl0aG9uJywgJy1waHQnLCAnMi4wJywgJy1waCcsICc3LjAnLCAnLXRuJywgJzgnLCAnLW1hJywgJzIwMCcsICctaW1hZScsICc8aW5maWxlLm1hZT4nLCAnLW9tYWUnLCAnPG91dGZpbGUubWFlPic=

>  <r_lp_tautomer_probability>  (332) 
1

>  <r_epik_Ionization_Penalty>  (332) 
3.47523e-07

>  <r_epik_Ionization_Penalty_Charging>  (332) 
0

>  <r_epik_Ionization_Penalty_Neutral>  (332) 
3.47523e-07

>  <r_epik_State_Penalty>  (332) 
-0

>  <r_epik_Charging_Adjusted_Penalty>  (332) 
0

>  <i_epik_Tot_Q>  (332) 
0

>  <i_epik_Tot_abs_Q>  (332) 
0

>  <s_lp_Force_Field>  (332) 
OPLS3e

>  <r_lp_Energy>  (332) 
13.7077

>  <b_lp_Chiralities_Consistent>  (332) 
1

>  <s_lp_Variant>  (332) 
106:0-1

>  <s_i_glide_gridfile>  (332) 
pfpi4k_grid

>  <i_i_glide_lignum>  (332) 
35

>  <i_i_glide_rotatable_bonds>  (332) 
0

>  <r_i_docking_score>  (332) 
-3.78495

>  <r_i_glide_ligand_efficiency>  (332) 
-0.378495

>  <r_i_glide_ligand_efficiency_sa>  (332) 
-0.815444

>  <r_i_glide_ligand_efficiency_ln>  (332) 
-1.14606

>  <r_i_glide_gscore>  (332) 
-3.78495

>  <r_i_glide_lipo>  (332) 
-0.414573

>  <r_i_glide_hbond>  (332) 
0

>  <r_i_glide_metal>  (332) 
-0

>  <r_i_glide_rewards>  (332) 
-2.2652

>  <r_i_glide_evdw>  (332) 
-16.9375

>  <r_i_glide_ecoul>  (332) 
-0.957939

>  <r_i_glide_erotb>  (332) 
0

>  <r_i_glide_esite>  (332) 
-0.114616

>  <r_i_glide_emodel>  (332) 
-23.1159

>  <r_i_glide_energy>  (332) 
-17.8954

>  <r_i_glide_einternal>  (332) 
0

>  <r_i_glide_intrahb_reward>  (332) 
-0

>  <i_i_glide_confnum>  (332) 
1

>  <i_i_glide_posenum>  (332) 
8

>  <r_i_glide_eff_state_penalty>  (332) 
0

>  <ligand_id>  (332) 
106

>  <original_smiles>  (332) 
Cc1nnc2cccnn12

>  <smiles>  (332) 
[H]c1nn2c(C([H])([H])[H])nnc2c([H])c1[H]

$$$$
106:0:2
     RDKit          3D

 16 17  0  0  1  0  0  0  0  0999 V2000
   -0.5192    1.3227    2.2773 C   0  0  0  0  0  0  0  0  0  0  0  0
   -1.2449    1.9938    3.3956 C   0  0  0  0  0  0  0  0  0  0  0  0
   -2.1307    2.9872    3.2741 N   0  0  0  0  0  0  0  0  0  0  0  0
   -2.5704    3.3489    4.5394 N   0  0  0  0  0  0  0  0  0  0  0  0
   -1.9512    2.5516    5.4113 C   0  0  0  0  0  0  0  0  0  0  0  0
   -1.9775    2.4187    6.8228 C   0  0  0  0  0  0  0  0  0  0  0  0
   -1.1679    1.4722    7.3984 C   0  0  0  0  0  0  0  0  0  0  0  0
   -0.3510    0.6688    6.5654 C   0  0  0  0  0  0  0  0  0  0  0  0
   -0.2837    0.7129    5.2385 N   0  0  0  0  0  0  0  0  0  0  0  0
   -1.0955    1.6774    4.7138 N   0  0  0  0  0  0  0  0  0  0  0  0
   -0.8231    1.7408    1.3193 H   0  0  0  0  0  0  0  0  0  0  0  0
   -0.7425    0.2578    2.2710 H   0  0  0  0  0  0  0  0  0  0  0  0
    0.5568    1.4640    2.3831 H   0  0  0  0  0  0  0  0  0  0  0  0
   -2.6118    3.0639    7.4193 H   0  0  0  0  0  0  0  0  0  0  0  0
   -1.1411    1.3629    8.4777 H   0  0  0  0  0  0  0  0  0  0  0  0
    0.2980   -0.0644    7.0294 H   0  0  0  0  0  0  0  0  0  0  0  0
  1  2  1  0
  1 11  1  0
  1 12  1  0
  1 13  1  0
  2 10  1  0
  2  3  2  0
  3  4  1  0
  4  5  2  0
  5 10  1  0
  5  6  1  0
  6  7  2  0
  6 14  1  0
  7  8  1  0
  7 15  1  0
  8  9  2  0
  8 16  1  0
  9 10  1  0
M  END
>  <i_m_ct_stereo_status>  (333) 
1

>  <s_m_source_file>  (333) 
/var/tmp/pbs.5076255.sched01/tmp4tnmxshi/11480k6dy83.sdf

>  <i_m_source_file_index>  (333) 
35

>  <i_lp_mmshare_version>  (333) 
48012

>  <i_f3d_flags>  (333) 
0

>  <s_epik_input>  (333) 
bjFuYyhbQ0gzXSluKGMxMiluW2NIXVtjSF1bY0hdMg==

>  <s_epik_cmdline>  (333) 
J2VwaWtfcHl0aG9uJywgJy1waHQnLCAnMi4wJywgJy1waCcsICc3LjAnLCAnLXRuJywgJzgnLCAnLW1hJywgJzIwMCcsICctaW1hZScsICc8aW5maWxlLm1hZT4nLCAnLW9tYWUnLCAnPG91dGZpbGUubWFlPic=

>  <r_lp_tautomer_probability>  (333) 
1

>  <r_epik_Ionization_Penalty>  (333) 
3.47523e-07

>  <r_epik_Ionization_Penalty_Charging>  (333) 
0

>  <r_epik_Ionization_Penalty_Neutral>  (333) 
3.47523e-07

>  <r_epik_State_Penalty>  (333) 
-0

>  <r_epik_Charging_Adjusted_Penalty>  (333) 
0

>  <i_epik_Tot_Q>  (333) 
0

>  <i_epik_Tot_abs_Q>  (333) 
0

>  <s_lp_Force_Field>  (333) 
OPLS3e

>  <r_lp_Energy>  (333) 
13.7077

>  <b_lp_Chiralities_Consistent>  (333) 
1

>  <s_lp_Variant>  (333) 
106:0-1

>  <s_i_glide_gridfile>  (333) 
pfpi4k_grid

>  <i_i_glide_lignum>  (333) 
35

>  <i_i_glide_rotatable_bonds>  (333) 
0

>  <r_i_docking_score>  (333) 
-3.18014

>  <r_i_glide_ligand_efficiency>  (333) 
-0.318014

>  <r_i_glide_ligand_efficiency_sa>  (333) 
-0.68514

>  <r_i_glide_ligand_efficiency_ln>  (333) 
-0.962924

>  <r_i_glide_gscore>  (333) 
-3.18014

>  <r_i_glide_lipo>  (333) 
-0.0273625

>  <r_i_glide_hbond>  (333) 
0

>  <r_i_glide_metal>  (333) 
-0

>  <r_i_glide_rewards>  (333) 
-2.30826

>  <r_i_glide_evdw>  (333) 
-12.9641

>  <r_i_glide_ecoul>  (333) 
-0.393306

>  <r_i_glide_erotb>  (333) 
0

>  <r_i_glide_esite>  (333) 
-0.137311

>  <r_i_glide_emodel>  (333) 
-17.7468

>  <r_i_glide_energy>  (333) 
-13.3574

>  <r_i_glide_einternal>  (333) 
0

>  <r_i_glide_intrahb_reward>  (333) 
-0

>  <i_i_glide_confnum>  (333) 
2

>  <i_i_glide_posenum>  (333) 
3

>  <r_i_glide_eff_state_penalty>  (333) 
0

>  <ligand_id>  (333) 
106

>  <original_smiles>  (333) 
Cc1nnc2cccnn12

>  <smiles>  (333) 
[H]c1nn2c(C([H])([H])[H])nnc2c([H])c1[H]

$$$$
107:0:0
     RDKit          3D

 68 73  0  0  1  0  0  0  0  0999 V2000
    4.2884   -2.2028   -3.8037 C   0  0  0  0  0  0  0  0  0  0  0  0
    4.0498   -2.9654   -2.5058 C   0  0  2  0  0  0  0  0  0  0  0  0
    2.5571   -3.3265   -2.4828 C   0  0  0  0  0  0  0  0  0  0  0  0
    2.0952   -3.7696   -1.0948 C   0  0  0  0  0  0  0  0  0  0  0  0
    3.2006   -4.2622   -0.1496 C   0  0  2  0  0  0  0  0  0  0  0  0
    2.4985   -4.8672    1.1127 C   0  0  0  0  0  0  0  0  0  0  0  0
    3.2493   -5.5713    2.2699 C   0  0  2  0  0  0  0  0  0  0  0  0
    4.2867   -6.6682    1.9128 C   0  0  1  0  0  0  0  0  0  0  0  0
    5.3858   -6.3218    0.8908 C   0  0  0  0  0  0  0  0  0  0  0  0
    6.0822   -4.9500    1.0811 C   0  0  0  0  0  0  0  0  0  0  0  0
    5.7169   -3.9290   -0.0255 C   0  0  2  0  0  0  0  0  0  0  0  0
    6.7617   -2.8653   -0.4079 C   0  0  2  0  0  0  0  0  0  0  0  0
    7.9077   -3.4223   -1.2716 C   0  0  0  0  0  0  0  0  0  0  0  0
    7.3715   -2.1716    0.8191 C   0  0  0  0  0  0  0  0  0  0  0  0
    6.4171   -1.7299    1.9529 C   0  0  0  0  0  0  0  0  0  0  0  0
    5.1138   -1.2657    1.5892 N   0  0  0  0  0  0  0  0  0  0  0  0
    4.1362   -2.3334    1.3624 C   0  0  0  0  0  0  0  0  0  0  0  0
    4.3425   -3.1838    0.0549 C   0  0  2  0  0  0  0  0  0  0  0  0
    4.4945   -2.2458   -1.2020 C   0  0  2  0  0  0  0  0  0  0  0  0
    3.7443   -0.9634   -1.1149 C   0  0  0  0  0  0  0  0  0  0  0  0
    5.9788   -1.8425   -1.2140 C   0  0  0  0  0  0  0  0  0  0  0  0
    4.9343   -7.1396    3.1272 N   0  0  0  0  0  0  0  0  0  0  0  0
    4.3072   -7.3419    4.3044 C   0  0  0  0  0  0  0  0  0  0  0  0
    4.9113   -7.6447    5.3193 O   0  0  0  0  0  0  0  0  0  0  0  0
    2.7918   -7.1264    4.3625 C   0  0  1  0  0  0  0  0  0  0  0  0
    2.3351   -6.1448    5.4703 C   0  0  0  0  0  0  0  0  0  0  0  0
    1.7141   -5.2666    4.3547 C   0  0  0  0  0  0  0  0  0  0  0  0
    1.0340   -4.2432    4.3369 O   0  0  0  0  0  0  0  0  0  0  0  0
    2.2452   -6.2070    3.2416 C   0  0  1  0  0  0  0  0  0  0  0  0
    3.7352   -1.2774   -3.9382 H   0  0  0  0  0  0  0  0  0  0  0  0
    4.0362   -2.8633   -4.6149 H   0  0  0  0  0  0  0  0  0  0  0  0
    5.3554   -1.9945   -3.9148 H   0  0  0  0  0  0  0  0  0  0  0  0
    4.6204   -3.8722   -2.6248 H   0  0  0  0  0  0  0  0  0  0  0  0
    1.9336   -2.5374   -2.8860 H   0  0  0  0  0  0  0  0  0  0  0  0
    2.4204   -4.1405   -3.1851 H   0  0  0  0  0  0  0  0  0  0  0  0
    1.6743   -2.9238   -0.5746 H   0  0  0  0  0  0  0  0  0  0  0  0
    1.3021   -4.5066   -1.2101 H   0  0  0  0  0  0  0  0  0  0  0  0
    3.6155   -5.0952   -0.7128 H   0  0  0  0  0  0  0  0  0  0  0  0
    1.8788   -4.0905    1.5644 H   0  0  0  0  0  0  0  0  0  0  0  0
    1.8000   -5.6002    0.7191 H   0  0  0  0  0  0  0  0  0  0  0  0
    3.8017   -4.8281    2.8315 H   0  0  0  0  0  0  0  0  0  0  0  0
    3.7460   -7.5229    1.5111 H   0  0  0  0  0  0  0  0  0  0  0  0
    6.1556   -7.0934    0.9500 H   0  0  0  0  0  0  0  0  0  0  0  0
    5.0011   -6.4506   -0.1161 H   0  0  0  0  0  0  0  0  0  0  0  0
    5.9182   -4.5635    2.0839 H   0  0  0  0  0  0  0  0  0  0  0  0
    7.1541   -5.1363    1.0105 H   0  0  0  0  0  0  0  0  0  0  0  0
    5.6835   -4.5421   -0.9263 H   0  0  0  0  0  0  0  0  0  0  0  0
    8.6228   -2.6461   -1.5440 H   0  0  0  0  0  0  0  0  0  0  0  0
    7.5047   -3.8153   -2.2074 H   0  0  0  0  0  0  0  0  0  0  0  0
    8.4437   -4.2249   -0.7655 H   0  0  0  0  0  0  0  0  0  0  0  0
    8.0796   -2.8966    1.2359 H   0  0  0  0  0  0  0  0  0  0  0  0
    7.9857   -1.3178    0.4923 H   0  0  0  0  0  0  0  0  0  0  0  0
    6.2926   -2.5409    2.6676 H   0  0  0  0  0  0  0  0  0  0  0  0
    6.9275   -0.9051    2.4623 H   0  0  0  0  0  0  0  0  0  0  0  0
    4.8084   -0.7513    2.4047 H   0  0  0  0  0  0  0  0  0  0  0  0
    4.1519   -2.9497    2.2457 H   0  0  0  0  0  0  0  0  0  0  0  0
    3.1496   -1.8702    1.3519 H   0  0  0  0  0  0  0  0  0  0  0  0
    4.0239   -0.2955   -0.3179 H   0  0  0  0  0  0  0  0  0  0  0  0
    2.6453   -1.0908   -1.0370 H   0  0  0  0  0  0  0  0  0  0  0  0
    3.9285   -0.3518   -1.9891 H   0  0  0  0  0  0  0  0  0  0  0  0
    6.1378   -0.8472   -0.7753 H   0  0  0  0  0  0  0  0  0  0  0  0
    6.4192   -1.7285   -2.1905 H   0  0  0  0  0  0  0  0  0  0  0  0
    5.9352   -7.2672    3.1141 H   0  0  0  0  0  0  0  0  0  0  0  0
    2.2498   -8.0678    4.4107 H   0  0  0  0  0  0  0  0  0  0  0  0
    1.6203   -6.6043    6.1539 H   0  0  0  0  0  0  0  0  0  0  0  0
    3.1605   -5.7090    6.0410 H   0  0  0  0  0  0  0  0  0  0  0  0
    1.4413   -6.7471    2.7498 H   0  0  0  0  0  0  0  0  0  0  0  0
    5.1870   -0.6218    0.8186 H   0  0  0  0  0  0  0  0  0  0  0  0
  1  2  1  0
  1 30  1  0
  1 31  1  0
  1 32  1  0
  2 19  1  0
  2  3  1  0
  2 33  1  6
  3  4  1  0
  3 34  1  0
  3 35  1  0
  4  5  1  0
  4 36  1  0
  4 37  1  0
  5 18  1  0
  5  6  1  0
  5 38  1  6
  6  7  1  0
  6 39  1  0
  6 40  1  0
  7 29  1  0
  7  8  1  0
  7 41  1  1
  8  9  1  0
  8 22  1  0
  8 42  1  6
  9 10  1  0
  9 43  1  0
  9 44  1  0
 10 11  1  0
 10 45  1  0
 10 46  1  0
 11 18  1  0
 11 12  1  0
 11 47  1  6
 12 21  1  0
 12 13  1  6
 12 14  1  0
 13 48  1  0
 13 49  1  0
 13 50  1  0
 14 15  1  0
 14 51  1  0
 14 52  1  0
 15 16  1  0
 15 53  1  0
 15 54  1  0
 16 17  1  0
 16 55  1  0
 16 68  1  0
 18 17  1  1
 17 56  1  0
 17 57  1  0
 18 19  1  0
 19 20  1  1
 19 21  1  0
 20 58  1  0
 20 59  1  0
 20 60  1  0
 21 61  1  0
 21 62  1  0
 22 23  1  0
 22 63  1  0
 23 24  2  0
 23 25  1  0
 25 29  1  0
 25 26  1  0
 25 64  1  1
 26 27  1  0
 26 65  1  0
 26 66  1  0
 27 28  2  0
 27 29  1  0
 29 67  1  6
M  CHG  1  16   1
M  END
>  <i_m_ct_stereo_status>  (334) 
1

>  <s_m_source_file>  (334) 
/var/tmp/pbs.5076255.sched01/tmp4tnmxshi/11480k6dy83.sdf

>  <i_m_source_file_index>  (334) 
36

>  <i_lp_mmshare_version>  (334) 
48012

>  <i_f3d_flags>  (334) 
0

>  <s_epik_input>  (334) 
W0NAQF0xMjNbQ0BASF00W0NIMl1bQ0gyXVtDQEBIXShbQ0gzXSlbQ0BdMyhbQ0gzXSlbQ0gyXVtDQEBdKFtDSDNdKShbQ0gyXVtDSDJdW05IXVtDSDJdMilbQ0BIXTFbQ0gyXVtDSDJdW0NAQEhdNVtDQEBIXShbQ0gyXTQpW0NASF02W0NAQEhdKEMoPU8pW05IXTUpW0NIMl1DNj1P

>  <s_epik_cmdline>  (334) 
J2VwaWtfcHl0aG9uJywgJy1waHQnLCAnMi4wJywgJy1waCcsICc3LjAnLCAnLXRuJywgJzgnLCAnLW1hJywgJzIwMCcsICctaW1hZScsICc8aW5maWxlLm1hZT4nLCAnLW9tYWUnLCAnPG91dGZpbGUubWFlPic=

>  <r_lp_tautomer_probability>  (334) 
1

>  <r_epik_Ionization_Penalty>  (334) 
0.000162345

>  <r_epik_Ionization_Penalty_Charging>  (334) 
0.000162319

>  <r_epik_Ionization_Penalty_Neutral>  (334) 
2.63211e-08

>  <r_epik_State_Penalty>  (334) 
-0

>  <r_epik_Charging_Adjusted_Penalty>  (334) 
0.000162319

>  <i_epik_Tot_Q>  (334) 
1

>  <i_epik_Tot_abs_Q>  (334) 
1

>  <s_lp_Force_Field>  (334) 
OPLS3e

>  <r_lp_Energy>  (334) 
89.7547

>  <b_lp_Chiralities_Consistent>  (334) 
1

>  <s_lp_Variant>  (334) 
107:0-1

>  <s_i_glide_gridfile>  (334) 
pfpi4k_grid

>  <i_i_glide_lignum>  (334) 
36

>  <i_i_glide_rotatable_bonds>  (334) 
0

>  <r_i_docking_score>  (334) 
-2.18161

>  <r_i_glide_ligand_efficiency>  (334) 
-0.075228

>  <r_i_glide_ligand_efficiency_sa>  (334) 
-0.231124

>  <r_i_glide_ligand_efficiency_ln>  (334) 
-0.499534

>  <r_i_glide_gscore>  (334) 
-2.18161

>  <r_i_glide_lipo>  (334) 
-0.66924

>  <r_i_glide_hbond>  (334) 
0

>  <r_i_glide_metal>  (334) 
-0

>  <r_i_glide_rewards>  (334) 
-0.684618

>  <r_i_glide_evdw>  (334) 
-13.2436

>  <r_i_glide_ecoul>  (334) 
-1.09096

>  <r_i_glide_erotb>  (334) 
0

>  <r_i_glide_esite>  (334) 
-0.00193127

>  <r_i_glide_emodel>  (334) 
-14.6629

>  <r_i_glide_energy>  (334) 
-14.3345

>  <r_i_glide_einternal>  (334) 
0

>  <r_i_glide_intrahb_reward>  (334) 
-0

>  <i_i_glide_confnum>  (334) 
2

>  <i_i_glide_posenum>  (334) 
4

>  <r_i_glide_eff_state_penalty>  (334) 
0

>  <ligand_id>  (334) 
107

>  <original_smiles>  (334) 
CC1CCC2CC3C(CCC4C5(C)CCNCC24C1(C)C5)NC(=O)C1CC(=O)C13

>  <smiles>  (334) 
[H]N1C(=O)C2([H])C([H])([H])C(=O)C2([H])C2([H])C([H])([H])C3([H])C([H])([H])C([H])([H])C([H])(C([H])([H])[H])C4(C([H])([H])[H])C([H])([H])C5(C([H])([H])[H])C([H])([H])C([H])([H])[N+]([H])([H])C([H])([H])C34C5([H])C([H])([H])C([H])([H])C12[H]

$$$$
