0:0:0
     RDKit          3D

 53 58  0  0  1  0  0  0  0  0999 V2000
    7.1801   -2.5886   -1.1284 C   0  0  0  0  0  0  0  0  0  0  0  0
    6.1130   -3.0992   -0.4925 C   0  0  0  0  0  0  0  0  0  0  0  0
    6.2908   -3.5243    1.0408 C   0  0  2  0  0  0  0  0  0  0  0  0
    5.8827   -4.9683    1.3186 C   0  0  0  0  0  0  0  0  0  0  0  0
    4.3603   -5.0324    1.3556 C   0  0  1  0  0  0  0  0  0  0  0  0
    3.7314   -5.4694    2.5055 O   0  0  0  0  0  0  0  0  0  0  0  0
    2.4338   -5.0718    2.3561 C   0  0  2  0  0  0  0  0  0  0  0  0
    1.8862   -5.4068    0.9952 O   0  0  0  0  0  0  0  0  0  0  0  0
    2.3153   -4.7670   -0.3026 C   0  0  1  0  0  0  0  0  0  0  0  0
    2.3092   -3.5269    0.0765 O   0  0  0  0  0  0  0  0  0  0  0  0
    3.6920   -3.8145    0.5458 C   0  0  1  0  0  0  0  0  0  0  0  0
    3.4994   -2.3661    1.1126 C   0  0  1  0  0  0  0  0  0  0  0  0
    2.4639   -2.4403    2.0887 O   0  0  0  0  0  0  0  0  0  0  0  0
    2.4398   -3.5532    2.9758 C   0  0  1  0  0  0  0  0  0  0  0  0
    1.0681   -3.3297    3.6436 C   0  0  0  0  0  0  0  0  0  0  0  0
    3.6432   -3.2577    3.9863 C   0  0  1  0  0  0  0  0  0  0  0  0
    3.5312   -4.0931    5.2772 C   0  0  0  0  0  0  0  0  0  0  0  0
    5.1822   -3.1911    3.5478 C   0  0  0  0  0  0  0  0  0  0  0  0
    5.7206   -2.5758    2.1829 C   0  0  2  0  0  0  0  0  0  0  0  0
    4.7101   -1.6550    1.6240 C   0  0  0  0  0  0  0  0  0  0  0  0
    4.9045   -0.3305    1.5043 C   0  0  0  0  0  0  0  0  0  0  0  0
    3.8549   -4.4099   -0.7844 C   0  0  2  0  0  0  0  0  0  0  0  0
    4.8102   -3.3413   -1.3757 C   0  0  1  0  0  0  0  0  0  0  0  0
    4.2028   -2.1005   -1.7411 O   0  0  0  0  0  0  0  0  0  0  0  0
    3.9832   -1.7767   -3.0282 C   0  0  0  0  0  0  0  0  0  0  0  0
    4.2074   -2.4991   -3.9966 O   0  0  0  0  0  0  0  0  0  0  0  0
    3.4435   -0.3556   -3.1820 C   0  0  0  0  0  0  0  0  0  0  0  0
    3.4075    0.1895   -5.1015 Br  0  0  0  0  0  0  0  0  0  0  0  0
    7.1221   -2.3277   -2.1758 H   0  0  0  0  0  0  0  0  0  0  0  0
    8.1202   -2.4195   -0.6239 H   0  0  0  0  0  0  0  0  0  0  0  0
    7.3689   -3.5293    1.2026 H   0  0  0  0  0  0  0  0  0  0  0  0
    6.2802   -5.5986    0.5217 H   0  0  0  0  0  0  0  0  0  0  0  0
    6.3205   -5.3657    2.2320 H   0  0  0  0  0  0  0  0  0  0  0  0
    4.2216   -6.0124    0.8831 H   0  0  0  0  0  0  0  0  0  0  0  0
    1.8878   -5.7202    3.0415 H   0  0  0  0  0  0  0  0  0  0  0  0
    1.6200   -4.9524   -1.1234 H   0  0  0  0  0  0  0  0  0  0  0  0
    3.1327   -1.6426    0.3746 H   0  0  0  0  0  0  0  0  0  0  0  0
    0.8321   -4.0859    4.3884 H   0  0  0  0  0  0  0  0  0  0  0  0
    0.2803   -3.3512    2.8967 H   0  0  0  0  0  0  0  0  0  0  0  0
    1.0104   -2.3515    4.1219 H   0  0  0  0  0  0  0  0  0  0  0  0
    3.4421   -2.2357    4.3087 H   0  0  0  0  0  0  0  0  0  0  0  0
    3.6433   -5.1576    5.0740 H   0  0  0  0  0  0  0  0  0  0  0  0
    2.5790   -3.9514    5.7850 H   0  0  0  0  0  0  0  0  0  0  0  0
    4.3050   -3.8165    5.9901 H   0  0  0  0  0  0  0  0  0  0  0  0
    5.6329   -2.5622    4.3170 H   0  0  0  0  0  0  0  0  0  0  0  0
    5.6511   -4.1452    3.7691 H   0  0  0  0  0  0  0  0  0  0  0  0
    6.5691   -1.9467    2.4551 H   0  0  0  0  0  0  0  0  0  0  0  0
    4.1587    0.3091    1.0524 H   0  0  0  0  0  0  0  0  0  0  0  0
    5.8141    0.1321    1.8586 H   0  0  0  0  0  0  0  0  0  0  0  0
    4.3291   -5.3753   -0.9630 H   0  0  0  0  0  0  0  0  0  0  0  0
    5.2216   -3.7864   -2.2830 H   0  0  0  0  0  0  0  0  0  0  0  0
    2.4352   -0.2801   -2.7728 H   0  0  0  0  0  0  0  0  0  0  0  0
    4.0830    0.3519   -2.6586 H   0  0  0  0  0  0  0  0  0  0  0  0
  1  2  2  0
  1 29  1  0
  1 30  1  0
  2 23  1  0
  2  3  1  0
  3 19  1  0
  3  4  1  0
  3 31  1  1
  4  5  1  0
  4 32  1  0
  4 33  1  0
  5 11  1  0
  5  6  1  0
  5 34  1  6
  6  7  1  0
  7 14  1  0
  7  8  1  0
  7 35  1  1
  8  9  1  0
  9 22  1  0
  9 10  1  0
  9 36  1  6
 11 10  1  1
 11 12  1  0
 11 22  1  0
 12 20  1  0
 12 13  1  0
 12 37  1  6
 13 14  1  0
 14 15  1  1
 14 16  1  0
 15 38  1  0
 15 39  1  0
 15 40  1  0
 16 17  1  0
 16 18  1  0
 16 41  1  1
 17 42  1  0
 17 43  1  0
 17 44  1  0
 18 19  1  0
 18 45  1  0
 18 46  1  0
 19 20  1  0
 19 47  1  1
 20 21  2  0
 21 48  1  0
 21 49  1  0
 22 23  1  0
 22 50  1  1
 23 24  1  0
 23 51  1  6
 24 25  1  0
 25 26  2  0
 25 27  1  0
 27 28  1  0
 27 52  1  0
 27 53  1  0
M  END
>  <i_m_ct_stereo_status>  (1) 
1

>  <s_m_source_file>  (1) 
/var/tmp/pbs.5076255.sched01/tmprv8ptrg5/026yimkau.sdf

>  <i_m_source_file_index>  (1) 
1

>  <i_lp_mmshare_version>  (1) 
48012

>  <i_f3d_flags>  (1) 
0

>  <s_epik_input>  (1) 
QnJbQ0gyXUMoPU8pT1tDQEBIXShDMT1bQ0gyXSlbQ0BASF0yW0NASF0oTzMpT1tDQEBIXShPNClbQ0BdKFtDSDNdKShPW0NASF01QzY9W0NIMl0pW0NAQEhdKFtDSDNdKVtDSDJdW0NASF02W0NASF0xW0NIMl1bQ0BASF00W0NAQF0yMzU=

>  <s_epik_cmdline>  (1) 
J2VwaWtfcHl0aG9uJywgJy1waHQnLCAnMi4wJywgJy1waCcsICc3LjAnLCAnLXRuJywgJzgnLCAnLW1hJywgJzIwMCcsICctaW1hZScsICc8aW5maWxlLm1hZT4nLCAnLW9tYWUnLCAnPG91dGZpbGUubWFlPic=

>  <r_lp_tautomer_probability>  (1) 
1

>  <r_epik_Ionization_Penalty>  (1) 
4.47298e-14

>  <r_epik_Ionization_Penalty_Charging>  (1) 
0

>  <r_epik_Ionization_Penalty_Neutral>  (1) 
4.47298e-14

>  <r_epik_State_Penalty>  (1) 
-0

>  <r_epik_Charging_Adjusted_Penalty>  (1) 
0

>  <i_epik_Tot_Q>  (1) 
0

>  <i_epik_Tot_abs_Q>  (1) 
0

>  <s_epik_Chemistry_Notes>  (1) 
This compound has an ester and may undergo hydrolysis at high or low pH. This compound contains an acetal/aminal-like group ( X-CH(R)-Y where X, Y are N, S, or O) that may be acid/base labile, releasing an aldehyde.

>  <s_lp_Force_Field>  (1) 
OPLS3e

>  <r_lp_Energy>  (1) 
247.283

>  <b_lp_Chiralities_Consistent>  (1) 
1

>  <s_lp_Variant>  (1) 
0:0-1

>  <s_i_glide_gridfile>  (1) 
pfpi4k_grid

>  <i_i_glide_lignum>  (1) 
1

>  <i_i_glide_rotatable_bonds>  (1) 
3

>  <r_i_docking_score>  (1) 
-3.64784

>  <r_i_glide_ligand_efficiency>  (1) 
-0.13028

>  <r_i_glide_ligand_efficiency_sa>  (1) 
-0.395607

>  <r_i_glide_ligand_efficiency_ln>  (1) 
-0.842029

>  <r_i_glide_gscore>  (1) 
-3.64784

>  <r_i_glide_lipo>  (1) 
-0.856233

>  <r_i_glide_hbond>  (1) 
-0.31529

>  <r_i_glide_metal>  (1) 
-0

>  <r_i_glide_rewards>  (1) 
-0.40272

>  <r_i_glide_evdw>  (1) 
-29.8328

>  <r_i_glide_ecoul>  (1) 
-4.62817

>  <r_i_glide_erotb>  (1) 
0.195348

>  <r_i_glide_esite>  (1) 
-0.0830825

>  <r_i_glide_emodel>  (1) 
-41.708

>  <r_i_glide_energy>  (1) 
-34.4609

>  <r_i_glide_einternal>  (1) 
0.855656

>  <r_i_glide_intrahb_reward>  (1) 
-0

>  <i_i_glide_confnum>  (1) 
3

>  <i_i_glide_posenum>  (1) 
1

>  <r_i_glide_eff_state_penalty>  (1) 
0

>  <ligand_id>  (1) 
0

>  <original_smiles>  (1) 
C=C1C2CC3OC4OC5OC3(C3OC4(C)C(C)CC2C3=C)C5C1OC(=O)CBr

>  <smiles>  (1) 
[H]C([H])=C1C([H])(OC(=O)C([H])([H])Br)C2([H])C3([H])OC4([H])OC5([H])C([H])([H])C1([H])C1([H])C(=C([H])[H])C([H])(OC4(C([H])([H])[H])C([H])(C([H])([H])[H])C1([H])[H])C52O3

$$$$
0:0:1
     RDKit          3D

 53 58  0  0  1  0  0  0  0  0999 V2000
    5.4249   -4.0908    4.6670 C   0  0  0  0  0  0  0  0  0  0  0  0
    4.8913   -4.0115    3.4403 C   0  0  0  0  0  0  0  0  0  0  0  0
    5.0284   -2.6176    2.6554 C   0  0  2  0  0  0  0  0  0  0  0  0
    3.6884   -2.0549    2.2052 C   0  0  0  0  0  0  0  0  0  0  0  0
    3.2487   -2.8372    0.9797 C   0  0  1  0  0  0  0  0  0  0  0  0
    3.0768   -2.1593   -0.2036 O   0  0  0  0  0  0  0  0  0  0  0  0
    3.0194   -3.1324   -1.1581 C   0  0  2  0  0  0  0  0  0  0  0  0
    2.1325   -4.2664   -0.7371 O   0  0  0  0  0  0  0  0  0  0  0  0
    2.4477   -5.2732    0.3385 C   0  0  1  0  0  0  0  0  0  0  0  0
    3.7013   -5.4944    0.0829 O   0  0  0  0  0  0  0  0  0  0  0  0
    3.9334   -4.2862    0.9108 C   0  0  1  0  0  0  0  0  0  0  0  0
    5.3816   -4.5576    0.3699 C   0  0  1  0  0  0  0  0  0  0  0  0
    5.3479   -4.3775   -1.0398 O   0  0  0  0  0  0  0  0  0  0  0  0
    4.5955   -3.2995   -1.5818 C   0  0  1  0  0  0  0  0  0  0  0  0
    4.6640   -3.6426   -3.0881 C   0  0  0  0  0  0  0  0  0  0  0  0
    5.4865   -2.0163   -1.2434 C   0  0  1  0  0  0  0  0  0  0  0  0
    5.0614   -0.8014   -2.0896 C   0  0  0  0  0  0  0  0  0  0  0  0
    5.8133   -1.5164    0.2421 C   0  0  0  0  0  0  0  0  0  0  0  0
    6.0958   -2.4718    1.4799 C   0  0  2  0  0  0  0  0  0  0  0  0
    6.5107   -3.8073    0.9934 C   0  0  0  0  0  0  0  0  0  0  0  0
    7.7404   -4.3272    1.1700 C   0  0  0  0  0  0  0  0  0  0  0  0
    3.0084   -4.9438    1.8504 C   0  0  2  0  0  0  0  0  0  0  0  0
    4.0571   -5.2802    2.9434 C   0  0  1  0  0  0  0  0  0  0  0  0
    4.9089   -6.3806    2.6275 O   0  0  0  0  0  0  0  0  0  0  0  0
    5.1848   -7.3444    3.5280 C   0  0  0  0  0  0  0  0  0  0  0  0
    4.6937   -7.4459    4.6536 O   0  0  0  0  0  0  0  0  0  0  0  0
    6.2408   -8.3248    3.0401 C   0  0  0  0  0  0  0  0  0  0  0  0
    5.5772   -9.2657    1.4151 Br  0  0  0  0  0  0  0  0  0  0  0  0
    5.3454   -4.9928    5.2546 H   0  0  0  0  0  0  0  0  0  0  0  0
    5.9862   -3.2754    5.0999 H   0  0  0  0  0  0  0  0  0  0  0  0
    5.3584   -1.9059    3.4137 H   0  0  0  0  0  0  0  0  0  0  0  0
    2.9662   -2.1720    3.0141 H   0  0  0  0  0  0  0  0  0  0  0  0
    3.7118   -0.9864    1.9989 H   0  0  0  0  0  0  0  0  0  0  0  0
    2.1705   -2.8571    1.1707 H   0  0  0  0  0  0  0  0  0  0  0  0
    2.4816   -2.6645   -1.9819 H   0  0  0  0  0  0  0  0  0  0  0  0
    1.8470   -6.1843    0.2755 H   0  0  0  0  0  0  0  0  0  0  0  0
    5.7259   -5.5903    0.5066 H   0  0  0  0  0  0  0  0  0  0  0  0
    4.1248   -2.9274   -3.7031 H   0  0  0  0  0  0  0  0  0  0  0  0
    4.2371   -4.6200   -3.3027 H   0  0  0  0  0  0  0  0  0  0  0  0
    5.6981   -3.6733   -3.4360 H   0  0  0  0  0  0  0  0  0  0  0  0
    6.4692   -2.2968   -1.6246 H   0  0  0  0  0  0  0  0  0  0  0  0
    4.0676   -0.4474   -1.8249 H   0  0  0  0  0  0  0  0  0  0  0  0
    5.0433   -1.0127   -3.1538 H   0  0  0  0  0  0  0  0  0  0  0  0
    5.7510    0.0198   -1.9358 H   0  0  0  0  0  0  0  0  0  0  0  0
    6.7415   -0.9539    0.1290 H   0  0  0  0  0  0  0  0  0  0  0  0
    5.1305   -0.7130    0.5057 H   0  0  0  0  0  0  0  0  0  0  0  0
    6.9659   -2.0319    1.9594 H   0  0  0  0  0  0  0  0  0  0  0  0
    7.9728   -5.3295    0.8401 H   0  0  0  0  0  0  0  0  0  0  0  0
    8.5232   -3.7700    1.6582 H   0  0  0  0  0  0  0  0  0  0  0  0
    2.1819   -4.4369    2.3466 H   0  0  0  0  0  0  0  0  0  0  0  0
    3.4711   -5.5637    3.8191 H   0  0  0  0  0  0  0  0  0  0  0  0
    7.1598   -7.7986    2.7812 H   0  0  0  0  0  0  0  0  0  0  0  0
    6.4601   -9.0650    3.8087 H   0  0  0  0  0  0  0  0  0  0  0  0
  1  2  2  0
  1 29  1  0
  1 30  1  0
  2 23  1  0
  2  3  1  0
  3 19  1  0
  3  4  1  0
  3 31  1  1
  4  5  1  0
  4 32  1  0
  4 33  1  0
  5 11  1  0
  5  6  1  0
  5 34  1  1
  6  7  1  0
  7 14  1  0
  7  8  1  0
  7 35  1  6
  8  9  1  0
  9 22  1  0
  9 10  1  0
  9 36  1  1
 11 10  1  6
 11 12  1  0
 11 22  1  0
 12 20  1  0
 12 13  1  0
 12 37  1  6
 13 14  1  0
 14 15  1  6
 14 16  1  0
 15 38  1  0
 15 39  1  0
 15 40  1  0
 16 17  1  0
 16 18  1  0
 16 41  1  6
 17 42  1  0
 17 43  1  0
 17 44  1  0
 18 19  1  0
 18 45  1  0
 18 46  1  0
 19 20  1  0
 19 47  1  1
 20 21  2  0
 21 48  1  0
 21 49  1  0
 22 23  1  0
 22 50  1  1
 23 24  1  0
 23 51  1  1
 24 25  1  0
 25 26  2  0
 25 27  1  0
 27 28  1  0
 27 52  1  0
 27 53  1  0
M  END
>  <i_m_ct_stereo_status>  (2) 
1

>  <s_m_source_file>  (2) 
/var/tmp/pbs.5076255.sched01/tmprv8ptrg5/026yimkau.sdf

>  <i_m_source_file_index>  (2) 
1

>  <i_lp_mmshare_version>  (2) 
48012

>  <i_f3d_flags>  (2) 
0

>  <s_epik_input>  (2) 
QnJbQ0gyXUMoPU8pT1tDQEBIXShDMT1bQ0gyXSlbQ0BASF0yW0NASF0oTzMpT1tDQEBIXShPNClbQ0BdKFtDSDNdKShPW0NASF01QzY9W0NIMl0pW0NAQEhdKFtDSDNdKVtDSDJdW0NASF02W0NASF0xW0NIMl1bQ0BASF00W0NAQF0yMzU=

>  <s_epik_cmdline>  (2) 
J2VwaWtfcHl0aG9uJywgJy1waHQnLCAnMi4wJywgJy1waCcsICc3LjAnLCAnLXRuJywgJzgnLCAnLW1hJywgJzIwMCcsICctaW1hZScsICc8aW5maWxlLm1hZT4nLCAnLW9tYWUnLCAnPG91dGZpbGUubWFlPic=

>  <r_lp_tautomer_probability>  (2) 
1

>  <r_epik_Ionization_Penalty>  (2) 
4.47298e-14

>  <r_epik_Ionization_Penalty_Charging>  (2) 
0

>  <r_epik_Ionization_Penalty_Neutral>  (2) 
4.47298e-14

>  <r_epik_State_Penalty>  (2) 
-0

>  <r_epik_Charging_Adjusted_Penalty>  (2) 
0

>  <i_epik_Tot_Q>  (2) 
0

>  <i_epik_Tot_abs_Q>  (2) 
0

>  <s_epik_Chemistry_Notes>  (2) 
This compound has an ester and may undergo hydrolysis at high or low pH. This compound contains an acetal/aminal-like group ( X-CH(R)-Y where X, Y are N, S, or O) that may be acid/base labile, releasing an aldehyde.

>  <s_lp_Force_Field>  (2) 
OPLS3e

>  <r_lp_Energy>  (2) 
247.283

>  <b_lp_Chiralities_Consistent>  (2) 
1

>  <s_lp_Variant>  (2) 
0:0-1

>  <s_i_glide_gridfile>  (2) 
pfpi4k_grid

>  <i_i_glide_lignum>  (2) 
1

>  <i_i_glide_rotatable_bonds>  (2) 
3

>  <r_i_docking_score>  (2) 
-1.59197

>  <r_i_glide_ligand_efficiency>  (2) 
-0.0568559

>  <r_i_glide_ligand_efficiency_sa>  (2) 
-0.172648

>  <r_i_glide_ligand_efficiency_ln>  (2) 
-0.367473

>  <r_i_glide_gscore>  (2) 
-1.59197

>  <r_i_glide_lipo>  (2) 
-0.623221

>  <r_i_glide_hbond>  (2) 
0

>  <r_i_glide_metal>  (2) 
-0

>  <r_i_glide_rewards>  (2) 
-0.343293

>  <r_i_glide_evdw>  (2) 
-21.4532

>  <r_i_glide_ecoul>  (2) 
2.04737

>  <r_i_glide_erotb>  (2) 
0.195348

>  <r_i_glide_esite>  (2) 
-0.0552447

>  <r_i_glide_emodel>  (2) 
-22.1335

>  <r_i_glide_energy>  (2) 
-19.4059

>  <r_i_glide_einternal>  (2) 
0.942602

>  <r_i_glide_intrahb_reward>  (2) 
-0

>  <i_i_glide_confnum>  (2) 
1

>  <i_i_glide_posenum>  (2) 
29

>  <r_i_glide_eff_state_penalty>  (2) 
0

>  <ligand_id>  (2) 
0

>  <original_smiles>  (2) 
C=C1C2CC3OC4OC5OC3(C3OC4(C)C(C)CC2C3=C)C5C1OC(=O)CBr

>  <smiles>  (2) 
[H]C([H])=C1C([H])(OC(=O)C([H])([H])Br)C2([H])C3([H])OC4([H])OC5([H])C([H])([H])C1([H])C1([H])C(=C([H])[H])C([H])(OC4(C([H])([H])[H])C([H])(C([H])([H])[H])C1([H])[H])C52O3

$$$$
0:0:2
     RDKit          3D

 53 58  0  0  1  0  0  0  0  0999 V2000
    4.0122   -1.5530    4.7634 C   0  0  0  0  0  0  0  0  0  0  0  0
    3.2983   -0.5010    5.2006 C   0  0  0  0  0  0  0  0  0  0  0  0
    3.6446    0.9410    4.5937 C   0  0  2  0  0  0  0  0  0  0  0  0
    3.9263    1.9919    5.6621 C   0  0  0  0  0  0  0  0  0  0  0  0
    2.5944    2.4268    6.2632 C   0  0  1  0  0  0  0  0  0  0  0  0
    2.2258    3.7549    6.1812 O   0  0  0  0  0  0  0  0  0  0  0  0
    0.8869    3.7532    6.4496 C   0  0  2  0  0  0  0  0  0  0  0  0
    0.5490    2.9321    7.6560 O   0  0  0  0  0  0  0  0  0  0  0  0
    0.6484    1.4327    7.7511 C   0  0  1  0  0  0  0  0  0  0  0  0
    0.0876    1.1121    6.6252 O   0  0  0  0  0  0  0  0  0  0  0  0
    1.4541    1.3117    6.0646 C   0  0  1  0  0  0  0  0  0  0  0  0
    0.6401    1.1094    4.7404 C   0  0  1  0  0  0  0  0  0  0  0  0
   -0.2643    2.2052    4.6475 O   0  0  0  0  0  0  0  0  0  0  0  0
    0.2076    3.5076    4.9802 C   0  0  1  0  0  0  0  0  0  0  0  0
   -1.1214    4.2854    4.9727 C   0  0  0  0  0  0  0  0  0  0  0  0
    1.1480    3.9075    3.7495 C   0  0  1  0  0  0  0  0  0  0  0  0
    1.4180    5.4260    3.6939 C   0  0  0  0  0  0  0  0  0  0  0  0
    2.4971    3.1352    3.3670 C   0  0  0  0  0  0  0  0  0  0  0  0
    2.7122    1.5636    3.4648 C   0  0  2  0  0  0  0  0  0  0  0  0
    1.3985    0.8880    3.4688 C   0  0  0  0  0  0  0  0  0  0  0  0
    0.9798    0.0822    2.4785 C   0  0  0  0  0  0  0  0  0  0  0  0
    1.8663    0.4662    7.1952 C   0  0  2  0  0  0  0  0  0  0  0  0
    2.2408   -0.7922    6.3592 C   0  0  1  0  0  0  0  0  0  0  0  0
    1.1640   -1.5902    5.8674 O   0  0  0  0  0  0  0  0  0  0  0  0
    0.3340   -2.2262    6.7094 C   0  0  0  0  0  0  0  0  0  0  0  0
    0.2955   -2.0806    7.9306 O   0  0  0  0  0  0  0  0  0  0  0  0
   -0.6085   -3.1746    5.9766 C   0  0  0  0  0  0  0  0  0  0  0  0
   -1.6688   -4.2547    7.2757 Br  0  0  0  0  0  0  0  0  0  0  0  0
    3.8393   -2.5427    5.1593 H   0  0  0  0  0  0  0  0  0  0  0  0
    4.7708   -1.4501    4.0018 H   0  0  0  0  0  0  0  0  0  0  0  0
    4.6102    0.8097    4.1027 H   0  0  0  0  0  0  0  0  0  0  0  0
    4.5694    1.5449    6.4207 H   0  0  0  0  0  0  0  0  0  0  0  0
    4.4924    2.8413    5.2846 H   0  0  0  0  0  0  0  0  0  0  0  0
    2.9145    2.5566    7.3027 H   0  0  0  0  0  0  0  0  0  0  0  0
    0.6846    4.7813    6.7555 H   0  0  0  0  0  0  0  0  0  0  0  0
    0.1195    1.0251    8.6153 H   0  0  0  0  0  0  0  0  0  0  0  0
   -0.0076    0.2239    4.7471 H   0  0  0  0  0  0  0  0  0  0  0  0
   -0.9768    5.3386    5.1980 H   0  0  0  0  0  0  0  0  0  0  0  0
   -1.8106    3.8836    5.7172 H   0  0  0  0  0  0  0  0  0  0  0  0
   -1.6157    4.2098    4.0034 H   0  0  0  0  0  0  0  0  0  0  0  0
    0.5100    3.7166    2.8851 H   0  0  0  0  0  0  0  0  0  0  0  0
    1.9981    5.7626    4.5527 H   0  0  0  0  0  0  0  0  0  0  0  0
    0.5037    6.0131    3.6557 H   0  0  0  0  0  0  0  0  0  0  0  0
    1.9807    5.6857    2.7994 H   0  0  0  0  0  0  0  0  0  0  0  0
    2.6094    3.3506    2.3026 H   0  0  0  0  0  0  0  0  0  0  0  0
    3.3469    3.6781    3.7693 H   0  0  0  0  0  0  0  0  0  0  0  0
    3.1957    1.2806    2.5270 H   0  0  0  0  0  0  0  0  0  0  0  0
    0.0288   -0.4228    2.5407 H   0  0  0  0  0  0  0  0  0  0  0  0
    1.5712   -0.0835    1.5865 H   0  0  0  0  0  0  0  0  0  0  0  0
    2.7146    0.6841    7.8463 H   0  0  0  0  0  0  0  0  0  0  0  0
    2.7750   -1.4643    7.0328 H   0  0  0  0  0  0  0  0  0  0  0  0
   -1.2964   -2.6138    5.3462 H   0  0  0  0  0  0  0  0  0  0  0  0
   -0.0402   -3.8560    5.3433 H   0  0  0  0  0  0  0  0  0  0  0  0
  1  2  2  0
  1 29  1  0
  1 30  1  0
  2 23  1  0
  2  3  1  0
  3 19  1  0
  3  4  1  0
  3 31  1  6
  4  5  1  0
  4 32  1  0
  4 33  1  0
  5 11  1  0
  5  6  1  0
  5 34  1  1
  6  7  1  0
  7 14  1  0
  7  8  1  0
  7 35  1  1
  8  9  1  0
  9 22  1  0
  9 10  1  0
  9 36  1  1
 11 10  1  1
 11 12  1  0
 11 22  1  0
 12 20  1  0
 12 13  1  0
 12 37  1  1
 13 14  1  0
 14 15  1  1
 14 16  1  0
 15 38  1  0
 15 39  1  0
 15 40  1  0
 16 17  1  0
 16 18  1  0
 16 41  1  6
 17 42  1  0
 17 43  1  0
 17 44  1  0
 18 19  1  0
 18 45  1  0
 18 46  1  0
 19 20  1  0
 19 47  1  6
 20 21  2  0
 21 48  1  0
 21 49  1  0
 22 23  1  0
 22 50  1  1
 23 24  1  0
 23 51  1  1
 24 25  1  0
 25 26  2  0
 25 27  1  0
 27 28  1  0
 27 52  1  0
 27 53  1  0
M  END
>  <i_m_ct_stereo_status>  (3) 
1

>  <s_m_source_file>  (3) 
/var/tmp/pbs.5076255.sched01/tmprv8ptrg5/026yimkau.sdf

>  <i_m_source_file_index>  (3) 
1

>  <i_lp_mmshare_version>  (3) 
48012

>  <i_f3d_flags>  (3) 
0

>  <s_epik_input>  (3) 
QnJbQ0gyXUMoPU8pT1tDQEBIXShDMT1bQ0gyXSlbQ0BASF0yW0NASF0oTzMpT1tDQEBIXShPNClbQ0BdKFtDSDNdKShPW0NASF01QzY9W0NIMl0pW0NAQEhdKFtDSDNdKVtDSDJdW0NASF02W0NASF0xW0NIMl1bQ0BASF00W0NAQF0yMzU=

>  <s_epik_cmdline>  (3) 
J2VwaWtfcHl0aG9uJywgJy1waHQnLCAnMi4wJywgJy1waCcsICc3LjAnLCAnLXRuJywgJzgnLCAnLW1hJywgJzIwMCcsICctaW1hZScsICc8aW5maWxlLm1hZT4nLCAnLW9tYWUnLCAnPG91dGZpbGUubWFlPic=

>  <r_lp_tautomer_probability>  (3) 
1

>  <r_epik_Ionization_Penalty>  (3) 
4.47298e-14

>  <r_epik_Ionization_Penalty_Charging>  (3) 
0

>  <r_epik_Ionization_Penalty_Neutral>  (3) 
4.47298e-14

>  <r_epik_State_Penalty>  (3) 
-0

>  <r_epik_Charging_Adjusted_Penalty>  (3) 
0

>  <i_epik_Tot_Q>  (3) 
0

>  <i_epik_Tot_abs_Q>  (3) 
0

>  <s_epik_Chemistry_Notes>  (3) 
This compound has an ester and may undergo hydrolysis at high or low pH. This compound contains an acetal/aminal-like group ( X-CH(R)-Y where X, Y are N, S, or O) that may be acid/base labile, releasing an aldehyde.

>  <s_lp_Force_Field>  (3) 
OPLS3e

>  <r_lp_Energy>  (3) 
247.283

>  <b_lp_Chiralities_Consistent>  (3) 
1

>  <s_lp_Variant>  (3) 
0:0-1

>  <s_i_glide_gridfile>  (3) 
pfpi4k_grid

>  <i_i_glide_lignum>  (3) 
1

>  <i_i_glide_rotatable_bonds>  (3) 
3

>  <r_i_docking_score>  (3) 
-1.51615

>  <r_i_glide_ligand_efficiency>  (3) 
-0.0541484

>  <r_i_glide_ligand_efficiency_sa>  (3) 
-0.164426

>  <r_i_glide_ligand_efficiency_ln>  (3) 
-0.349973

>  <r_i_glide_gscore>  (3) 
-1.51615

>  <r_i_glide_lipo>  (3) 
-0.0647598

>  <r_i_glide_hbond>  (3) 
-0.0145247

>  <r_i_glide_metal>  (3) 
-0

>  <r_i_glide_rewards>  (3) 
-0.318248

>  <r_i_glide_evdw>  (3) 
-18.9337

>  <r_i_glide_ecoul>  (3) 
-2.27179

>  <r_i_glide_erotb>  (3) 
0.195348

>  <r_i_glide_esite>  (3) 
-0.026518

>  <r_i_glide_emodel>  (3) 
-23.866

>  <r_i_glide_energy>  (3) 
-21.2055

>  <r_i_glide_einternal>  (3) 
0.786343

>  <r_i_glide_intrahb_reward>  (3) 
-0

>  <i_i_glide_confnum>  (3) 
3

>  <i_i_glide_posenum>  (3) 
3

>  <r_i_glide_eff_state_penalty>  (3) 
0

>  <ligand_id>  (3) 
0

>  <original_smiles>  (3) 
C=C1C2CC3OC4OC5OC3(C3OC4(C)C(C)CC2C3=C)C5C1OC(=O)CBr

>  <smiles>  (3) 
[H]C([H])=C1C([H])(OC(=O)C([H])([H])Br)C2([H])C3([H])OC4([H])OC5([H])C([H])([H])C1([H])C1([H])C(=C([H])[H])C([H])(OC4(C([H])([H])[H])C([H])(C([H])([H])[H])C1([H])[H])C52O3

$$$$
2:0:0
     RDKit          3D

 80 86  0  0  1  0  0  0  0  0999 V2000
   -0.0591   -6.6823    4.3776 C   0  0  0  0  0  0  0  0  0  0  0  0
    0.8062   -7.9652    4.1517 C   0  0  0  0  0  0  0  0  0  0  0  0
   -0.1646   -8.9947    4.8520 C   0  0  0  0  0  0  0  0  0  0  0  0
    1.0447   -8.2254    2.6488 C   0  0  2  0  0  0  0  0  0  0  0  0
    1.6603   -9.6485    2.7490 C   0  0  0  0  0  0  0  0  0  0  0  0
    2.4733   -9.6143    4.0890 C   0  0  0  0  0  0  0  0  0  0  0  0
    2.3469   -8.1537    4.5743 C   0  0  1  0  0  0  0  0  0  0  0  0
    3.2999   -7.0328    3.8574 C   0  0  1  0  0  0  0  0  0  0  0  0
    2.6628   -5.8294    4.6720 C   0  0  0  0  0  0  0  0  0  0  0  0
    4.7425   -6.6433    4.0122 C   0  0  1  0  0  0  0  0  0  0  0  0
    5.4264   -8.0128    3.7009 C   0  0  0  0  0  0  0  0  0  0  0  0
    4.7267   -8.5582    2.4516 C   0  0  1  0  0  0  0  0  0  0  0  0
    4.6574   -9.9469    2.2112 O   0  0  0  0  0  0  0  0  0  0  0  0
    3.5270   -7.5195    2.2811 C   0  0  2  0  0  0  0  0  0  0  0  0
    4.1093   -7.1552    0.8195 C   0  0  0  0  0  0  0  0  0  0  0  0
    2.1023   -7.2912    1.8758 C   0  0  2  0  0  0  0  0  0  0  0  0
    2.2112   -5.6230    1.8168 C   0  0  0  0  0  0  0  0  0  0  0  0
    3.5981   -4.6543    2.1425 C   0  0  2  0  0  0  0  0  0  0  0  0
    2.9922   -3.3875    2.8583 C   0  0  0  0  0  0  0  0  0  0  0  0
    4.1706   -4.0051    0.7502 C   0  0  2  0  0  0  0  0  0  0  0  0
    5.6260   -3.5027    0.6173 C   0  0  2  0  0  0  0  0  0  0  0  0
    5.9533   -2.2074    1.3323 C   0  0  0  0  0  0  0  0  0  0  0  0
    5.2318   -1.0848    1.4688 C   0  0  0  0  0  0  0  0  0  0  0  0
    3.8552   -0.7730    1.0410 C   0  0  0  0  0  0  0  0  0  0  0  0
    3.3924    0.3387    1.2779 O   0  0  0  0  0  0  0  0  0  0  0  0
    3.0261   -1.7486    0.5218 O   0  0  0  0  0  0  0  0  0  0  0  0
    3.3842   -2.9529   -0.1297 C   0  0  2  0  0  0  0  0  0  0  0  0
    2.2105   -3.5190   -0.6607 O   0  0  0  0  0  0  0  0  0  0  0  0
    4.3374   -2.7275   -1.3493 C   0  0  1  0  0  0  0  0  0  0  0  0
    4.3127   -1.4297   -1.9169 O   0  0  0  0  0  0  0  0  0  0  0  0
    5.7327   -3.1739   -0.8927 C   0  0  0  0  0  0  0  0  0  0  0  0
    6.5953   -4.6447    0.9901 C   0  0  1  0  0  0  0  0  0  0  0  0
    7.9564   -4.2573    0.9030 O   0  0  0  0  0  0  0  0  0  0  0  0
    6.3177   -5.4092    2.3085 C   0  0  0  0  0  0  0  0  0  0  0  0
    4.9300   -5.2642    3.0822 C   0  0  2  0  0  0  0  0  0  0  0  0
    5.3936   -4.1568    4.1153 C   0  0  0  0  0  0  0  0  0  0  0  0
   -1.1276   -6.8726    4.3000 H   0  0  0  0  0  0  0  0  0  0  0  0
    0.0620   -5.9257    3.6203 H   0  0  0  0  0  0  0  0  0  0  0  0
    0.0803   -6.2525    5.3675 H   0  0  0  0  0  0  0  0  0  0  0  0
    0.0488  -10.0554    4.7675 H   0  0  0  0  0  0  0  0  0  0  0  0
   -1.1781   -8.9458    4.4471 H   0  0  0  0  0  0  0  0  0  0  0  0
   -0.2320   -8.7923    5.9222 H   0  0  0  0  0  0  0  0  0  0  0  0
    0.0992   -8.2569    2.1047 H   0  0  0  0  0  0  0  0  0  0  0  0
    0.8862  -10.4160    2.7936 H   0  0  0  0  0  0  0  0  0  0  0  0
    2.2397   -9.9042    1.8654 H   0  0  0  0  0  0  0  0  0  0  0  0
    2.0372  -10.2968    4.8149 H   0  0  0  0  0  0  0  0  0  0  0  0
    3.4713  -10.0169    4.1237 H   0  0  0  0  0  0  0  0  0  0  0  0
    2.4812   -8.1730    5.6573 H   0  0  0  0  0  0  0  0  0  0  0  0
    3.3335   -5.1139    5.0985 H   0  0  0  0  0  0  0  0  0  0  0  0
    2.2524   -6.1282    5.6332 H   0  0  0  0  0  0  0  0  0  0  0  0
    1.8764   -5.2727    4.2202 H   0  0  0  0  0  0  0  0  0  0  0  0
    5.0018   -6.4397    5.0546 H   0  0  0  0  0  0  0  0  0  0  0  0
    6.5095   -7.9451    3.6021 H   0  0  0  0  0  0  0  0  0  0  0  0
    5.2604   -8.6851    4.5406 H   0  0  0  0  0  0  0  0  0  0  0  0
    5.5837   -8.4322    1.7846 H   0  0  0  0  0  0  0  0  0  0  0  0
    4.2909  -10.1193    1.3534 H   0  0  0  0  0  0  0  0  0  0  0  0
    4.1908   -8.0831    0.2478 H   0  0  0  0  0  0  0  0  0  0  0  0
    5.0871   -6.7427    0.7259 H   0  0  0  0  0  0  0  0  0  0  0  0
    3.4981   -6.6499    0.0791 H   0  0  0  0  0  0  0  0  0  0  0  0
    1.8795   -7.6488    0.8779 H   0  0  0  0  0  0  0  0  0  0  0  0
    1.9629   -5.4147    0.7813 H   0  0  0  0  0  0  0  0  0  0  0  0
    1.3305   -5.1637    2.2465 H   0  0  0  0  0  0  0  0  0  0  0  0
    3.7100   -2.5802    2.9440 H   0  0  0  0  0  0  0  0  0  0  0  0
    2.6438   -3.4767    3.8775 H   0  0  0  0  0  0  0  0  0  0  0  0
    2.1192   -3.0067    2.3314 H   0  0  0  0  0  0  0  0  0  0  0  0
    4.1994   -4.8277    0.0560 H   0  0  0  0  0  0  0  0  0  0  0  0
    6.9419   -2.1635    1.7519 H   0  0  0  0  0  0  0  0  0  0  0  0
    5.7155   -0.2834    2.0010 H   0  0  0  0  0  0  0  0  0  0  0  0
    1.7601   -2.8220   -1.1206 H   0  0  0  0  0  0  0  0  0  0  0  0
    4.0360   -3.4271   -2.1380 H   0  0  0  0  0  0  0  0  0  0  0  0
    3.4059   -1.1962   -2.0537 H   0  0  0  0  0  0  0  0  0  0  0  0
    6.4977   -2.4317   -1.1191 H   0  0  0  0  0  0  0  0  0  0  0  0
    6.0024   -4.0563   -1.4705 H   0  0  0  0  0  0  0  0  0  0  0  0
    6.5335   -5.3804    0.1885 H   0  0  0  0  0  0  0  0  0  0  0  0
    8.1592   -3.6524    1.6008 H   0  0  0  0  0  0  0  0  0  0  0  0
    6.5603   -6.4403    2.0899 H   0  0  0  0  0  0  0  0  0  0  0  0
    7.1419   -5.1977    2.9863 H   0  0  0  0  0  0  0  0  0  0  0  0
    5.8103   -3.2911    3.6125 H   0  0  0  0  0  0  0  0  0  0  0  0
    6.1618   -4.5266    4.7982 H   0  0  0  0  0  0  0  0  0  0  0  0
    4.6538   -3.7093    4.7692 H   0  0  0  0  0  0  0  0  0  0  0  0
  1  2  1  0
  1 37  1  0
  1 38  1  0
  1 39  1  0
  2  7  1  0
  2  3  1  0
  2  4  1  0
  3 40  1  0
  3 41  1  0
  3 42  1  0
  4 16  1  0
  4  5  1  0
  4 43  1  6
  5  6  1  0
  5 44  1  0
  5 45  1  0
  6  7  1  0
  6 46  1  0
  6 47  1  0
  7  8  1  0
  7 48  1  1
  8 14  1  0
  8  9  1  6
  8 10  1  0
  9 49  1  0
  9 50  1  0
  9 51  1  0
 10 35  1  0
 10 11  1  0
 10 52  1  1
 11 12  1  0
 11 53  1  0
 11 54  1  0
 12 13  1  0
 12 14  1  0
 12 55  1  6
 13 56  1  0
 14 15  1  6
 14 16  1  0
 15 57  1  0
 15 58  1  0
 15 59  1  0
 16 17  1  0
 16 60  1  6
 17 18  1  0
 17 61  1  0
 17 62  1  0
 18 35  1  0
 18 19  1  1
 18 20  1  0
 19 63  1  0
 19 64  1  0
 19 65  1  0
 20 27  1  0
 20 21  1  0
 20 66  1  6
 21 31  1  6
 21 22  1  0
 21 32  1  0
 22 23  2  0
 22 67  1  0
 23 24  1  0
 23 68  1  0
 24 25  2  0
 24 26  1  0
 26 27  1  0
 27 28  1  6
 27 29  1  0
 28 69  1  0
 29 30  1  0
 29 31  1  0
 29 70  1  6
 30 71  1  0
 31 72  1  0
 31 73  1  0
 32 33  1  0
 32 34  1  0
 32 74  1  6
 33 75  1  0
 34 35  1  0
 34 76  1  0
 34 77  1  0
 35 36  1  1
 36 78  1  0
 36 79  1  0
 36 80  1  0
M  END
>  <i_m_ct_stereo_status>  (4) 
1

>  <s_m_source_file>  (4) 
/var/tmp/pbs.5076255.sched01/tmprv8ptrg5/026yimkau.sdf

>  <i_m_source_file_index>  (4) 
3

>  <i_lp_mmshare_version>  (4) 
48012

>  <i_f3d_flags>  (4) 
0

>  <s_epik_input>  (4) 
W0NIMl0xW0NAQEhdKFtPSF0pW0NAQF0yKFtDSDNdKVtDQEhdKFtDSDJdMylbQ0BASF0oW0NIMl1bQ0gyXTQpQyhbQ0gzXSkoW0NIM10pW0NAQEhdNFtDQEBdMihbQ0gzXSlbQ0BASF0xW0NAQF0oW0NIM10pKFtDSDJdW0NAQEhdNVtPSF0pW0NAQF0zKFtDSDNdKVtDQEhdKFtDQF01NjcpW0NAXShbT0hdKShbQ0BASF0oW09IXSlbQ0gyXTcpT0MoPU8pW0NIXT1bQ0hdNg==

>  <s_epik_cmdline>  (4) 
J2VwaWtfcHl0aG9uJywgJy1waHQnLCAnMi4wJywgJy1waCcsICc3LjAnLCAnLXRuJywgJzgnLCAnLW1hJywgJzIwMCcsICctaW1hZScsICc8aW5maWxlLm1hZT4nLCAnLW9tYWUnLCAnPG91dGZpbGUubWFlPic=

>  <r_lp_tautomer_probability>  (4) 
1

>  <r_epik_Ionization_Penalty>  (4) 
8.99935e-06

>  <r_epik_Ionization_Penalty_Charging>  (4) 
0

>  <r_epik_Ionization_Penalty_Neutral>  (4) 
8.99935e-06

>  <r_epik_State_Penalty>  (4) 
-0

>  <r_epik_Charging_Adjusted_Penalty>  (4) 
0

>  <i_epik_Tot_Q>  (4) 
0

>  <i_epik_Tot_abs_Q>  (4) 
0

>  <s_epik_Chemistry_Notes>  (4) 
This compound has an ester and may undergo hydrolysis at high or low pH.

>  <s_lp_Force_Field>  (4) 
OPLS3e

>  <r_lp_Energy>  (4) 
418.576

>  <b_lp_Chiralities_Consistent>  (4) 
1

>  <s_lp_Variant>  (4) 
2:0-1

>  <s_i_glide_gridfile>  (4) 
pfpi4k_grid

>  <i_i_glide_lignum>  (4) 
3

>  <i_i_glide_rotatable_bonds>  (4) 
4

>  <r_i_docking_score>  (4) 
-3.02419

>  <r_i_glide_ligand_efficiency>  (4) 
-0.0840052

>  <r_i_glide_ligand_efficiency_sa>  (4) 
-0.277379

>  <r_i_glide_ligand_efficiency_ln>  (4) 
-0.659796

>  <r_i_glide_gscore>  (4) 
-3.02419

>  <r_i_glide_lipo>  (4) 
-0.742795

>  <r_i_glide_hbond>  (4) 
-0.0408365

>  <r_i_glide_metal>  (4) 
-0

>  <r_i_glide_rewards>  (4) 
0

>  <r_i_glide_evdw>  (4) 
-36.5899

>  <r_i_glide_ecoul>  (4) 
-2.61284

>  <r_i_glide_erotb>  (4) 
0

>  <r_i_glide_esite>  (4) 
-0.019134

>  <r_i_glide_emodel>  (4) 
-45.9674

>  <r_i_glide_energy>  (4) 
-39.2028

>  <r_i_glide_einternal>  (4) 
1.15852

>  <r_i_glide_intrahb_reward>  (4) 
-0

>  <i_i_glide_confnum>  (4) 
1

>  <i_i_glide_posenum>  (4) 
26

>  <r_i_glide_eff_state_penalty>  (4) 
0

>  <ligand_id>  (4) 
2

>  <original_smiles>  (4) 
CC1(C)C2CCC1C1(C)C3CC(O)C1(C)C2CC1(C)C2C4(C=CC(=O)OC2(O)C(O)C4)C(O)CC31C

>  <smiles>  (4) 
[H]OC1([H])C([H])([H])C23C([H])=C([H])C(=O)OC1(O[H])C2([H])C1(C([H])([H])[H])C([H])([H])C2([H])C4([H])C([H])([H])C([H])([H])C([H])(C4(C([H])([H])[H])C([H])([H])[H])C4(C([H])([H])[H])C([H])(C([H])([H])C([H])(O[H])C24C([H])([H])[H])C1(C([H])([H])[H])C([H])([H])C3([H])O[H]

$$$$
2:0:1
     RDKit          3D

 80 86  0  0  1  0  0  0  0  0999 V2000
   -0.0562   -6.6713    4.3677 C   0  0  0  0  0  0  0  0  0  0  0  0
    0.8119   -7.9526    4.1456 C   0  0  0  0  0  0  0  0  0  0  0  0
   -0.1603   -8.9841    4.8415 C   0  0  0  0  0  0  0  0  0  0  0  0
    1.0589   -8.2118    2.6447 C   0  0  2  0  0  0  0  0  0  0  0  0
    1.6785   -9.6330    2.7478 C   0  0  0  0  0  0  0  0  0  0  0  0
    2.4846   -9.5963    4.0907 C   0  0  0  0  0  0  0  0  0  0  0  0
    2.3526   -8.1366    4.5760 C   0  0  1  0  0  0  0  0  0  0  0  0
    3.3058   -7.0126    3.8620 C   0  0  1  0  0  0  0  0  0  0  0  0
    2.6626   -5.8097    4.6745 C   0  0  0  0  0  0  0  0  0  0  0  0
    4.7468   -6.6193    4.0237 C   0  0  1  0  0  0  0  0  0  0  0  0
    5.4354   -7.9859    3.7165 C   0  0  0  0  0  0  0  0  0  0  0  0
    4.7427   -8.5339    2.4648 C   0  0  1  0  0  0  0  0  0  0  0  0
    4.6805   -9.9222    2.2209 O   0  0  0  0  0  0  0  0  0  0  0  0
    3.5411   -7.4987    2.2866 C   0  0  2  0  0  0  0  0  0  0  0  0
    4.1275   -7.1360    0.8253 C   0  0  0  0  0  0  0  0  0  0  0  0
    2.1166   -7.2754    1.8767 C   0  0  2  0  0  0  0  0  0  0  0  0
    2.2220   -5.6068    1.8166 C   0  0  0  0  0  0  0  0  0  0  0  0
    3.6033   -4.6342    2.1482 C   0  0  2  0  0  0  0  0  0  0  0  0
    2.9924   -3.3681    2.8611 C   0  0  0  0  0  0  0  0  0  0  0  0
    4.1766   -3.9870    0.7550 C   0  0  2  0  0  0  0  0  0  0  0  0
    5.6311   -3.4803    0.6270 C   0  0  2  0  0  0  0  0  0  0  0  0
    5.9538   -2.1825    1.3430 C   0  0  0  0  0  0  0  0  0  0  0  0
    5.2288   -1.0635    1.4765 C   0  0  0  0  0  0  0  0  0  0  0  0
    3.8528   -0.7568    1.0422 C   0  0  0  0  0  0  0  0  0  0  0  0
    3.3849    0.3554    1.2722 O   0  0  0  0  0  0  0  0  0  0  0  0
    3.0272   -1.7334    0.5215 O   0  0  0  0  0  0  0  0  0  0  0  0
    3.3887   -2.9352   -0.1267 C   0  0  2  0  0  0  0  0  0  0  0  0
    2.2108   -3.5025   -0.6579 O   0  0  0  0  0  0  0  0  0  0  0  0
    4.3460   -2.7102   -1.3432 C   0  0  1  0  0  0  0  0  0  0  0  0
    4.3229   -1.4117   -1.9118 O   0  0  0  0  0  0  0  0  0  0  0  0
    5.7435   -3.1495   -0.8806 C   0  0  0  0  0  0  0  0  0  0  0  0
    6.6034   -4.6181    1.0079 C   0  0  1  0  0  0  0  0  0  0  0  0
    7.9599   -4.2134    0.9440 O   0  0  0  0  0  0  0  0  0  0  0  0
    6.3230   -5.3801    2.3265 C   0  0  0  0  0  0  0  0  0  0  0  0
    4.9340   -5.2395    3.0937 C   0  0  2  0  0  0  0  0  0  0  0  0
    5.3901   -4.1298    4.1281 C   0  0  0  0  0  0  0  0  0  0  0  0
   -1.1247   -6.8635    4.2853 H   0  0  0  0  0  0  0  0  0  0  0  0
    0.0668   -5.9149    3.6117 H   0  0  0  0  0  0  0  0  0  0  0  0
    0.0767   -6.2411    5.3586 H   0  0  0  0  0  0  0  0  0  0  0  0
    0.0571  -10.0436    4.7576 H   0  0  0  0  0  0  0  0  0  0  0  0
   -1.1709   -8.9373    4.4331 H   0  0  0  0  0  0  0  0  0  0  0  0
   -0.2341   -8.7806    5.9110 H   0  0  0  0  0  0  0  0  0  0  0  0
    0.1151   -8.2459    2.0956 H   0  0  0  0  0  0  0  0  0  0  0  0
    0.9072  -10.4034    2.7881 H   0  0  0  0  0  0  0  0  0  0  0  0
    2.2638   -9.8860    1.8673 H   0  0  0  0  0  0  0  0  0  0  0  0
    2.0462  -10.2799    4.8140 H   0  0  0  0  0  0  0  0  0  0  0  0
    3.4834   -9.9962    4.1287 H   0  0  0  0  0  0  0  0  0  0  0  0
    2.4820   -8.1552    5.6583 H   0  0  0  0  0  0  0  0  0  0  0  0
    3.3293   -5.0921    5.1018 H   0  0  0  0  0  0  0  0  0  0  0  0
    2.2497   -6.1101    5.6332 H   0  0  0  0  0  0  0  0  0  0  0  0
    1.8759   -5.2564    4.2192 H   0  0  0  0  0  0  0  0  0  0  0  0
    5.0009   -6.4137    5.0671 H   0  0  0  0  0  0  0  0  0  0  0  0
    6.5203   -7.9164    3.6238 H   0  0  0  0  0  0  0  0  0  0  0  0
    5.2676   -8.6582    4.5579 H   0  0  0  0  0  0  0  0  0  0  0  0
    5.6030   -8.4041    1.8011 H   0  0  0  0  0  0  0  0  0  0  0  0
    4.3434  -10.0965    1.3514 H   0  0  0  0  0  0  0  0  0  0  0  0
    4.2084   -8.0655    0.2570 H   0  0  0  0  0  0  0  0  0  0  0  0
    5.1037   -6.7179    0.7372 H   0  0  0  0  0  0  0  0  0  0  0  0
    3.5155   -6.6408    0.0801 H   0  0  0  0  0  0  0  0  0  0  0  0
    1.8986   -7.6334    0.8787 H   0  0  0  0  0  0  0  0  0  0  0  0
    1.9775   -5.4014    0.7801 H   0  0  0  0  0  0  0  0  0  0  0  0
    1.3402   -5.1495    2.2424 H   0  0  0  0  0  0  0  0  0  0  0  0
    3.7086   -2.5597    2.9496 H   0  0  0  0  0  0  0  0  0  0  0  0
    2.6400   -3.4580    3.8780 H   0  0  0  0  0  0  0  0  0  0  0  0
    2.1211   -2.9892    2.3302 H   0  0  0  0  0  0  0  0  0  0  0  0
    4.2117   -4.8103    0.0631 H   0  0  0  0  0  0  0  0  0  0  0  0
    6.9439   -2.1453    1.7629 H   0  0  0  0  0  0  0  0  0  0  0  0
    5.7096   -0.2602    2.0113 H   0  0  0  0  0  0  0  0  0  0  0  0
    1.7607   -2.8095   -1.1220 H   0  0  0  0  0  0  0  0  0  0  0  0
    4.0514   -3.4098   -2.1338 H   0  0  0  0  0  0  0  0  0  0  0  0
    3.4156   -1.1814   -2.0592 H   0  0  0  0  0  0  0  0  0  0  0  0
    6.5070   -2.4020   -1.1013 H   0  0  0  0  0  0  0  0  0  0  0  0
    6.0229   -4.0298   -1.4587 H   0  0  0  0  0  0  0  0  0  0  0  0
    6.5562   -5.3524    0.2061 H   0  0  0  0  0  0  0  0  0  0  0  0
    8.5095   -4.9403    1.1967 H   0  0  0  0  0  0  0  0  0  0  0  0
    6.5701   -6.4112    2.1098 H   0  0  0  0  0  0  0  0  0  0  0  0
    7.1431   -5.1635    3.0059 H   0  0  0  0  0  0  0  0  0  0  0  0
    5.8071   -3.2636    3.6261 H   0  0  0  0  0  0  0  0  0  0  0  0
    6.1579   -4.4967    4.8134 H   0  0  0  0  0  0  0  0  0  0  0  0
    4.6478   -3.6826    4.7787 H   0  0  0  0  0  0  0  0  0  0  0  0
  1  2  1  0
  1 37  1  0
  1 38  1  0
  1 39  1  0
  2  7  1  0
  2  3  1  0
  2  4  1  0
  3 40  1  0
  3 41  1  0
  3 42  1  0
  4 16  1  0
  4  5  1  0
  4 43  1  6
  5  6  1  0
  5 44  1  0
  5 45  1  0
  6  7  1  0
  6 46  1  0
  6 47  1  0
  7  8  1  0
  7 48  1  1
  8 14  1  0
  8  9  1  6
  8 10  1  0
  9 49  1  0
  9 50  1  0
  9 51  1  0
 10 35  1  0
 10 11  1  0
 10 52  1  1
 11 12  1  0
 11 53  1  0
 11 54  1  0
 12 13  1  0
 12 14  1  0
 12 55  1  6
 13 56  1  0
 14 15  1  6
 14 16  1  0
 15 57  1  0
 15 58  1  0
 15 59  1  0
 16 17  1  0
 16 60  1  6
 17 18  1  0
 17 61  1  0
 17 62  1  0
 18 35  1  0
 18 19  1  1
 18 20  1  0
 19 63  1  0
 19 64  1  0
 19 65  1  0
 20 27  1  0
 20 21  1  0
 20 66  1  6
 21 31  1  6
 21 22  1  0
 21 32  1  0
 22 23  2  0
 22 67  1  0
 23 24  1  0
 23 68  1  0
 24 25  2  0
 24 26  1  0
 26 27  1  0
 27 28  1  6
 27 29  1  0
 28 69  1  0
 29 30  1  0
 29 31  1  0
 29 70  1  6
 30 71  1  0
 31 72  1  0
 31 73  1  0
 32 33  1  0
 32 34  1  0
 32 74  1  6
 33 75  1  0
 34 35  1  0
 34 76  1  0
 34 77  1  0
 35 36  1  1
 36 78  1  0
 36 79  1  0
 36 80  1  0
M  END
>  <i_m_ct_stereo_status>  (5) 
1

>  <s_m_source_file>  (5) 
/var/tmp/pbs.5076255.sched01/tmprv8ptrg5/026yimkau.sdf

>  <i_m_source_file_index>  (5) 
3

>  <i_lp_mmshare_version>  (5) 
48012

>  <i_f3d_flags>  (5) 
0

>  <s_epik_input>  (5) 
W0NIMl0xW0NAQEhdKFtPSF0pW0NAQF0yKFtDSDNdKVtDQEhdKFtDSDJdMylbQ0BASF0oW0NIMl1bQ0gyXTQpQyhbQ0gzXSkoW0NIM10pW0NAQEhdNFtDQEBdMihbQ0gzXSlbQ0BASF0xW0NAQF0oW0NIM10pKFtDSDJdW0NAQEhdNVtPSF0pW0NAQF0zKFtDSDNdKVtDQEhdKFtDQF01NjcpW0NAXShbT0hdKShbQ0BASF0oW09IXSlbQ0gyXTcpT0MoPU8pW0NIXT1bQ0hdNg==

>  <s_epik_cmdline>  (5) 
J2VwaWtfcHl0aG9uJywgJy1waHQnLCAnMi4wJywgJy1waCcsICc3LjAnLCAnLXRuJywgJzgnLCAnLW1hJywgJzIwMCcsICctaW1hZScsICc8aW5maWxlLm1hZT4nLCAnLW9tYWUnLCAnPG91dGZpbGUubWFlPic=

>  <r_lp_tautomer_probability>  (5) 
1

>  <r_epik_Ionization_Penalty>  (5) 
8.99935e-06

>  <r_epik_Ionization_Penalty_Charging>  (5) 
0

>  <r_epik_Ionization_Penalty_Neutral>  (5) 
8.99935e-06

>  <r_epik_State_Penalty>  (5) 
-0

>  <r_epik_Charging_Adjusted_Penalty>  (5) 
0

>  <i_epik_Tot_Q>  (5) 
0

>  <i_epik_Tot_abs_Q>  (5) 
0

>  <s_epik_Chemistry_Notes>  (5) 
This compound has an ester and may undergo hydrolysis at high or low pH.

>  <s_lp_Force_Field>  (5) 
OPLS3e

>  <r_lp_Energy>  (5) 
418.576

>  <b_lp_Chiralities_Consistent>  (5) 
1

>  <s_lp_Variant>  (5) 
2:0-1

>  <s_i_glide_gridfile>  (5) 
pfpi4k_grid

>  <i_i_glide_lignum>  (5) 
3

>  <i_i_glide_rotatable_bonds>  (5) 
4

>  <r_i_docking_score>  (5) 
-2.99159

>  <r_i_glide_ligand_efficiency>  (5) 
-0.0830996

>  <r_i_glide_ligand_efficiency_sa>  (5) 
-0.274389

>  <r_i_glide_ligand_efficiency_ln>  (5) 
-0.652683

>  <r_i_glide_gscore>  (5) 
-2.99159

>  <r_i_glide_lipo>  (5) 
-0.739272

>  <r_i_glide_hbond>  (5) 
-0.0358861

>  <r_i_glide_metal>  (5) 
-0

>  <r_i_glide_rewards>  (5) 
0

>  <r_i_glide_evdw>  (5) 
-36.476

>  <r_i_glide_ecoul>  (5) 
-2.48633

>  <r_i_glide_erotb>  (5) 
0

>  <r_i_glide_esite>  (5) 
-0.0196782

>  <r_i_glide_emodel>  (5) 
-45.4909

>  <r_i_glide_energy>  (5) 
-38.9623

>  <r_i_glide_einternal>  (5) 
1.49916

>  <r_i_glide_intrahb_reward>  (5) 
-0

>  <i_i_glide_confnum>  (5) 
2

>  <i_i_glide_posenum>  (5) 
8

>  <r_i_glide_eff_state_penalty>  (5) 
0

>  <ligand_id>  (5) 
2

>  <original_smiles>  (5) 
CC1(C)C2CCC1C1(C)C3CC(O)C1(C)C2CC1(C)C2C4(C=CC(=O)OC2(O)C(O)C4)C(O)CC31C

>  <smiles>  (5) 
[H]OC1([H])C([H])([H])C23C([H])=C([H])C(=O)OC1(O[H])C2([H])C1(C([H])([H])[H])C([H])([H])C2([H])C4([H])C([H])([H])C([H])([H])C([H])(C4(C([H])([H])[H])C([H])([H])[H])C4(C([H])([H])[H])C([H])(C([H])([H])C([H])(O[H])C24C([H])([H])[H])C1(C([H])([H])[H])C([H])([H])C3([H])O[H]

$$$$
2:0:2
     RDKit          3D

 80 86  0  0  1  0  0  0  0  0999 V2000
    4.3891   -2.9715    2.7746 C   0  0  0  0  0  0  0  0  0  0  0  0
    3.3166   -2.3340    3.7179 C   0  0  0  0  0  0  0  0  0  0  0  0
    3.5638   -0.8218    3.3193 C   0  0  0  0  0  0  0  0  0  0  0  0
    1.8996   -2.8623    3.3996 C   0  0  2  0  0  0  0  0  0  0  0  0
    1.0781   -1.8797    4.2787 C   0  0  0  0  0  0  0  0  0  0  0  0
    1.9958   -1.6277    5.5257 C   0  0  0  0  0  0  0  0  0  0  0  0
    3.2001   -2.5691    5.3051 C   0  0  1  0  0  0  0  0  0  0  0  0
    2.9916   -4.1544    5.6568 C   0  0  1  0  0  0  0  0  0  0  0  0
    4.4469   -4.5554    5.1645 C   0  0  0  0  0  0  0  0  0  0  0  0
    2.9892   -4.9403    6.9382 C   0  0  1  0  0  0  0  0  0  0  0  0
    1.8481   -4.1956    7.7071 C   0  0  0  0  0  0  0  0  0  0  0  0
    0.7069   -4.0199    6.6958 C   0  0  1  0  0  0  0  0  0  0  0  0
   -0.2539   -2.9772    6.7990 O   0  0  0  0  0  0  0  0  0  0  0  0
    1.3942   -4.5216    5.3426 C   0  0  2  0  0  0  0  0  0  0  0  0
    0.2652   -5.6691    5.2231 C   0  0  0  0  0  0  0  0  0  0  0  0
    1.5170   -4.3592    3.8552 C   0  0  2  0  0  0  0  0  0  0  0  0
    2.3456   -5.7904    3.6039 C   0  0  0  0  0  0  0  0  0  0  0  0
    2.8084   -6.9586    4.7839 C   0  0  2  0  0  0  0  0  0  0  0  0
    4.2057   -7.4690    4.2661 C   0  0  0  0  0  0  0  0  0  0  0  0
    1.8973   -8.3072    4.6222 C   0  0  2  0  0  0  0  0  0  0  0  0
    1.7234   -9.3093    5.7813 C   0  0  2  0  0  0  0  0  0  0  0  0
    2.9192  -10.1822    6.0952 C   0  0  0  0  0  0  0  0  0  0  0  0
    3.7879  -10.7830    5.2694 C   0  0  0  0  0  0  0  0  0  0  0  0
    3.9184  -10.7229    3.7996 C   0  0  0  0  0  0  0  0  0  0  0  0
    4.8094  -11.3736    3.2646 O   0  0  0  0  0  0  0  0  0  0  0  0
    3.1562   -9.8549    3.0295 O   0  0  0  0  0  0  0  0  0  0  0  0
    1.9097   -9.2598    3.3513 C   0  0  2  0  0  0  0  0  0  0  0  0
    1.4272   -8.5753    2.2099 O   0  0  0  0  0  0  0  0  0  0  0  0
    0.8181  -10.3192    3.7133 C   0  0  1  0  0  0  0  0  0  0  0  0
    1.0201  -11.6242    3.2119 O   0  0  0  0  0  0  0  0  0  0  0  0
    0.6395  -10.2584    5.2326 C   0  0  0  0  0  0  0  0  0  0  0  0
    1.1840   -8.5821    7.0259 C   0  0  1  0  0  0  0  0  0  0  0  0
    1.0225   -9.4530    8.1359 O   0  0  0  0  0  0  0  0  0  0  0  0
    1.9030   -7.2782    7.4476 C   0  0  0  0  0  0  0  0  0  0  0  0
    2.9314   -6.5492    6.4732 C   0  0  2  0  0  0  0  0  0  0  0  0
    4.2496   -7.1919    7.0834 C   0  0  0  0  0  0  0  0  0  0  0  0
    4.4757   -2.4559    1.8192 H   0  0  0  0  0  0  0  0  0  0  0  0
    4.1483   -3.9657    2.4330 H   0  0  0  0  0  0  0  0  0  0  0  0
    5.3925   -2.9495    3.1977 H   0  0  0  0  0  0  0  0  0  0  0  0
    2.8803   -0.0635    3.6881 H   0  0  0  0  0  0  0  0  0  0  0  0
    3.5022   -0.6673    2.2405 H   0  0  0  0  0  0  0  0  0  0  0  0
    4.5602   -0.5026    3.6314 H   0  0  0  0  0  0  0  0  0  0  0  0
    1.6699   -2.7225    2.3423 H   0  0  0  0  0  0  0  0  0  0  0  0
    0.8887   -0.9449    3.7504 H   0  0  0  0  0  0  0  0  0  0  0  0
    0.0886   -2.2727    4.4974 H   0  0  0  0  0  0  0  0  0  0  0  0
    2.3281   -0.5922    5.5450 H   0  0  0  0  0  0  0  0  0  0  0  0
    1.5843   -1.6575    6.5216 H   0  0  0  0  0  0  0  0  0  0  0  0
    4.0417   -2.1361    5.8502 H   0  0  0  0  0  0  0  0  0  0  0  0
    5.0163   -5.2118    5.7907 H   0  0  0  0  0  0  0  0  0  0  0  0
    5.1658   -3.7424    5.2290 H   0  0  0  0  0  0  0  0  0  0  0  0
    4.5622   -4.9157    4.1694 H   0  0  0  0  0  0  0  0  0  0  0  0
    3.8852   -4.7536    7.5348 H   0  0  0  0  0  0  0  0  0  0  0  0
    1.5494   -4.7019    8.6258 H   0  0  0  0  0  0  0  0  0  0  0  0
    2.2200   -3.2237    8.0281 H   0  0  0  0  0  0  0  0  0  0  0  0
    0.0390   -4.7336    7.1822 H   0  0  0  0  0  0  0  0  0  0  0  0
    0.1201   -2.1980    6.4185 H   0  0  0  0  0  0  0  0  0  0  0  0
   -0.7075   -5.1804    5.2709 H   0  0  0  0  0  0  0  0  0  0  0  0
    0.1929   -6.4137    5.9819 H   0  0  0  0  0  0  0  0  0  0  0  0
    0.0680   -6.1732    4.2824 H   0  0  0  0  0  0  0  0  0  0  0  0
    0.5652   -4.4362    3.3277 H   0  0  0  0  0  0  0  0  0  0  0  0
    1.6781   -6.3189    2.9350 H   0  0  0  0  0  0  0  0  0  0  0  0
    3.1409   -5.6573    2.8836 H   0  0  0  0  0  0  0  0  0  0  0  0
    4.5385   -8.3600    4.7861 H   0  0  0  0  0  0  0  0  0  0  0  0
    5.0684   -6.8254    4.3666 H   0  0  0  0  0  0  0  0  0  0  0  0
    4.1823   -7.6926    3.2009 H   0  0  0  0  0  0  0  0  0  0  0  0
    0.8904   -7.9351    4.5490 H   0  0  0  0  0  0  0  0  0  0  0  0
    3.0544  -10.4044    7.1429 H   0  0  0  0  0  0  0  0  0  0  0  0
    4.5296  -11.3962    5.7543 H   0  0  0  0  0  0  0  0  0  0  0  0
    1.2219   -9.2248    1.5486 H   0  0  0  0  0  0  0  0  0  0  0  0
   -0.1299   -9.9848    3.2818 H   0  0  0  0  0  0  0  0  0  0  0  0
    1.7390  -12.0348    3.6683 H   0  0  0  0  0  0  0  0  0  0  0  0
    0.6497  -11.2479    5.6836 H   0  0  0  0  0  0  0  0  0  0  0  0
   -0.3478   -9.8491    5.4322 H   0  0  0  0  0  0  0  0  0  0  0  0
    0.1532   -8.3049    6.8109 H   0  0  0  0  0  0  0  0  0  0  0  0
    1.0218  -10.3596    7.8386 H   0  0  0  0  0  0  0  0  0  0  0  0
    1.1177   -6.6170    7.7844 H   0  0  0  0  0  0  0  0  0  0  0  0
    2.3756   -7.4772    8.4092 H   0  0  0  0  0  0  0  0  0  0  0  0
    4.1943   -8.2740    7.1529 H   0  0  0  0  0  0  0  0  0  0  0  0
    4.4335   -6.8507    8.1037 H   0  0  0  0  0  0  0  0  0  0  0  0
    5.1908   -7.0174    6.5735 H   0  0  0  0  0  0  0  0  0  0  0  0
  1  2  1  0
  1 37  1  0
  1 38  1  0
  1 39  1  0
  2  7  1  0
  2  3  1  0
  2  4  1  0
  3 40  1  0
  3 41  1  0
  3 42  1  0
  4 16  1  0
  4  5  1  0
  4 43  1  6
  5  6  1  0
  5 44  1  0
  5 45  1  0
  6  7  1  0
  6 46  1  0
  6 47  1  0
  7  8  1  0
  7 48  1  1
  8 14  1  0
  8  9  1  6
  8 10  1  0
  9 49  1  0
  9 50  1  0
  9 51  1  0
 10 35  1  0
 10 11  1  0
 10 52  1  1
 11 12  1  0
 11 53  1  0
 11 54  1  0
 12 13  1  0
 12 14  1  0
 12 55  1  1
 13 56  1  0
 14 15  1  6
 14 16  1  0
 15 57  1  0
 15 58  1  0
 15 59  1  0
 16 17  1  0
 16 60  1  6
 17 18  1  0
 17 61  1  0
 17 62  1  0
 18 35  1  0
 18 19  1  6
 18 20  1  0
 19 63  1  0
 19 64  1  0
 19 65  1  0
 20 27  1  0
 20 21  1  0
 20 66  1  6
 21 31  1  6
 21 22  1  0
 21 32  1  0
 22 23  2  0
 22 67  1  0
 23 24  1  0
 23 68  1  0
 24 25  2  0
 24 26  1  0
 26 27  1  0
 27 28  1  6
 27 29  1  0
 28 69  1  0
 29 30  1  0
 29 31  1  0
 29 70  1  6
 30 71  1  0
 31 72  1  0
 31 73  1  0
 32 33  1  0
 32 34  1  0
 32 74  1  6
 33 75  1  0
 34 35  1  0
 34 76  1  0
 34 77  1  0
 35 36  1  1
 36 78  1  0
 36 79  1  0
 36 80  1  0
M  END
>  <i_m_ct_stereo_status>  (6) 
1

>  <s_m_source_file>  (6) 
/var/tmp/pbs.5076255.sched01/tmprv8ptrg5/026yimkau.sdf

>  <i_m_source_file_index>  (6) 
3

>  <i_lp_mmshare_version>  (6) 
48012

>  <i_f3d_flags>  (6) 
0

>  <s_epik_input>  (6) 
W0NIMl0xW0NAQEhdKFtPSF0pW0NAQF0yKFtDSDNdKVtDQEhdKFtDSDJdMylbQ0BASF0oW0NIMl1bQ0gyXTQpQyhbQ0gzXSkoW0NIM10pW0NAQEhdNFtDQEBdMihbQ0gzXSlbQ0BASF0xW0NAQF0oW0NIM10pKFtDSDJdW0NAQEhdNVtPSF0pW0NAQF0zKFtDSDNdKVtDQEhdKFtDQF01NjcpW0NAXShbT0hdKShbQ0BASF0oW09IXSlbQ0gyXTcpT0MoPU8pW0NIXT1bQ0hdNg==

>  <s_epik_cmdline>  (6) 
J2VwaWtfcHl0aG9uJywgJy1waHQnLCAnMi4wJywgJy1waCcsICc3LjAnLCAnLXRuJywgJzgnLCAnLW1hJywgJzIwMCcsICctaW1hZScsICc8aW5maWxlLm1hZT4nLCAnLW9tYWUnLCAnPG91dGZpbGUubWFlPic=

>  <r_lp_tautomer_probability>  (6) 
1

>  <r_epik_Ionization_Penalty>  (6) 
8.99935e-06

>  <r_epik_Ionization_Penalty_Charging>  (6) 
0

>  <r_epik_Ionization_Penalty_Neutral>  (6) 
8.99935e-06

>  <r_epik_State_Penalty>  (6) 
-0

>  <r_epik_Charging_Adjusted_Penalty>  (6) 
0

>  <i_epik_Tot_Q>  (6) 
0

>  <i_epik_Tot_abs_Q>  (6) 
0

>  <s_epik_Chemistry_Notes>  (6) 
This compound has an ester and may undergo hydrolysis at high or low pH.

>  <s_lp_Force_Field>  (6) 
OPLS3e

>  <r_lp_Energy>  (6) 
418.576

>  <b_lp_Chiralities_Consistent>  (6) 
1

>  <s_lp_Variant>  (6) 
2:0-1

>  <s_i_glide_gridfile>  (6) 
pfpi4k_grid

>  <i_i_glide_lignum>  (6) 
3

>  <i_i_glide_rotatable_bonds>  (6) 
4

>  <r_i_docking_score>  (6) 
-2.54961

>  <r_i_glide_ligand_efficiency>  (6) 
-0.0708225

>  <r_i_glide_ligand_efficiency_sa>  (6) 
-0.233851

>  <r_i_glide_ligand_efficiency_ln>  (6) 
-0.556256

>  <r_i_glide_gscore>  (6) 
-2.54961

>  <r_i_glide_lipo>  (6) 
-0.0418129

>  <r_i_glide_hbond>  (6) 
-0.16

>  <r_i_glide_metal>  (6) 
-0

>  <r_i_glide_rewards>  (6) 
0

>  <r_i_glide_evdw>  (6) 
-25.9925

>  <r_i_glide_ecoul>  (6) 
-6.79343

>  <r_i_glide_erotb>  (6) 
0

>  <r_i_glide_esite>  (6) 
-0.0291556

>  <r_i_glide_emodel>  (6) 
-37.9133

>  <r_i_glide_energy>  (6) 
-32.7859

>  <r_i_glide_einternal>  (6) 
1.5644

>  <r_i_glide_intrahb_reward>  (6) 
-0

>  <i_i_glide_confnum>  (6) 
1

>  <i_i_glide_posenum>  (6) 
4

>  <r_i_glide_eff_state_penalty>  (6) 
0

>  <ligand_id>  (6) 
2

>  <original_smiles>  (6) 
CC1(C)C2CCC1C1(C)C3CC(O)C1(C)C2CC1(C)C2C4(C=CC(=O)OC2(O)C(O)C4)C(O)CC31C

>  <smiles>  (6) 
[H]OC1([H])C([H])([H])C23C([H])=C([H])C(=O)OC1(O[H])C2([H])C1(C([H])([H])[H])C([H])([H])C2([H])C4([H])C([H])([H])C([H])([H])C([H])(C4(C([H])([H])[H])C([H])([H])[H])C4(C([H])([H])[H])C([H])(C([H])([H])C([H])(O[H])C24C([H])([H])[H])C1(C([H])([H])[H])C([H])([H])C3([H])O[H]

$$$$
3:0:0
     RDKit          3D

 80 86  0  0  1  0  0  0  0  0999 V2000
    0.7707   -5.8762    4.1780 C   0  0  0  0  0  0  0  0  0  0  0  0
    0.7439   -6.2733    2.6961 C   0  0  0  0  0  0  0  0  0  0  0  0
   -0.3199   -6.5793    2.1392 O   0  0  0  0  0  0  0  0  0  0  0  0
    1.9217   -6.2661    2.0304 O   0  0  0  0  0  0  0  0  0  0  0  0
    3.1965   -6.1351    2.6594 C   0  0  2  0  0  0  0  0  0  0  0  0
    3.6467   -4.6746    2.4786 C   0  0  0  0  0  0  0  0  0  0  0  0
    4.4669   -4.1783    1.5518 C   0  0  0  0  0  0  0  0  0  0  0  0
    5.1472   -5.1331    0.6263 C   0  0  2  0  0  0  0  0  0  0  0  0
    4.4282   -5.3703   -0.6860 C   0  0  0  0  0  0  0  0  0  0  0  0
    4.2287   -4.0495   -1.5252 C   0  0  0  0  0  0  0  0  0  0  0  0
    5.2129   -2.8815   -1.2698 C   0  0  0  0  0  0  0  0  0  0  0  0
    6.1495   -2.6778   -2.0643 O   0  0  0  0  0  0  0  0  0  0  0  0
    4.9122   -2.0466   -0.0390 C   0  0  2  0  0  0  0  0  0  0  0  0
    3.8159   -1.1014   -0.5521 C   0  0  0  0  0  0  0  0  0  0  0  0
    6.0273   -1.2904    0.7289 C   0  0  1  0  0  0  0  0  0  0  0  0
    5.3525   -0.6451    1.8449 O   0  0  0  0  0  0  0  0  0  0  0  0
    4.4622   -1.6334    2.4387 C   0  0  1  0  0  0  0  0  0  0  0  0
    4.8580   -1.8379    3.9317 C   0  0  0  0  0  0  0  0  0  0  0  0
    3.0114   -1.1643    2.3999 C   0  0  0  0  0  0  0  0  0  0  0  0
    2.5429    0.1695    2.0922 C   0  0  0  0  0  0  0  0  0  0  0  0
    1.2132    0.1470    2.1609 C   0  0  0  0  0  0  0  0  0  0  0  0
    0.7506   -1.0604    2.5698 O   0  0  0  0  0  0  0  0  0  0  0  0
    1.8609   -1.8312    2.7020 C   0  0  0  0  0  0  0  0  0  0  0  0
    4.9164   -2.7032    1.4069 C   0  0  1  0  0  0  0  0  0  0  0  0
    6.4699   -2.5739    1.4111 C   0  0  1  0  0  0  0  0  0  0  0  0
    7.5744   -3.6092    0.9899 C   0  0  0  0  0  0  0  0  0  0  0  0
    7.4156   -5.0172    1.7098 C   0  0  0  0  0  0  0  0  0  0  0  0
    6.2221   -5.9811    1.3046 C   0  0  1  0  0  0  0  0  0  0  0  0
    5.7115   -7.0666    2.3737 C   0  0  1  0  0  0  0  0  0  0  0  0
    6.5366   -8.3210    1.9572 C   0  0  0  0  0  0  0  0  0  0  0  0
    6.1726   -6.7631    3.8688 C   0  0  1  0  0  0  0  0  0  0  0  0
    5.6320   -5.5717    4.4100 O   0  0  0  0  0  0  0  0  0  0  0  0
    5.9978   -7.8574    4.9468 C   0  0  0  0  0  0  0  0  0  0  0  0
    4.5892   -8.4201    4.9787 C   0  0  0  0  0  0  0  0  0  0  0  0
    3.7833   -8.1396    5.8512 O   0  0  0  0  0  0  0  0  0  0  0  0
    4.3751   -9.2164    3.9259 O   0  0  0  0  0  0  0  0  0  0  0  0
    3.6029   -8.7616    2.8137 C   0  0  0  0  0  0  0  0  0  0  0  0
    3.7229   -9.8559    1.7291 C   0  0  0  0  0  0  0  0  0  0  0  0
    2.1211   -8.8997    3.2900 C   0  0  0  0  0  0  0  0  0  0  0  0
    4.1281   -7.3466    2.2306 C   0  0  1  0  0  0  0  0  0  0  0  0
    1.1744   -4.8537    4.2869 H   0  0  0  0  0  0  0  0  0  0  0  0
    1.3614   -6.5563    4.7534 H   0  0  0  0  0  0  0  0  0  0  0  0
   -0.2425   -5.8789    4.5996 H   0  0  0  0  0  0  0  0  0  0  0  0
    3.1100   -6.2251    3.7282 H   0  0  0  0  0  0  0  0  0  0  0  0
    3.2410   -4.0205    3.2288 H   0  0  0  0  0  0  0  0  0  0  0  0
    5.8860   -4.6897    0.0362 H   0  0  0  0  0  0  0  0  0  0  0  0
    4.9988   -6.0895   -1.2741 H   0  0  0  0  0  0  0  0  0  0  0  0
    3.4637   -5.8267   -0.4700 H   0  0  0  0  0  0  0  0  0  0  0  0
    4.2822   -4.2763   -2.5837 H   0  0  0  0  0  0  0  0  0  0  0  0
    3.2126   -3.6841   -1.3662 H   0  0  0  0  0  0  0  0  0  0  0  0
    3.8083   -0.1815    0.0159 H   0  0  0  0  0  0  0  0  0  0  0  0
    2.8397   -1.5824   -0.5073 H   0  0  0  0  0  0  0  0  0  0  0  0
    4.0018   -0.7612   -1.5790 H   0  0  0  0  0  0  0  0  0  0  0  0
    6.7766   -0.7182    0.1823 H   0  0  0  0  0  0  0  0  0  0  0  0
    4.0954   -2.3995    4.4720 H   0  0  0  0  0  0  0  0  0  0  0  0
    4.9457   -0.8649    4.4178 H   0  0  0  0  0  0  0  0  0  0  0  0
    5.7955   -2.3662    4.1005 H   0  0  0  0  0  0  0  0  0  0  0  0
    3.1539    1.0262    1.8152 H   0  0  0  0  0  0  0  0  0  0  0  0
    0.4133    0.8702    1.9532 H   0  0  0  0  0  0  0  0  0  0  0  0
    1.6163   -2.8470    3.0274 H   0  0  0  0  0  0  0  0  0  0  0  0
    6.8123   -2.2227    2.3621 H   0  0  0  0  0  0  0  0  0  0  0  0
    7.6797   -3.7185   -0.0984 H   0  0  0  0  0  0  0  0  0  0  0  0
    8.5531   -3.2288    1.2881 H   0  0  0  0  0  0  0  0  0  0  0  0
    8.3500   -5.5711    1.6446 H   0  0  0  0  0  0  0  0  0  0  0  0
    7.2904   -4.7846    2.7536 H   0  0  0  0  0  0  0  0  0  0  0  0
    6.6454   -6.5363    0.4747 H   0  0  0  0  0  0  0  0  0  0  0  0
    6.4120   -9.1792    2.6109 H   0  0  0  0  0  0  0  0  0  0  0  0
    7.6076   -8.1131    1.9634 H   0  0  0  0  0  0  0  0  0  0  0  0
    6.2823   -8.6496    0.9487 H   0  0  0  0  0  0  0  0  0  0  0  0
    7.2489   -6.6115    3.8601 H   0  0  0  0  0  0  0  0  0  0  0  0
    4.7018   -5.6891    4.5286 H   0  0  0  0  0  0  0  0  0  0  0  0
    6.6819   -8.6826    4.7651 H   0  0  0  0  0  0  0  0  0  0  0  0
    6.2430   -7.4666    5.9340 H   0  0  0  0  0  0  0  0  0  0  0  0
    3.1875   -9.5750    0.8236 H   0  0  0  0  0  0  0  0  0  0  0  0
    3.2613  -10.7776    2.0824 H   0  0  0  0  0  0  0  0  0  0  0  0
    4.7408  -10.1289    1.4710 H   0  0  0  0  0  0  0  0  0  0  0  0
    1.4484   -8.7928    2.4222 H   0  0  0  0  0  0  0  0  0  0  0  0
    1.9011   -8.2458    4.0788 H   0  0  0  0  0  0  0  0  0  0  0  0
    1.9199   -9.9335    3.6382 H   0  0  0  0  0  0  0  0  0  0  0  0
    3.9687   -7.4280    1.1545 H   0  0  0  0  0  0  0  0  0  0  0  0
  1  2  1  0
  1 41  1  0
  1 42  1  0
  1 43  1  0
  2  3  2  0
  2  4  1  0
  4  5  1  0
  5 40  1  0
  5  6  1  0
  5 44  1  1
  6  7  2  0
  6 45  1  0
 24  7  1  6
  7  8  1  0
  8 28  1  0
  8  9  1  0
  8 46  1  6
  9 10  1  0
  9 47  1  0
  9 48  1  0
 10 11  1  0
 10 49  1  0
 10 50  1  0
 11 12  2  0
 11 13  1  0
 13 24  1  0
 13 14  1  6
 13 15  1  0
 14 51  1  0
 14 52  1  0
 14 53  1  0
 15 25  1  0
 15 16  1  0
 15 54  1  6
 16 17  1  0
 17 18  1  1
 17 19  1  0
 17 24  1  0
 18 55  1  0
 18 56  1  0
 18 57  1  0
 19 23  2  0
 19 20  1  0
 20 21  2  0
 20 58  1  0
 21 22  1  0
 21 59  1  0
 22 23  1  0
 23 60  1  0
 24 25  1  0
 25 26  1  0
 25 61  1  1
 26 27  1  0
 26 62  1  0
 26 63  1  0
 27 28  1  0
 27 64  1  0
 27 65  1  0
 28 29  1  0
 28 66  1  6
 29 40  1  0
 29 30  1  6
 29 31  1  0
 30 67  1  0
 30 68  1  0
 30 69  1  0
 31 32  1  0
 31 33  1  0
 31 70  1  6
 32 71  1  0
 33 34  1  0
 33 72  1  0
 33 73  1  0
 34 35  2  0
 34 36  1  0
 36 37  1  0
 37 38  1  0
 37 39  1  0
 37 40  1  0
 38 74  1  0
 38 75  1  0
 38 76  1  0
 39 77  1  0
 39 78  1  0
 39 79  1  0
 40 80  1  6
M  END
>  <i_m_ct_stereo_status>  (7) 
1

>  <s_m_source_file>  (7) 
/var/tmp/pbs.5076255.sched01/tmprv8ptrg5/026yimkau.sdf

>  <i_m_source_file_index>  (7) 
4

>  <i_lp_mmshare_version>  (7) 
48012

>  <i_f3d_flags>  (7) 
0

>  <s_epik_input>  (7) 
W09IXVtDQEhdMVtDSDJdQyg9TylPQyhbQ0gzXSkoW0NIM10pW0NAQEhdKFtDSF0oW0NIXT0yKU9DKD1PKVtDSDNdKVtDQEBdMShbQ0gzXSlbQ0BASF0oW0NAQEhdM0MyW0NAQF00NTYpW0NIMl1bQ0gyXVtDQEhdNltDQEBIXShbQ0BAXTQoW0NIM10pQyg9TylbQ0gyXVtDSDJdMylPW0NAQF01KFtDSDNdKWM3W2NIXVtjSF1vW2NIXTc=

>  <s_epik_cmdline>  (7) 
J2VwaWtfcHl0aG9uJywgJy1waHQnLCAnMi4wJywgJy1waCcsICc3LjAnLCAnLXRuJywgJzgnLCAnLW1hJywgJzIwMCcsICctaW1hZScsICc8aW5maWxlLm1hZT4nLCAnLW9tYWUnLCAnPG91dGZpbGUubWFlPic=

>  <r_lp_tautomer_probability>  (7) 
1

>  <r_epik_Ionization_Penalty>  (7) 
4.70201e-08

>  <r_epik_Ionization_Penalty_Charging>  (7) 
0

>  <r_epik_Ionization_Penalty_Neutral>  (7) 
4.70201e-08

>  <r_epik_State_Penalty>  (7) 
-0

>  <r_epik_Charging_Adjusted_Penalty>  (7) 
0

>  <i_epik_Tot_Q>  (7) 
0

>  <i_epik_Tot_abs_Q>  (7) 
0

>  <s_epik_Chemistry_Notes>  (7) 
This compound has an ester and may undergo hydrolysis at high or low pH.

>  <s_lp_Force_Field>  (7) 
OPLS3e

>  <r_lp_Energy>  (7) 
144.575

>  <b_lp_Chiralities_Consistent>  (7) 
1

>  <s_lp_Variant>  (7) 
3:0-1

>  <s_i_glide_gridfile>  (7) 
pfpi4k_grid

>  <i_i_glide_lignum>  (7) 
4

>  <i_i_glide_rotatable_bonds>  (7) 
4

>  <r_i_docking_score>  (7) 
-2.75966

>  <r_i_glide_ligand_efficiency>  (7) 
-0.0689916

>  <r_i_glide_ligand_efficiency_sa>  (7) 
-0.235948

>  <r_i_glide_ligand_efficiency_ln>  (7) 
-0.588555

>  <r_i_glide_gscore>  (7) 
-2.75966

>  <r_i_glide_lipo>  (7) 
-0.814779

>  <r_i_glide_hbond>  (7) 
-0.173557

>  <r_i_glide_metal>  (7) 
-0

>  <r_i_glide_rewards>  (7) 
-0.0177149

>  <r_i_glide_evdw>  (7) 
-23.7528

>  <r_i_glide_ecoul>  (7) 
-3.78647

>  <r_i_glide_erotb>  (7) 
0.0643177

>  <r_i_glide_esite>  (7) 
-0.0623208

>  <r_i_glide_emodel>  (7) 
-25.1859

>  <r_i_glide_energy>  (7) 
-27.5393

>  <r_i_glide_einternal>  (7) 
7.39745

>  <r_i_glide_intrahb_reward>  (7) 
-0

>  <i_i_glide_confnum>  (7) 
3

>  <i_i_glide_posenum>  (7) 
12

>  <r_i_glide_eff_state_penalty>  (7) 
0

>  <ligand_id>  (7) 
3

>  <original_smiles>  (7) 
CC(=O)OC1C=C2C3CCC(=O)C4(C)C5OC(C)(c6ccoc6)C24C5CCC3C2(C)C(O)CC(=O)OC(C)(C)C12

>  <smiles>  (7) 
[H]OC1([H])C([H])([H])C(=O)OC(C([H])([H])[H])(C([H])([H])[H])C2([H])C([H])(OC(=O)C([H])([H])[H])C([H])=C3C4([H])C([H])([H])C([H])([H])C(=O)C5(C([H])([H])[H])C6([H])OC(c7c([H])oc([H])c7[H])(C([H])([H])[H])C35C6([H])C([H])([H])C([H])([H])C4([H])C12C([H])([H])[H]

$$$$
3:0:1
     RDKit          3D

 80 86  0  0  1  0  0  0  0  0999 V2000
    2.5436   -7.3050    1.2932 C   0  0  0  0  0  0  0  0  0  0  0  0
    1.5429   -6.2052    0.9361 C   0  0  0  0  0  0  0  0  0  0  0  0
    0.4266   -6.4646    0.4798 O   0  0  0  0  0  0  0  0  0  0  0  0
    1.9340   -4.9217    1.1156 O   0  0  0  0  0  0  0  0  0  0  0  0
    3.0870   -4.4986    1.8280 C   0  0  2  0  0  0  0  0  0  0  0  0
    2.7617   -4.7251    3.3119 C   0  0  0  0  0  0  0  0  0  0  0  0
    2.3326   -3.8215    4.2042 C   0  0  0  0  0  0  0  0  0  0  0  0
    2.2162   -2.3774    3.8100 C   0  0  2  0  0  0  0  0  0  0  0  0
    0.8574   -1.9443    3.2858 C   0  0  0  0  0  0  0  0  0  0  0  0
   -0.2691   -2.1782    4.3521 C   0  0  0  0  0  0  0  0  0  0  0  0
    0.1130   -2.2415    5.8620 C   0  0  0  0  0  0  0  0  0  0  0  0
   -0.1212   -1.2722    6.5932 O   0  0  0  0  0  0  0  0  0  0  0  0
    0.7038   -3.5762    6.3189 C   0  0  2  0  0  0  0  0  0  0  0  0
   -0.5438   -4.4413    6.5759 C   0  0  0  0  0  0  0  0  0  0  0  0
    1.7156   -3.6352    7.5025 C   0  0  1  0  0  0  0  0  0  0  0  0
    2.0614   -5.0361    7.6245 O   0  0  0  0  0  0  0  0  0  0  0  0
    2.3301   -5.5229    6.2774 C   0  0  1  0  0  0  0  0  0  0  0  0
    3.7809   -6.0873    6.2172 C   0  0  0  0  0  0  0  0  0  0  0  0
    1.3834   -6.6570    5.9087 C   0  0  0  0  0  0  0  0  0  0  0  0
    1.0812   -7.7951    6.7013 C   0  0  0  0  0  0  0  0  0  0  0  0
    0.2097   -8.5775    5.9812 C   0  0  0  0  0  0  0  0  0  0  0  0
   -0.0633   -7.9936    4.7845 O   0  0  0  0  0  0  0  0  0  0  0  0
    0.6632   -6.8437    4.7442 C   0  0  0  0  0  0  0  0  0  0  0  0
    2.0560   -4.1187    5.6940 C   0  0  1  0  0  0  0  0  0  0  0  0
    2.8766   -3.1647    6.6230 C   0  0  1  0  0  0  0  0  0  0  0  0
    3.4030   -1.7252    6.3502 C   0  0  0  0  0  0  0  0  0  0  0  0
    4.2827   -1.6500    5.0366 C   0  0  0  0  0  0  0  0  0  0  0  0
    3.5720   -1.7237    3.6095 C   0  0  1  0  0  0  0  0  0  0  0  0
    4.4259   -2.2106    2.3452 C   0  0  1  0  0  0  0  0  0  0  0  0
    4.8937   -0.8576    1.7311 C   0  0  0  0  0  0  0  0  0  0  0  0
    5.7455   -2.9631    2.7471 C   0  0  1  0  0  0  0  0  0  0  0  0
    5.5271   -4.1918    3.4198 O   0  0  0  0  0  0  0  0  0  0  0  0
    6.8312   -3.2199    1.6781 C   0  0  0  0  0  0  0  0  0  0  0  0
    6.2855   -3.9176    0.4572 C   0  0  0  0  0  0  0  0  0  0  0  0
    6.4717   -5.1057    0.2248 O   0  0  0  0  0  0  0  0  0  0  0  0
    5.5761   -3.0785   -0.2785 O   0  0  0  0  0  0  0  0  0  0  0  0
    4.1541   -3.0974   -0.2019 C   0  0  0  0  0  0  0  0  0  0  0  0
    3.6964   -1.9004   -1.0480 C   0  0  0  0  0  0  0  0  0  0  0  0
    3.7388   -4.2877   -1.0570 C   0  0  0  0  0  0  0  0  0  0  0  0
    3.5395   -3.0535    1.2977 C   0  0  1  0  0  0  0  0  0  0  0  0
    2.8915   -7.2062    2.3204 H   0  0  0  0  0  0  0  0  0  0  0  0
    3.3978   -7.2370    0.6059 H   0  0  0  0  0  0  0  0  0  0  0  0
    2.0935   -8.2957    1.1607 H   0  0  0  0  0  0  0  0  0  0  0  0
    3.9109   -5.1722    1.6079 H   0  0  0  0  0  0  0  0  0  0  0  0
    2.9125   -5.7344    3.6556 H   0  0  0  0  0  0  0  0  0  0  0  0
    2.0254   -1.7228    4.6117 H   0  0  0  0  0  0  0  0  0  0  0  0
    0.8872   -0.8889    3.0068 H   0  0  0  0  0  0  0  0  0  0  0  0
    0.5974   -2.5099    2.4072 H   0  0  0  0  0  0  0  0  0  0  0  0
   -1.0248   -1.4097    4.2361 H   0  0  0  0  0  0  0  0  0  0  0  0
   -0.7504   -3.1210    4.1235 H   0  0  0  0  0  0  0  0  0  0  0  0
   -0.3564   -5.2746    7.2631 H   0  0  0  0  0  0  0  0  0  0  0  0
   -0.9459   -4.8718    5.6664 H   0  0  0  0  0  0  0  0  0  0  0  0
   -1.3413   -3.8767    7.0530 H   0  0  0  0  0  0  0  0  0  0  0  0
    1.5092   -3.0633    8.4087 H   0  0  0  0  0  0  0  0  0  0  0  0
    3.9578   -6.6685    5.3076 H   0  0  0  0  0  0  0  0  0  0  0  0
    3.9372   -6.7697    7.0588 H   0  0  0  0  0  0  0  0  0  0  0  0
    4.5652   -5.3348    6.2649 H   0  0  0  0  0  0  0  0  0  0  0  0
    1.4545   -8.0295    7.6898 H   0  0  0  0  0  0  0  0  0  0  0  0
   -0.2710   -9.5226    6.1579 H   0  0  0  0  0  0  0  0  0  0  0  0
    0.5410   -6.2821    3.8416 H   0  0  0  0  0  0  0  0  0  0  0  0
    3.7670   -3.6487    7.0436 H   0  0  0  0  0  0  0  0  0  0  0  0
    2.6316   -0.9441    6.3847 H   0  0  0  0  0  0  0  0  0  0  0  0
    4.0598   -1.4319    7.1709 H   0  0  0  0  0  0  0  0  0  0  0  0
    4.8769   -0.7346    5.0465 H   0  0  0  0  0  0  0  0  0  0  0  0
    4.9945   -2.4604    5.1715 H   0  0  0  0  0  0  0  0  0  0  0  0
    3.2854   -0.6949    3.3966 H   0  0  0  0  0  0  0  0  0  0  0  0
    5.6014   -0.9415    0.9089 H   0  0  0  0  0  0  0  0  0  0  0  0
    5.4170   -0.2743    2.4843 H   0  0  0  0  0  0  0  0  0  0  0  0
    4.0553   -0.2534    1.3814 H   0  0  0  0  0  0  0  0  0  0  0  0
    6.2207   -2.2895    3.4380 H   0  0  0  0  0  0  0  0  0  0  0  0
    5.2879   -4.8816    2.8156 H   0  0  0  0  0  0  0  0  0  0  0  0
    7.2896   -2.3008    1.3215 H   0  0  0  0  0  0  0  0  0  0  0  0
    7.6211   -3.8623    2.0500 H   0  0  0  0  0  0  0  0  0  0  0  0
    2.6321   -1.8484   -1.0452 H   0  0  0  0  0  0  0  0  0  0  0  0
    4.0067   -2.0077   -2.0864 H   0  0  0  0  0  0  0  0  0  0  0  0
    4.0894   -0.9467   -0.7236 H   0  0  0  0  0  0  0  0  0  0  0  0
    2.6656   -4.2493   -1.2393 H   0  0  0  0  0  0  0  0  0  0  0  0
    3.9982   -5.2599   -0.6238 H   0  0  0  0  0  0  0  0  0  0  0  0
    4.2343   -4.2445   -2.0303 H   0  0  0  0  0  0  0  0  0  0  0  0
    2.6065   -2.4845    1.1712 H   0  0  0  0  0  0  0  0  0  0  0  0
  1  2  1  0
  1 41  1  0
  1 42  1  0
  1 43  1  0
  2  3  2  0
  2  4  1  0
  4  5  1  0
  5 40  1  0
  5  6  1  0
  5 44  1  6
  6  7  2  0
  6 45  1  0
 24  7  1  6
  7  8  1  0
  8 28  1  0
  8  9  1  0
  8 46  1  1
  9 10  1  0
  9 47  1  0
  9 48  1  0
 10 11  1  0
 10 49  1  0
 10 50  1  0
 11 12  2  0
 11 13  1  0
 13 24  1  0
 13 14  1  1
 13 15  1  0
 14 51  1  0
 14 52  1  0
 14 53  1  0
 15 25  1  0
 15 16  1  0
 15 54  1  1
 16 17  1  0
 17 18  1  1
 17 19  1  0
 17 24  1  0
 18 55  1  0
 18 56  1  0
 18 57  1  0
 19 23  2  0
 19 20  1  0
 20 21  2  0
 20 58  1  0
 21 22  1  0
 21 59  1  0
 22 23  1  0
 23 60  1  0
 24 25  1  0
 25 26  1  0
 25 61  1  1
 26 27  1  0
 26 62  1  0
 26 63  1  0
 27 28  1  0
 27 64  1  0
 27 65  1  0
 28 29  1  0
 28 66  1  6
 29 40  1  0
 29 30  1  6
 29 31  1  0
 30 67  1  0
 30 68  1  0
 30 69  1  0
 31 32  1  0
 31 33  1  0
 31 70  1  1
 32 71  1  0
 33 34  1  0
 33 72  1  0
 33 73  1  0
 34 35  2  0
 34 36  1  0
 36 37  1  0
 37 38  1  0
 37 39  1  0
 37 40  1  0
 38 74  1  0
 38 75  1  0
 38 76  1  0
 39 77  1  0
 39 78  1  0
 39 79  1  0
 40 80  1  6
M  END
>  <i_m_ct_stereo_status>  (8) 
1

>  <s_m_source_file>  (8) 
/var/tmp/pbs.5076255.sched01/tmprv8ptrg5/026yimkau.sdf

>  <i_m_source_file_index>  (8) 
4

>  <i_lp_mmshare_version>  (8) 
48012

>  <i_f3d_flags>  (8) 
0

>  <s_epik_input>  (8) 
W09IXVtDQEhdMVtDSDJdQyg9TylPQyhbQ0gzXSkoW0NIM10pW0NAQEhdKFtDSF0oW0NIXT0yKU9DKD1PKVtDSDNdKVtDQEBdMShbQ0gzXSlbQ0BASF0oW0NAQEhdM0MyW0NAQF00NTYpW0NIMl1bQ0gyXVtDQEhdNltDQEBIXShbQ0BAXTQoW0NIM10pQyg9TylbQ0gyXVtDSDJdMylPW0NAQF01KFtDSDNdKWM3W2NIXVtjSF1vW2NIXTc=

>  <s_epik_cmdline>  (8) 
J2VwaWtfcHl0aG9uJywgJy1waHQnLCAnMi4wJywgJy1waCcsICc3LjAnLCAnLXRuJywgJzgnLCAnLW1hJywgJzIwMCcsICctaW1hZScsICc8aW5maWxlLm1hZT4nLCAnLW9tYWUnLCAnPG91dGZpbGUubWFlPic=

>  <r_lp_tautomer_probability>  (8) 
1

>  <r_epik_Ionization_Penalty>  (8) 
4.70201e-08

>  <r_epik_Ionization_Penalty_Charging>  (8) 
0

>  <r_epik_Ionization_Penalty_Neutral>  (8) 
4.70201e-08

>  <r_epik_State_Penalty>  (8) 
-0

>  <r_epik_Charging_Adjusted_Penalty>  (8) 
0

>  <i_epik_Tot_Q>  (8) 
0

>  <i_epik_Tot_abs_Q>  (8) 
0

>  <s_epik_Chemistry_Notes>  (8) 
This compound has an ester and may undergo hydrolysis at high or low pH.

>  <s_lp_Force_Field>  (8) 
OPLS3e

>  <r_lp_Energy>  (8) 
144.575

>  <b_lp_Chiralities_Consistent>  (8) 
1

>  <s_lp_Variant>  (8) 
3:0-1

>  <s_i_glide_gridfile>  (8) 
pfpi4k_grid

>  <i_i_glide_lignum>  (8) 
4

>  <i_i_glide_rotatable_bonds>  (8) 
4

>  <r_i_docking_score>  (8) 
-2.49221

>  <r_i_glide_ligand_efficiency>  (8) 
-0.0623052

>  <r_i_glide_ligand_efficiency_sa>  (8) 
-0.213081

>  <r_i_glide_ligand_efficiency_ln>  (8) 
-0.531515

>  <r_i_glide_gscore>  (8) 
-2.49221

>  <r_i_glide_lipo>  (8) 
-0.237666

>  <r_i_glide_hbond>  (8) 
-0.300413

>  <r_i_glide_metal>  (8) 
-0

>  <r_i_glide_rewards>  (8) 
-0.130657

>  <r_i_glide_evdw>  (8) 
-16.6244

>  <r_i_glide_ecoul>  (8) 
-6.47172

>  <r_i_glide_erotb>  (8) 
0.0643177

>  <r_i_glide_esite>  (8) 
-0.0858133

>  <r_i_glide_emodel>  (8) 
-23.6057

>  <r_i_glide_energy>  (8) 
-23.0961

>  <r_i_glide_einternal>  (8) 
5.72993

>  <r_i_glide_intrahb_reward>  (8) 
-0

>  <i_i_glide_confnum>  (8) 
1

>  <i_i_glide_posenum>  (8) 
6

>  <r_i_glide_eff_state_penalty>  (8) 
0

>  <ligand_id>  (8) 
3

>  <original_smiles>  (8) 
CC(=O)OC1C=C2C3CCC(=O)C4(C)C5OC(C)(c6ccoc6)C24C5CCC3C2(C)C(O)CC(=O)OC(C)(C)C12

>  <smiles>  (8) 
[H]OC1([H])C([H])([H])C(=O)OC(C([H])([H])[H])(C([H])([H])[H])C2([H])C([H])(OC(=O)C([H])([H])[H])C([H])=C3C4([H])C([H])([H])C([H])([H])C(=O)C5(C([H])([H])[H])C6([H])OC(c7c([H])oc([H])c7[H])(C([H])([H])[H])C35C6([H])C([H])([H])C([H])([H])C4([H])C12C([H])([H])[H]

$$$$
3:0:2
     RDKit          3D

 80 86  0  0  1  0  0  0  0  0999 V2000
   -0.4220   -9.0507    3.8557 C   0  0  0  0  0  0  0  0  0  0  0  0
    0.0579   -7.8613    4.6728 C   0  0  0  0  0  0  0  0  0  0  0  0
   -0.5263   -6.7754    4.6379 O   0  0  0  0  0  0  0  0  0  0  0  0
    1.1726   -8.1469    5.3816 O   0  0  0  0  0  0  0  0  0  0  0  0
    1.9115   -7.1324    6.0649 C   0  0  2  0  0  0  0  0  0  0  0  0
    2.7602   -6.4404    4.9952 C   0  0  0  0  0  0  0  0  0  0  0  0
    4.0280   -6.7254    4.6514 C   0  0  0  0  0  0  0  0  0  0  0  0
    4.7729   -7.7445    5.4588 C   0  0  2  0  0  0  0  0  0  0  0  0
    4.7101   -9.1886    4.9373 C   0  0  0  0  0  0  0  0  0  0  0  0
    5.2809   -9.3217    3.4739 C   0  0  0  0  0  0  0  0  0  0  0  0
    6.2935   -8.2437    2.9946 C   0  0  0  0  0  0  0  0  0  0  0  0
    7.4938   -8.5221    2.9848 O   0  0  0  0  0  0  0  0  0  0  0  0
    5.6738   -6.9168    2.5423 C   0  0  2  0  0  0  0  0  0  0  0  0
    5.1998   -7.2381    1.1112 C   0  0  0  0  0  0  0  0  0  0  0  0
    6.4785   -5.5932    2.6367 C   0  0  1  0  0  0  0  0  0  0  0  0
    5.5611   -4.5802    2.1482 O   0  0  0  0  0  0  0  0  0  0  0  0
    4.2746   -4.8283    2.7794 C   0  0  1  0  0  0  0  0  0  0  0  0
    3.8505   -3.5670    3.5743 C   0  0  0  0  0  0  0  0  0  0  0  0
    3.2054   -5.1230    1.7401 C   0  0  0  0  0  0  0  0  0  0  0  0
    3.1180   -4.5393    0.4439 C   0  0  0  0  0  0  0  0  0  0  0  0
    2.0066   -5.0515   -0.1520 C   0  0  0  0  0  0  0  0  0  0  0  0
    1.3712   -5.9170    0.6791 O   0  0  0  0  0  0  0  0  0  0  0  0
    2.1048   -5.9483    1.8192 C   0  0  0  0  0  0  0  0  0  0  0  0
    4.8668   -6.0161    3.5691 C   0  0  1  0  0  0  0  0  0  0  0  0
    6.2170   -5.4622    4.1349 C   0  0  1  0  0  0  0  0  0  0  0  0
    7.0662   -5.9601    5.3437 C   0  0  0  0  0  0  0  0  0  0  0  0
    6.2176   -6.0478    6.6739 C   0  0  0  0  0  0  0  0  0  0  0  0
    5.1541   -7.2229    6.8458 C   0  0  1  0  0  0  0  0  0  0  0  0
    3.9431   -7.0086    7.8730 C   0  0  1  0  0  0  0  0  0  0  0  0
    4.5025   -7.6840    9.1602 C   0  0  0  0  0  0  0  0  0  0  0  0
    3.7141   -5.4894    8.2855 C   0  0  1  0  0  0  0  0  0  0  0  0
    3.3164   -4.6543    7.2161 O   0  0  0  0  0  0  0  0  0  0  0  0
    2.7732   -5.1660    9.4706 C   0  0  0  0  0  0  0  0  0  0  0  0
    1.4208   -5.8429    9.3438 C   0  0  0  0  0  0  0  0  0  0  0  0
    0.3941   -5.2352    9.0551 O   0  0  0  0  0  0  0  0  0  0  0  0
    1.5158   -7.1502    9.5721 O   0  0  0  0  0  0  0  0  0  0  0  0
    1.5111   -8.0924    8.5027 C   0  0  0  0  0  0  0  0  0  0  0  0
    1.8041   -9.4563    9.1716 C   0  0  0  0  0  0  0  0  0  0  0  0
    0.0319   -8.2078    8.0602 C   0  0  0  0  0  0  0  0  0  0  0  0
    2.5941   -7.7393    7.3674 C   0  0  1  0  0  0  0  0  0  0  0  0
   -0.5626   -9.9137    4.5020 H   0  0  0  0  0  0  0  0  0  0  0  0
    0.3257   -9.3113    3.1065 H   0  0  0  0  0  0  0  0  0  0  0  0
   -1.3658   -8.8415    3.3505 H   0  0  0  0  0  0  0  0  0  0  0  0
    1.2311   -6.3481    6.3974 H   0  0  0  0  0  0  0  0  0  0  0  0
    2.2347   -5.6621    4.4687 H   0  0  0  0  0  0  0  0  0  0  0  0
    5.7936   -7.7936    5.2238 H   0  0  0  0  0  0  0  0  0  0  0  0
    5.2862   -9.8380    5.6016 H   0  0  0  0  0  0  0  0  0  0  0  0
    3.6874   -9.5698    4.9637 H   0  0  0  0  0  0  0  0  0  0  0  0
    5.7600  -10.2951    3.3764 H   0  0  0  0  0  0  0  0  0  0  0  0
    4.4474   -9.3330    2.7698 H   0  0  0  0  0  0  0  0  0  0  0  0
    5.1206   -6.3525    0.4846 H   0  0  0  0  0  0  0  0  0  0  0  0
    4.2493   -7.7656    1.0937 H   0  0  0  0  0  0  0  0  0  0  0  0
    5.9198   -7.8562    0.5885 H   0  0  0  0  0  0  0  0  0  0  0  0
    7.5123   -5.5634    2.2979 H   0  0  0  0  0  0  0  0  0  0  0  0
    2.8065   -3.6224    3.8843 H   0  0  0  0  0  0  0  0  0  0  0  0
    3.9482   -2.6888    2.9338 H   0  0  0  0  0  0  0  0  0  0  0  0
    4.4305   -3.3719    4.4727 H   0  0  0  0  0  0  0  0  0  0  0  0
    3.7959   -3.8339   -0.0117 H   0  0  0  0  0  0  0  0  0  0  0  0
    1.5423   -4.9174   -1.1174 H   0  0  0  0  0  0  0  0  0  0  0  0
    1.7036   -6.6138    2.5633 H   0  0  0  0  0  0  0  0  0  0  0  0
    6.1708   -4.3970    4.3251 H   0  0  0  0  0  0  0  0  0  0  0  0
    7.6361   -6.8723    5.1364 H   0  0  0  0  0  0  0  0  0  0  0  0
    7.8552   -5.2292    5.5192 H   0  0  0  0  0  0  0  0  0  0  0  0
    6.8969   -6.0872    7.5198 H   0  0  0  0  0  0  0  0  0  0  0  0
    5.7408   -5.0768    6.7362 H   0  0  0  0  0  0  0  0  0  0  0  0
    5.7516   -8.0475    7.2335 H   0  0  0  0  0  0  0  0  0  0  0  0
    3.8730   -7.5820   10.0416 H   0  0  0  0  0  0  0  0  0  0  0  0
    5.4594   -7.2454    9.4477 H   0  0  0  0  0  0  0  0  0  0  0  0
    4.6785   -8.7509    9.0157 H   0  0  0  0  0  0  0  0  0  0  0  0
    4.6717   -5.0942    8.6210 H   0  0  0  0  0  0  0  0  0  0  0  0
    2.4892   -4.9667    6.8814 H   0  0  0  0  0  0  0  0  0  0  0  0
    3.2242   -5.4867   10.4082 H   0  0  0  0  0  0  0  0  0  0  0  0
    2.6289   -4.0887    9.5549 H   0  0  0  0  0  0  0  0  0  0  0  0
    1.8661  -10.2557    8.4338 H   0  0  0  0  0  0  0  0  0  0  0  0
    1.0123   -9.7357    9.8672 H   0  0  0  0  0  0  0  0  0  0  0  0
    2.7191   -9.4777    9.7540 H   0  0  0  0  0  0  0  0  0  0  0  0
   -0.1288   -9.0461    7.3818 H   0  0  0  0  0  0  0  0  0  0  0  0
   -0.3200   -7.2948    7.5862 H   0  0  0  0  0  0  0  0  0  0  0  0
   -0.6208   -8.3815    8.9175 H   0  0  0  0  0  0  0  0  0  0  0  0
    2.9298   -8.7205    7.0397 H   0  0  0  0  0  0  0  0  0  0  0  0
  1  2  1  0
  1 41  1  0
  1 42  1  0
  1 43  1  0
  2  3  2  0
  2  4  1  0
  4  5  1  0
  5 40  1  0
  5  6  1  0
  5 44  1  1
  6  7  2  0
  6 45  1  0
 24  7  1  1
  7  8  1  0
  8 28  1  0
  8  9  1  0
  8 46  1  6
  9 10  1  0
  9 47  1  0
  9 48  1  0
 10 11  1  0
 10 49  1  0
 10 50  1  0
 11 12  2  0
 11 13  1  0
 13 24  1  0
 13 14  1  6
 13 15  1  0
 14 51  1  0
 14 52  1  0
 14 53  1  0
 15 25  1  0
 15 16  1  0
 15 54  1  1
 16 17  1  0
 17 18  1  1
 17 19  1  0
 17 24  1  0
 18 55  1  0
 18 56  1  0
 18 57  1  0
 19 23  2  0
 19 20  1  0
 20 21  2  0
 20 58  1  0
 21 22  1  0
 21 59  1  0
 22 23  1  0
 23 60  1  0
 24 25  1  0
 25 26  1  0
 25 61  1  1
 26 27  1  0
 26 62  1  0
 26 63  1  0
 27 28  1  0
 27 64  1  0
 27 65  1  0
 28 29  1  0
 28 66  1  1
 29 40  1  0
 29 30  1  1
 29 31  1  0
 30 67  1  0
 30 68  1  0
 30 69  1  0
 31 32  1  0
 31 33  1  0
 31 70  1  1
 32 71  1  0
 33 34  1  0
 33 72  1  0
 33 73  1  0
 34 35  2  0
 34 36  1  0
 36 37  1  0
 37 38  1  0
 37 39  1  0
 37 40  1  0
 38 74  1  0
 38 75  1  0
 38 76  1  0
 39 77  1  0
 39 78  1  0
 39 79  1  0
 40 80  1  6
M  END
>  <i_m_ct_stereo_status>  (9) 
1

>  <s_m_source_file>  (9) 
/var/tmp/pbs.5076255.sched01/tmprv8ptrg5/026yimkau.sdf

>  <i_m_source_file_index>  (9) 
4

>  <i_lp_mmshare_version>  (9) 
48012

>  <i_f3d_flags>  (9) 
0

>  <s_epik_input>  (9) 
W09IXVtDQEhdMVtDSDJdQyg9TylPQyhbQ0gzXSkoW0NIM10pW0NAQEhdKFtDSF0oW0NIXT0yKU9DKD1PKVtDSDNdKVtDQEBdMShbQ0gzXSlbQ0BASF0oW0NAQEhdM0MyW0NAQF00NTYpW0NIMl1bQ0gyXVtDQEhdNltDQEBIXShbQ0BAXTQoW0NIM10pQyg9TylbQ0gyXVtDSDJdMylPW0NAQF01KFtDSDNdKWM3W2NIXVtjSF1vW2NIXTc=

>  <s_epik_cmdline>  (9) 
J2VwaWtfcHl0aG9uJywgJy1waHQnLCAnMi4wJywgJy1waCcsICc3LjAnLCAnLXRuJywgJzgnLCAnLW1hJywgJzIwMCcsICctaW1hZScsICc8aW5maWxlLm1hZT4nLCAnLW9tYWUnLCAnPG91dGZpbGUubWFlPic=

>  <r_lp_tautomer_probability>  (9) 
1

>  <r_epik_Ionization_Penalty>  (9) 
4.70201e-08

>  <r_epik_Ionization_Penalty_Charging>  (9) 
0

>  <r_epik_Ionization_Penalty_Neutral>  (9) 
4.70201e-08

>  <r_epik_State_Penalty>  (9) 
-0

>  <r_epik_Charging_Adjusted_Penalty>  (9) 
0

>  <i_epik_Tot_Q>  (9) 
0

>  <i_epik_Tot_abs_Q>  (9) 
0

>  <s_epik_Chemistry_Notes>  (9) 
This compound has an ester and may undergo hydrolysis at high or low pH.

>  <s_lp_Force_Field>  (9) 
OPLS3e

>  <r_lp_Energy>  (9) 
144.575

>  <b_lp_Chiralities_Consistent>  (9) 
1

>  <s_lp_Variant>  (9) 
3:0-1

>  <s_i_glide_gridfile>  (9) 
pfpi4k_grid

>  <i_i_glide_lignum>  (9) 
4

>  <i_i_glide_rotatable_bonds>  (9) 
4

>  <r_i_docking_score>  (9) 
-1.70802

>  <r_i_glide_ligand_efficiency>  (9) 
-0.0427006

>  <r_i_glide_ligand_efficiency_sa>  (9) 
-0.146034

>  <r_i_glide_ligand_efficiency_ln>  (9) 
-0.364271

>  <r_i_glide_gscore>  (9) 
-1.70802

>  <r_i_glide_lipo>  (9) 
-0.122661

>  <r_i_glide_hbond>  (9) 
-0.16

>  <r_i_glide_metal>  (9) 
-0

>  <r_i_glide_rewards>  (9) 
-0.0243083

>  <r_i_glide_evdw>  (9) 
-18.2326

>  <r_i_glide_ecoul>  (9) 
-3.47597

>  <r_i_glide_erotb>  (9) 
0.0643177

>  <r_i_glide_esite>  (9) 
-0.0323444

>  <r_i_glide_emodel>  (9) 
-23.6988

>  <r_i_glide_energy>  (9) 
-21.7086

>  <r_i_glide_einternal>  (9) 
0.684718

>  <r_i_glide_intrahb_reward>  (9) 
-0

>  <i_i_glide_confnum>  (9) 
3

>  <i_i_glide_posenum>  (9) 
30

>  <r_i_glide_eff_state_penalty>  (9) 
0

>  <ligand_id>  (9) 
3

>  <original_smiles>  (9) 
CC(=O)OC1C=C2C3CCC(=O)C4(C)C5OC(C)(c6ccoc6)C24C5CCC3C2(C)C(O)CC(=O)OC(C)(C)C12

>  <smiles>  (9) 
[H]OC1([H])C([H])([H])C(=O)OC(C([H])([H])[H])(C([H])([H])[H])C2([H])C([H])(OC(=O)C([H])([H])[H])C([H])=C3C4([H])C([H])([H])C([H])([H])C(=O)C5(C([H])([H])[H])C6([H])OC(c7c([H])oc([H])c7[H])(C([H])([H])[H])C35C6([H])C([H])([H])C([H])([H])C4([H])C12C([H])([H])[H]

$$$$
5:0:0
     RDKit          3D

 65 69  0  0  1  0  0  0  0  0999 V2000
    1.5793   -2.3796    4.8542 C   0  0  0  0  0  0  0  0  0  0  0  0
    1.3234   -3.6458    4.0026 C   0  0  0  0  0  0  0  0  0  0  0  0
    0.6036   -4.6628    4.9019 C   0  0  0  0  0  0  0  0  0  0  0  0
    2.5777   -4.2057    3.2742 C   0  0  0  0  0  0  0  0  0  0  0  0
    3.8241   -3.7785    3.5361 C   0  0  0  0  0  0  0  0  0  0  0  0
    5.0344   -4.2041    2.7350 C   0  0  2  0  0  0  0  0  0  0  0  0
    5.2287   -3.0927    1.5970 C   0  0  1  0  0  0  0  0  0  0  0  0
    6.1789   -3.4826    0.4480 C   0  0  1  0  0  0  0  0  0  0  0  0
    7.5685   -4.0991    0.7079 C   0  0  0  0  0  0  0  0  0  0  0  0
    5.2103   -4.0863   -0.6033 C   0  0  0  0  0  0  0  0  0  0  0  0
    3.7450   -3.9141   -0.0226 C   0  0  1  0  0  0  0  0  0  0  0  0
    3.0834   -5.1927    0.7353 C   0  0  1  0  0  0  0  0  0  0  0  0
    3.8963   -6.4373    0.3920 C   0  0  0  0  0  0  0  0  0  0  0  0
    5.1920   -6.5529    1.2060 C   0  0  0  0  0  0  0  0  0  0  0  0
    5.2258   -5.8195    2.5832 C   0  0  1  0  0  0  0  0  0  0  0  0
    6.5252   -6.2208    3.3217 C   0  0  0  0  0  0  0  0  0  0  0  0
    4.3230   -6.6438    3.3347 O   0  0  0  0  0  0  0  0  0  0  0  0
    2.9206   -6.5414    3.1307 C   0  0  2  0  0  0  0  0  0  0  0  0
    2.0808   -7.8192    2.8621 C   0  0  0  0  0  0  0  0  0  0  0  0
    2.8460   -9.0902    2.4292 C   0  0  0  0  0  0  0  0  0  0  0  0
    1.1931   -8.2337    4.0586 C   0  0  0  0  0  0  0  0  0  0  0  0
    1.2506   -7.3202    1.8288 O   0  0  0  0  0  0  0  0  0  0  0  0
    1.1176   -5.8319    2.0878 O   0  0  0  0  0  0  0  0  0  0  0  0
    2.4459   -5.3447    2.2465 C   0  0  1  0  0  0  0  0  0  0  0  0
    3.9655   -2.6081    0.7551 C   0  0  0  0  0  0  0  0  0  0  0  0
    2.6843   -2.0309    1.4107 C   0  0  0  0  0  0  0  0  0  0  0  0
    4.2978   -1.3845   -0.1887 C   0  0  0  0  0  0  0  0  0  0  0  0
    1.9824   -1.5508    4.2780 H   0  0  0  0  0  0  0  0  0  0  0  0
    2.2644   -2.5790    5.6805 H   0  0  0  0  0  0  0  0  0  0  0  0
    0.6514   -2.0129    5.2920 H   0  0  0  0  0  0  0  0  0  0  0  0
    0.6157   -3.3557    3.2284 H   0  0  0  0  0  0  0  0  0  0  0  0
    0.0581   -5.3952    4.3154 H   0  0  0  0  0  0  0  0  0  0  0  0
   -0.1397   -4.1770    5.5337 H   0  0  0  0  0  0  0  0  0  0  0  0
    1.2958   -5.1769    5.5712 H   0  0  0  0  0  0  0  0  0  0  0  0
    4.0034   -3.0048    4.2639 H   0  0  0  0  0  0  0  0  0  0  0  0
    5.8184   -3.9401    3.4388 H   0  0  0  0  0  0  0  0  0  0  0  0
    5.6362   -2.2124    2.0946 H   0  0  0  0  0  0  0  0  0  0  0  0
    6.5355   -2.5404    0.0415 H   0  0  0  0  0  0  0  0  0  0  0  0
    7.5898   -5.1387    0.9938 H   0  0  0  0  0  0  0  0  0  0  0  0
    8.0836   -3.5470    1.4913 H   0  0  0  0  0  0  0  0  0  0  0  0
    8.1867   -4.0274   -0.1867 H   0  0  0  0  0  0  0  0  0  0  0  0
    5.2957   -3.5076   -1.5223 H   0  0  0  0  0  0  0  0  0  0  0  0
    5.5054   -5.0575   -0.9731 H   0  0  0  0  0  0  0  0  0  0  0  0
    3.0926   -3.6994   -0.8722 H   0  0  0  0  0  0  0  0  0  0  0  0
    2.1887   -5.3232    0.1263 H   0  0  0  0  0  0  0  0  0  0  0  0
    3.2680   -7.2972    0.5265 H   0  0  0  0  0  0  0  0  0  0  0  0
    4.1073   -6.5127   -0.6720 H   0  0  0  0  0  0  0  0  0  0  0  0
    5.3552   -7.6163    1.3790 H   0  0  0  0  0  0  0  0  0  0  0  0
    6.0381   -6.3190    0.5787 H   0  0  0  0  0  0  0  0  0  0  0  0
    7.3994   -5.6483    3.0191 H   0  0  0  0  0  0  0  0  0  0  0  0
    6.7576   -7.2764    3.1809 H   0  0  0  0  0  0  0  0  0  0  0  0
    6.4133   -6.0610    4.3940 H   0  0  0  0  0  0  0  0  0  0  0  0
    2.6373   -6.3329    4.1627 H   0  0  0  0  0  0  0  0  0  0  0  0
    3.3940   -9.5156    3.2727 H   0  0  0  0  0  0  0  0  0  0  0  0
    3.5759   -8.9550    1.6392 H   0  0  0  0  0  0  0  0  0  0  0  0
    2.1496   -9.8547    2.0811 H   0  0  0  0  0  0  0  0  0  0  0  0
    1.8062   -8.5446    4.9097 H   0  0  0  0  0  0  0  0  0  0  0  0
    0.5524   -9.0804    3.8044 H   0  0  0  0  0  0  0  0  0  0  0  0
    0.5413   -7.4419    4.4090 H   0  0  0  0  0  0  0  0  0  0  0  0
    2.2279   -1.1902    0.8850 H   0  0  0  0  0  0  0  0  0  0  0  0
    2.8998   -1.6279    2.3917 H   0  0  0  0  0  0  0  0  0  0  0  0
    1.8653   -2.7431    1.4225 H   0  0  0  0  0  0  0  0  0  0  0  0
    3.4493   -1.1346   -0.8309 H   0  0  0  0  0  0  0  0  0  0  0  0
    5.1073   -1.4796   -0.9043 H   0  0  0  0  0  0  0  0  0  0  0  0
    4.5246   -0.4974    0.4063 H   0  0  0  0  0  0  0  0  0  0  0  0
  1  2  1  0
  1 28  1  0
  1 29  1  0
  1 30  1  0
  2  3  1  0
  2  4  1  0
  2 31  1  0
  3 32  1  0
  3 33  1  0
  3 34  1  0
  4 24  1  0
  4  5  2  0
  5  6  1  0
  5 35  1  0
  6 15  1  0
  6  7  1  0
  6 36  1  1
  7 25  1  0
  7  8  1  0
  7 37  1  1
  8  9  1  0
  8 10  1  0
  8 38  1  6
  9 39  1  0
  9 40  1  0
  9 41  1  0
 10 11  1  0
 10 42  1  0
 10 43  1  0
 11 12  1  0
 11 25  1  0
 11 44  1  6
 12 24  1  0
 12 13  1  0
 12 45  1  6
 13 14  1  0
 13 46  1  0
 13 47  1  0
 14 15  1  0
 14 48  1  0
 14 49  1  0
 15 16  1  1
 15 17  1  0
 16 50  1  0
 16 51  1  0
 16 52  1  0
 17 18  1  0
 18 24  1  0
 18 19  1  0
 18 53  1  1
 19 20  1  0
 19 21  1  0
 19 22  1  0
 20 54  1  0
 20 55  1  0
 20 56  1  0
 21 57  1  0
 21 58  1  0
 21 59  1  0
 22 23  1  0
 24 23  1  6
 25 26  1  0
 25 27  1  0
 26 60  1  0
 26 61  1  0
 26 62  1  0
 27 63  1  0
 27 64  1  0
 27 65  1  0
M  END
>  <i_m_ct_stereo_status>  (10) 
1

>  <s_m_source_file>  (10) 
/var/tmp/pbs.5076255.sched01/tmprv8ptrg5/026yimkau.sdf

>  <i_m_source_file_index>  (10) 
5

>  <i_lp_mmshare_version>  (10) 
48012

>  <i_f3d_flags>  (10) 
0

>  <s_epik_input>  (10) 
W0NAQF0xMjNbQ0BIXTRbQ0BASF01W0NIMl1bQ0BIXShbQ0gzXSlbQ0BASF0oQzUoW0NIM10pW0NIM10pW0NAQEhdKFtDSF09QzFbQ0hdKFtDSDNdKVtDSDNdKVtDQF0oW0NIM10pKFtDSDJdW0NIMl00KU9bQ0BASF0yQyhbQ0gzXSkoW0NIM10pT08z

>  <s_epik_cmdline>  (10) 
J2VwaWtfcHl0aG9uJywgJy1waHQnLCAnMi4wJywgJy1waCcsICc3LjAnLCAnLXRuJywgJzgnLCAnLW1hJywgJzIwMCcsICctaW1hZScsICc8aW5maWxlLm1hZT4nLCAnLW9tYWUnLCAnPG91dGZpbGUubWFlPic=

>  <r_lp_tautomer_probability>  (10) 
1

>  <r_epik_Ionization_Penalty>  (10) 
8.12899e-13

>  <r_epik_Ionization_Penalty_Charging>  (10) 
0

>  <r_epik_Ionization_Penalty_Neutral>  (10) 
8.12899e-13

>  <r_epik_State_Penalty>  (10) 
-0

>  <r_epik_Charging_Adjusted_Penalty>  (10) 
0

>  <i_epik_Tot_Q>  (10) 
0

>  <i_epik_Tot_abs_Q>  (10) 
0

>  <s_lp_Force_Field>  (10) 
OPLS3e

>  <r_lp_Energy>  (10) 
151.332

>  <b_lp_Chiralities_Consistent>  (10) 
1

>  <s_lp_Variant>  (10) 
5:0-1

>  <s_i_glide_gridfile>  (10) 
pfpi4k_grid

>  <i_i_glide_lignum>  (10) 
5

>  <i_i_glide_rotatable_bonds>  (10) 
1

>  <r_i_docking_score>  (10) 
-2.62458

>  <r_i_glide_ligand_efficiency>  (10) 
-0.0972065

>  <r_i_glide_ligand_efficiency_sa>  (10) 
-0.291619

>  <r_i_glide_ligand_efficiency_ln>  (10) 
-0.610958

>  <r_i_glide_gscore>  (10) 
-2.62458

>  <r_i_glide_lipo>  (10) 
-0.58155

>  <r_i_glide_hbond>  (10) 
-0.0747947

>  <r_i_glide_metal>  (10) 
-0

>  <r_i_glide_rewards>  (10) 
-0.855295

>  <r_i_glide_evdw>  (10) 
-18.3885

>  <r_i_glide_ecoul>  (10) 
-1.29007

>  <r_i_glide_erotb>  (10) 
0

>  <r_i_glide_esite>  (10) 
0

>  <r_i_glide_emodel>  (10) 
-23.4974

>  <r_i_glide_energy>  (10) 
-19.6786

>  <r_i_glide_einternal>  (10) 
0.000310906

>  <r_i_glide_intrahb_reward>  (10) 
-0

>  <i_i_glide_confnum>  (10) 
1

>  <i_i_glide_posenum>  (10) 
34

>  <r_i_glide_eff_state_penalty>  (10) 
0

>  <ligand_id>  (10) 
5

>  <original_smiles>  (10) 
CC(C)C1=CC2C3C(C)CC(C4CCC2(C)OC2C(C)(C)OOC142)C3(C)C

>  <smiles>  (10) 
[H]C1=C(C([H])(C([H])([H])[H])C([H])([H])[H])C23OOC(C([H])([H])[H])(C([H])([H])[H])C2([H])OC2(C([H])([H])[H])C([H])([H])C([H])([H])C3([H])C3([H])C([H])([H])C([H])(C([H])([H])[H])C([H])(C12[H])C3(C([H])([H])[H])C([H])([H])[H]

$$$$
5:0:1
     RDKit          3D

 65 69  0  0  1  0  0  0  0  0999 V2000
    0.9183   -4.7069    5.1131 C   0  0  0  0  0  0  0  0  0  0  0  0
    2.3704   -4.8892    4.6658 C   0  0  0  0  0  0  0  0  0  0  0  0
    2.7337   -3.7376    3.7066 C   0  0  0  0  0  0  0  0  0  0  0  0
    2.7493   -6.3206    4.1890 C   0  0  0  0  0  0  0  0  0  0  0  0
    3.5962   -7.0848    4.8996 C   0  0  0  0  0  0  0  0  0  0  0  0
    4.0840   -8.4515    4.4461 C   0  0  2  0  0  0  0  0  0  0  0  0
    5.4630   -8.2063    3.6598 C   0  0  1  0  0  0  0  0  0  0  0  0
    5.9546   -9.3794    2.7897 C   0  0  1  0  0  0  0  0  0  0  0  0
    6.0274  -10.8186    3.3328 C   0  0  0  0  0  0  0  0  0  0  0  0
    5.3342   -9.0659    1.4004 C   0  0  0  0  0  0  0  0  0  0  0  0
    4.6022   -7.6703    1.5430 C   0  0  1  0  0  0  0  0  0  0  0  0
    2.9913   -7.6789    1.7985 C   0  0  1  0  0  0  0  0  0  0  0  0
    2.4631   -9.0737    1.4836 C   0  0  0  0  0  0  0  0  0  0  0  0
    2.7220  -10.0863    2.6091 C   0  0  0  0  0  0  0  0  0  0  0  0
    2.9024   -9.5102    4.0509 C   0  0  1  0  0  0  0  0  0  0  0  0
    2.9510  -10.6953    5.0505 C   0  0  0  0  0  0  0  0  0  0  0  0
    1.5593   -9.0827    4.3290 O   0  0  0  0  0  0  0  0  0  0  0  0
    1.0437   -7.8994    3.7352 C   0  0  2  0  0  0  0  0  0  0  0  0
   -0.3204   -7.9412    2.9951 C   0  0  0  0  0  0  0  0  0  0  0  0
   -0.8571   -9.3227    2.5688 C   0  0  0  0  0  0  0  0  0  0  0  0
   -1.4642   -7.2669    3.7804 C   0  0  0  0  0  0  0  0  0  0  0  0
    0.0010   -7.1272    1.8813 O   0  0  0  0  0  0  0  0  0  0  0  0
    1.0871   -6.1832    2.3531 O   0  0  0  0  0  0  0  0  0  0  0  0
    2.0751   -6.9936    2.9839 C   0  0  1  0  0  0  0  0  0  0  0  0
    5.5433   -7.0407    2.5842 C   0  0  0  0  0  0  0  0  0  0  0  0
    5.2028   -5.5764    2.9166 C   0  0  0  0  0  0  0  0  0  0  0  0
    7.0045   -6.7991    2.0301 C   0  0  0  0  0  0  0  0  0  0  0  0
    0.6223   -5.4255    5.8751 H   0  0  0  0  0  0  0  0  0  0  0  0
    0.2349   -4.7662    4.2703 H   0  0  0  0  0  0  0  0  0  0  0  0
    0.7800   -3.7153    5.5458 H   0  0  0  0  0  0  0  0  0  0  0  0
    2.9605   -4.7103    5.5637 H   0  0  0  0  0  0  0  0  0  0  0  0
    3.8080   -3.5495    3.6882 H   0  0  0  0  0  0  0  0  0  0  0  0
    2.2768   -2.8012    4.0279 H   0  0  0  0  0  0  0  0  0  0  0  0
    2.3950   -3.9233    2.6864 H   0  0  0  0  0  0  0  0  0  0  0  0
    4.0586   -6.6890    5.7888 H   0  0  0  0  0  0  0  0  0  0  0  0
    4.4461   -8.8546    5.3904 H   0  0  0  0  0  0  0  0  0  0  0  0
    6.2178   -7.9977    4.4188 H   0  0  0  0  0  0  0  0  0  0  0  0
    7.0283   -9.2302    2.6939 H   0  0  0  0  0  0  0  0  0  0  0  0
    5.0906  -11.3497    3.4001 H   0  0  0  0  0  0  0  0  0  0  0  0
    6.4745  -10.8226    4.3280 H   0  0  0  0  0  0  0  0  0  0  0  0
    6.6639  -11.4260    2.6897 H   0  0  0  0  0  0  0  0  0  0  0  0
    6.1461   -8.9701    0.6821 H   0  0  0  0  0  0  0  0  0  0  0  0
    4.7880   -9.8859    0.9551 H   0  0  0  0  0  0  0  0  0  0  0  0
    4.7395   -7.1388    0.5997 H   0  0  0  0  0  0  0  0  0  0  0  0
    2.6574   -7.0939    0.9403 H   0  0  0  0  0  0  0  0  0  0  0  0
    1.4147   -8.9838    1.2788 H   0  0  0  0  0  0  0  0  0  0  0  0
    2.8187   -9.4524    0.5295 H   0  0  0  0  0  0  0  0  0  0  0  0
    1.8750  -10.7726    2.6190 H   0  0  0  0  0  0  0  0  0  0  0  0
    3.5136  -10.7617    2.3213 H   0  0  0  0  0  0  0  0  0  0  0  0
    3.9322  -11.1588    5.1381 H   0  0  0  0  0  0  0  0  0  0  0  0
    2.2419  -11.4818    4.7887 H   0  0  0  0  0  0  0  0  0  0  0  0
    2.6874  -10.3609    6.0545 H   0  0  0  0  0  0  0  0  0  0  0  0
    0.7573   -7.3941    4.6597 H   0  0  0  0  0  0  0  0  0  0  0  0
   -1.2146   -9.8533    3.4496 H   0  0  0  0  0  0  0  0  0  0  0  0
   -0.1508   -9.9857    2.0805 H   0  0  0  0  0  0  0  0  0  0  0  0
   -1.7042   -9.2171    1.8913 H   0  0  0  0  0  0  0  0  0  0  0  0
   -1.6923   -7.8239    4.6946 H   0  0  0  0  0  0  0  0  0  0  0  0
   -2.3787   -7.2371    3.1874 H   0  0  0  0  0  0  0  0  0  0  0  0
   -1.2323   -6.2532    4.0778 H   0  0  0  0  0  0  0  0  0  0  0  0
    5.8507   -4.8244    2.4673 H   0  0  0  0  0  0  0  0  0  0  0  0
    5.2456   -5.3645    3.9818 H   0  0  0  0  0  0  0  0  0  0  0  0
    4.2413   -5.3328    2.4812 H   0  0  0  0  0  0  0  0  0  0  0  0
    7.0023   -6.0611    1.2245 H   0  0  0  0  0  0  0  0  0  0  0  0
    7.5447   -7.6269    1.5809 H   0  0  0  0  0  0  0  0  0  0  0  0
    7.6463   -6.4121    2.8248 H   0  0  0  0  0  0  0  0  0  0  0  0
  1  2  1  0
  1 28  1  0
  1 29  1  0
  1 30  1  0
  2  3  1  0
  2  4  1  0
  2 31  1  0
  3 32  1  0
  3 33  1  0
  3 34  1  0
  4 24  1  0
  4  5  2  0
  5  6  1  0
  5 35  1  0
  6 15  1  0
  6  7  1  0
  6 36  1  1
  7 25  1  0
  7  8  1  0
  7 37  1  1
  8  9  1  0
  8 10  1  0
  8 38  1  6
  9 39  1  0
  9 40  1  0
  9 41  1  0
 10 11  1  0
 10 42  1  0
 10 43  1  0
 11 12  1  0
 11 25  1  0
 11 44  1  6
 12 24  1  0
 12 13  1  0
 12 45  1  6
 13 14  1  0
 13 46  1  0
 13 47  1  0
 14 15  1  0
 14 48  1  0
 14 49  1  0
 15 16  1  1
 15 17  1  0
 16 50  1  0
 16 51  1  0
 16 52  1  0
 17 18  1  0
 18 24  1  0
 18 19  1  0
 18 53  1  1
 19 20  1  0
 19 21  1  0
 19 22  1  0
 20 54  1  0
 20 55  1  0
 20 56  1  0
 21 57  1  0
 21 58  1  0
 21 59  1  0
 22 23  1  0
 24 23  1  6
 25 26  1  0
 25 27  1  0
 26 60  1  0
 26 61  1  0
 26 62  1  0
 27 63  1  0
 27 64  1  0
 27 65  1  0
M  END
>  <i_m_ct_stereo_status>  (11) 
1

>  <s_m_source_file>  (11) 
/var/tmp/pbs.5076255.sched01/tmprv8ptrg5/026yimkau.sdf

>  <i_m_source_file_index>  (11) 
5

>  <i_lp_mmshare_version>  (11) 
48012

>  <i_f3d_flags>  (11) 
0

>  <s_epik_input>  (11) 
W0NAQF0xMjNbQ0BIXTRbQ0BASF01W0NIMl1bQ0BIXShbQ0gzXSlbQ0BASF0oQzUoW0NIM10pW0NIM10pW0NAQEhdKFtDSF09QzFbQ0hdKFtDSDNdKVtDSDNdKVtDQF0oW0NIM10pKFtDSDJdW0NIMl00KU9bQ0BASF0yQyhbQ0gzXSkoW0NIM10pT08z

>  <s_epik_cmdline>  (11) 
J2VwaWtfcHl0aG9uJywgJy1waHQnLCAnMi4wJywgJy1waCcsICc3LjAnLCAnLXRuJywgJzgnLCAnLW1hJywgJzIwMCcsICctaW1hZScsICc8aW5maWxlLm1hZT4nLCAnLW9tYWUnLCAnPG91dGZpbGUubWFlPic=

>  <r_lp_tautomer_probability>  (11) 
1

>  <r_epik_Ionization_Penalty>  (11) 
8.12899e-13

>  <r_epik_Ionization_Penalty_Charging>  (11) 
0

>  <r_epik_Ionization_Penalty_Neutral>  (11) 
8.12899e-13

>  <r_epik_State_Penalty>  (11) 
-0

>  <r_epik_Charging_Adjusted_Penalty>  (11) 
0

>  <i_epik_Tot_Q>  (11) 
0

>  <i_epik_Tot_abs_Q>  (11) 
0

>  <s_lp_Force_Field>  (11) 
OPLS3e

>  <r_lp_Energy>  (11) 
151.332

>  <b_lp_Chiralities_Consistent>  (11) 
1

>  <s_lp_Variant>  (11) 
5:0-1

>  <s_i_glide_gridfile>  (11) 
pfpi4k_grid

>  <i_i_glide_lignum>  (11) 
5

>  <i_i_glide_rotatable_bonds>  (11) 
1

>  <r_i_docking_score>  (11) 
-2.3596

>  <r_i_glide_ligand_efficiency>  (11) 
-0.0873925

>  <r_i_glide_ligand_efficiency_sa>  (11) 
-0.262177

>  <r_i_glide_ligand_efficiency_ln>  (11) 
-0.549275

>  <r_i_glide_gscore>  (11) 
-2.3596

>  <r_i_glide_lipo>  (11) 
-0.262601

>  <r_i_glide_hbond>  (11) 
0

>  <r_i_glide_metal>  (11) 
-0

>  <r_i_glide_rewards>  (11) 
-0.855295

>  <r_i_glide_evdw>  (11) 
-21.1497

>  <r_i_glide_ecoul>  (11) 
-1.2281

>  <r_i_glide_erotb>  (11) 
0

>  <r_i_glide_esite>  (11) 
0

>  <r_i_glide_emodel>  (11) 
-25.5981

>  <r_i_glide_energy>  (11) 
-22.3778

>  <r_i_glide_einternal>  (11) 
0.0818297

>  <r_i_glide_intrahb_reward>  (11) 
-0

>  <i_i_glide_confnum>  (11) 
1

>  <i_i_glide_posenum>  (11) 
8

>  <r_i_glide_eff_state_penalty>  (11) 
0

>  <ligand_id>  (11) 
5

>  <original_smiles>  (11) 
CC(C)C1=CC2C3C(C)CC(C4CCC2(C)OC2C(C)(C)OOC142)C3(C)C

>  <smiles>  (11) 
[H]C1=C(C([H])(C([H])([H])[H])C([H])([H])[H])C23OOC(C([H])([H])[H])(C([H])([H])[H])C2([H])OC2(C([H])([H])[H])C([H])([H])C([H])([H])C3([H])C3([H])C([H])([H])C([H])(C([H])([H])[H])C([H])(C12[H])C3(C([H])([H])[H])C([H])([H])[H]

$$$$
5:0:2
     RDKit          3D

 65 69  0  0  1  0  0  0  0  0999 V2000
    1.0719   -1.9770    3.4203 C   0  0  0  0  0  0  0  0  0  0  0  0
    2.0726   -2.6799    4.3644 C   0  0  0  0  0  0  0  0  0  0  0  0
    2.8077   -1.5806    5.1565 C   0  0  0  0  0  0  0  0  0  0  0  0
    3.0267   -3.7224    3.7105 C   0  0  0  0  0  0  0  0  0  0  0  0
    4.3627   -3.6973    3.8744 C   0  0  0  0  0  0  0  0  0  0  0  0
    5.3035   -4.6725    3.2048 C   0  0  2  0  0  0  0  0  0  0  0  0
    5.7531   -3.9867    1.8261 C   0  0  1  0  0  0  0  0  0  0  0  0
    6.4305   -4.9277    0.8108 C   0  0  1  0  0  0  0  0  0  0  0  0
    7.5755   -5.8747    1.2221 C   0  0  0  0  0  0  0  0  0  0  0  0
    5.2295   -5.4238   -0.0442 C   0  0  0  0  0  0  0  0  0  0  0  0
    3.9510   -4.6512    0.4804 C   0  0  1  0  0  0  0  0  0  0  0  0
    2.9785   -5.4189    1.5347 C   0  0  1  0  0  0  0  0  0  0  0  0
    3.3139   -6.9064    1.5146 C   0  0  0  0  0  0  0  0  0  0  0  0
    4.5797   -7.2418    2.3288 C   0  0  0  0  0  0  0  0  0  0  0  0
    4.9662   -6.2448    3.4705 C   0  0  1  0  0  0  0  0  0  0  0  0
    6.1342   -6.8562    4.2845 C   0  0  0  0  0  0  0  0  0  0  0  0
    3.9253   -6.5075    4.4215 O   0  0  0  0  0  0  0  0  0  0  0  0
    2.6148   -6.0043    4.1995 C   0  0  2  0  0  0  0  0  0  0  0  0
    1.4061   -6.9812    4.2663 C   0  0  0  0  0  0  0  0  0  0  0  0
    1.6950   -8.4978    4.1760 C   0  0  0  0  0  0  0  0  0  0  0  0
    0.5327   -6.7662    5.5217 C   0  0  0  0  0  0  0  0  0  0  0  0
    0.6865   -6.5142    3.1464 O   0  0  0  0  0  0  0  0  0  0  0  0
    1.0386   -5.0497    3.0249 O   0  0  0  0  0  0  0  0  0  0  0  0
    2.4586   -4.9790    3.0306 C   0  0  1  0  0  0  0  0  0  0  0  0
    4.6454   -3.3406    0.8859 C   0  0  0  0  0  0  0  0  0  0  0  0
    3.6641   -2.2465    1.3658 C   0  0  0  0  0  0  0  0  0  0  0  0
    5.2598   -2.5538   -0.3380 C   0  0  0  0  0  0  0  0  0  0  0  0
    0.4521   -2.6771    2.8716 H   0  0  0  0  0  0  0  0  0  0  0  0
    1.5671   -1.3247    2.6958 H   0  0  0  0  0  0  0  0  0  0  0  0
    0.3822   -1.3503    3.9897 H   0  0  0  0  0  0  0  0  0  0  0  0
    1.4628   -3.2368    5.0806 H   0  0  0  0  0  0  0  0  0  0  0  0
    3.2854   -1.9768    6.0494 H   0  0  0  0  0  0  0  0  0  0  0  0
    2.1250   -0.7931    5.4707 H   0  0  0  0  0  0  0  0  0  0  0  0
    3.5716   -1.0950    4.5452 H   0  0  0  0  0  0  0  0  0  0  0  0
    4.8524   -2.9003    4.4040 H   0  0  0  0  0  0  0  0  0  0  0  0
    6.1899   -4.5302    3.8151 H   0  0  0  0  0  0  0  0  0  0  0  0
    6.4595   -3.1951    2.0786 H   0  0  0  0  0  0  0  0  0  0  0  0
    7.0260   -4.2791    0.1741 H   0  0  0  0  0  0  0  0  0  0  0  0
    7.2872   -6.7654    1.7607 H   0  0  0  0  0  0  0  0  0  0  0  0
    8.2977   -5.3410    1.8409 H   0  0  0  0  0  0  0  0  0  0  0  0
    8.1046   -6.2246    0.3356 H   0  0  0  0  0  0  0  0  0  0  0  0
    5.4030   -5.1326   -1.0776 H   0  0  0  0  0  0  0  0  0  0  0  0
    5.1702   -6.4976   -0.1563 H   0  0  0  0  0  0  0  0  0  0  0  0
    3.3300   -4.4456   -0.3921 H   0  0  0  0  0  0  0  0  0  0  0  0
    2.0355   -5.3854    0.9881 H   0  0  0  0  0  0  0  0  0  0  0  0
    2.4569   -7.4653    1.8485 H   0  0  0  0  0  0  0  0  0  0  0  0
    3.4027   -7.2815    0.4988 H   0  0  0  0  0  0  0  0  0  0  0  0
    4.4244   -8.2270    2.7722 H   0  0  0  0  0  0  0  0  0  0  0  0
    5.4057   -7.4493    1.6638 H   0  0  0  0  0  0  0  0  0  0  0  0
    7.1139   -6.6829    3.8433 H   0  0  0  0  0  0  0  0  0  0  0  0
    6.0165   -7.9325    4.4183 H   0  0  0  0  0  0  0  0  0  0  0  0
    6.1692   -6.4120    5.2791 H   0  0  0  0  0  0  0  0  0  0  0  0
    2.4835   -5.4547    5.1377 H   0  0  0  0  0  0  0  0  0  0  0  0
    2.1487   -8.8630    5.0993 H   0  0  0  0  0  0  0  0  0  0  0  0
    2.3561   -8.8025    3.3743 H   0  0  0  0  0  0  0  0  0  0  0  0
    0.7660   -9.0530    4.0399 H   0  0  0  0  0  0  0  0  0  0  0  0
    1.0851   -7.0483    6.4237 H   0  0  0  0  0  0  0  0  0  0  0  0
   -0.3615   -7.3914    5.4867 H   0  0  0  0  0  0  0  0  0  0  0  0
    0.2159   -5.7280    5.6386 H   0  0  0  0  0  0  0  0  0  0  0  0
    3.4623   -1.4523    0.6504 H   0  0  0  0  0  0  0  0  0  0  0  0
    4.0031   -1.7249    2.2552 H   0  0  0  0  0  0  0  0  0  0  0  0
    2.6798   -2.6814    1.4942 H   0  0  0  0  0  0  0  0  0  0  0  0
    4.4711   -2.2135   -1.0143 H   0  0  0  0  0  0  0  0  0  0  0  0
    5.9326   -3.0701   -1.0156 H   0  0  0  0  0  0  0  0  0  0  0  0
    5.7939   -1.6708    0.0150 H   0  0  0  0  0  0  0  0  0  0  0  0
  1  2  1  0
  1 28  1  0
  1 29  1  0
  1 30  1  0
  2  3  1  0
  2  4  1  0
  2 31  1  0
  3 32  1  0
  3 33  1  0
  3 34  1  0
  4 24  1  0
  4  5  2  0
  5  6  1  0
  5 35  1  0
  6 15  1  0
  6  7  1  0
  6 36  1  1
  7 25  1  0
  7  8  1  0
  7 37  1  1
  8  9  1  0
  8 10  1  0
  8 38  1  6
  9 39  1  0
  9 40  1  0
  9 41  1  0
 10 11  1  0
 10 42  1  0
 10 43  1  0
 11 12  1  0
 11 25  1  0
 11 44  1  6
 12 24  1  0
 12 13  1  0
 12 45  1  6
 13 14  1  0
 13 46  1  0
 13 47  1  0
 14 15  1  0
 14 48  1  0
 14 49  1  0
 15 16  1  1
 15 17  1  0
 16 50  1  0
 16 51  1  0
 16 52  1  0
 17 18  1  0
 18 24  1  0
 18 19  1  0
 18 53  1  1
 19 20  1  0
 19 21  1  0
 19 22  1  0
 20 54  1  0
 20 55  1  0
 20 56  1  0
 21 57  1  0
 21 58  1  0
 21 59  1  0
 22 23  1  0
 24 23  1  6
 25 26  1  0
 25 27  1  0
 26 60  1  0
 26 61  1  0
 26 62  1  0
 27 63  1  0
 27 64  1  0
 27 65  1  0
M  END
>  <i_m_ct_stereo_status>  (12) 
1

>  <s_m_source_file>  (12) 
/var/tmp/pbs.5076255.sched01/tmprv8ptrg5/026yimkau.sdf

>  <i_m_source_file_index>  (12) 
5

>  <i_lp_mmshare_version>  (12) 
48012

>  <i_f3d_flags>  (12) 
0

>  <s_epik_input>  (12) 
W0NAQF0xMjNbQ0BIXTRbQ0BASF01W0NIMl1bQ0BIXShbQ0gzXSlbQ0BASF0oQzUoW0NIM10pW0NIM10pW0NAQEhdKFtDSF09QzFbQ0hdKFtDSDNdKVtDSDNdKVtDQF0oW0NIM10pKFtDSDJdW0NIMl00KU9bQ0BASF0yQyhbQ0gzXSkoW0NIM10pT08z

>  <s_epik_cmdline>  (12) 
J2VwaWtfcHl0aG9uJywgJy1waHQnLCAnMi4wJywgJy1waCcsICc3LjAnLCAnLXRuJywgJzgnLCAnLW1hJywgJzIwMCcsICctaW1hZScsICc8aW5maWxlLm1hZT4nLCAnLW9tYWUnLCAnPG91dGZpbGUubWFlPic=

>  <r_lp_tautomer_probability>  (12) 
1

>  <r_epik_Ionization_Penalty>  (12) 
8.12899e-13

>  <r_epik_Ionization_Penalty_Charging>  (12) 
0

>  <r_epik_Ionization_Penalty_Neutral>  (12) 
8.12899e-13

>  <r_epik_State_Penalty>  (12) 
-0

>  <r_epik_Charging_Adjusted_Penalty>  (12) 
0

>  <i_epik_Tot_Q>  (12) 
0

>  <i_epik_Tot_abs_Q>  (12) 
0

>  <s_lp_Force_Field>  (12) 
OPLS3e

>  <r_lp_Energy>  (12) 
151.332

>  <b_lp_Chiralities_Consistent>  (12) 
1

>  <s_lp_Variant>  (12) 
5:0-1

>  <s_i_glide_gridfile>  (12) 
pfpi4k_grid

>  <i_i_glide_lignum>  (12) 
5

>  <i_i_glide_rotatable_bonds>  (12) 
1

>  <r_i_docking_score>  (12) 
-2.06086

>  <r_i_glide_ligand_efficiency>  (12) 
-0.0763282

>  <r_i_glide_ligand_efficiency_sa>  (12) 
-0.228985

>  <r_i_glide_ligand_efficiency_ln>  (12) 
-0.479735

>  <r_i_glide_gscore>  (12) 
-2.06086

>  <r_i_glide_lipo>  (12) 
-0.38202

>  <r_i_glide_hbond>  (12) 
0

>  <r_i_glide_metal>  (12) 
-0

>  <r_i_glide_rewards>  (12) 
-0.855295

>  <r_i_glide_evdw>  (12) 
-15.3619

>  <r_i_glide_ecoul>  (12) 
-0.369678

>  <r_i_glide_erotb>  (12) 
0

>  <r_i_glide_esite>  (12) 
0

>  <r_i_glide_emodel>  (12) 
-17.7722

>  <r_i_glide_energy>  (12) 
-15.7316

>  <r_i_glide_einternal>  (12) 
0.275647

>  <r_i_glide_intrahb_reward>  (12) 
-0

>  <i_i_glide_confnum>  (12) 
2

>  <i_i_glide_posenum>  (12) 
40

>  <r_i_glide_eff_state_penalty>  (12) 
0

>  <ligand_id>  (12) 
5

>  <original_smiles>  (12) 
CC(C)C1=CC2C3C(C)CC(C4CCC2(C)OC2C(C)(C)OOC142)C3(C)C

>  <smiles>  (12) 
[H]C1=C(C([H])(C([H])([H])[H])C([H])([H])[H])C23OOC(C([H])([H])[H])(C([H])([H])[H])C2([H])OC2(C([H])([H])[H])C([H])([H])C([H])([H])C3([H])C3([H])C([H])([H])C([H])(C([H])([H])[H])C([H])(C12[H])C3(C([H])([H])[H])C([H])([H])[H]

$$$$
6:0:0
     RDKit          3D

 48 52  0  0  1  0  0  0  0  0999 V2000
  -11.9526  -12.2996   -8.4927 C   0  0  0  0  0  0  0  0  0  0  0  0
  -11.1346  -11.2983   -9.3273 C   0  0  0  0  0  0  0  0  0  0  0  0
  -11.9125  -10.9516  -10.6083 C   0  0  0  0  0  0  0  0  0  0  0  0
  -10.8265  -10.0099   -8.5224 C   0  0  0  0  0  0  0  0  0  0  0  0
   -9.3890  -10.2120   -8.0262 C   0  0  2  0  0  0  0  0  0  0  0  0
   -8.5562   -9.0222   -7.6031 C   0  0  0  0  0  0  0  0  0  0  0  0
   -8.9864   -7.7414   -7.6624 C   0  0  0  0  0  0  0  0  0  0  0  0
   -8.1735   -6.5365   -7.2554 C   0  0  0  0  0  0  0  0  0  0  0  0
   -6.8641   -6.9081   -6.5593 C   0  0  0  0  0  0  0  0  0  0  0  0
   -6.2108   -8.1478   -7.2063 C   0  0  0  0  0  0  0  0  0  0  0  0
   -7.1289   -9.3999   -7.1595 C   0  0  1  0  0  0  0  0  0  0  0  0
   -7.2021   -9.8582   -5.7114 C   0  0  0  0  0  0  0  0  0  0  0  0
   -6.5360  -10.5971   -7.9273 C   0  0  0  0  0  0  0  0  0  0  0  0
   -5.2148  -11.0343   -7.6396 C   0  0  0  0  0  0  0  0  0  0  0  0
   -4.6507  -12.1393   -8.3118 C   0  0  0  0  0  0  0  0  0  0  0  0
   -3.4045  -12.7513   -8.2353 N   0  0  0  0  0  0  0  0  0  0  0  0
   -3.4111  -13.7667   -9.0470 N   0  0  0  0  0  0  0  0  0  0  0  0
   -4.5856  -13.7606   -9.7275 N   0  0  0  0  0  0  0  0  0  0  0  0
   -5.4448  -12.7921   -9.2787 C   0  0  0  0  0  0  0  0  0  0  0  0
   -6.7555  -12.3987   -9.5722 C   0  0  0  0  0  0  0  0  0  0  0  0
   -7.3118  -11.3041   -8.8911 C   0  0  0  0  0  0  0  0  0  0  0  0
   -8.7219  -10.8445   -9.2200 C   0  0  1  0  0  0  0  0  0  0  0  0
   -9.7438  -11.9006   -9.6534 C   0  0  0  0  0  0  0  0  0  0  0  0
   -4.7849  -14.4403  -10.4459 H   0  0  0  0  0  0  0  0  0  0  0  0
  -12.9253  -11.8853   -8.2283 H   0  0  0  0  0  0  0  0  0  0  0  0
  -11.4410  -12.5547   -7.5637 H   0  0  0  0  0  0  0  0  0  0  0  0
  -12.1270  -13.2266   -9.0403 H   0  0  0  0  0  0  0  0  0  0  0  0
  -11.3540  -10.2628  -11.2427 H   0  0  0  0  0  0  0  0  0  0  0  0
  -12.8620  -10.4759  -10.3644 H   0  0  0  0  0  0  0  0  0  0  0  0
  -12.1323  -11.8415  -11.1981 H   0  0  0  0  0  0  0  0  0  0  0  0
  -10.8782   -9.1404   -9.1852 H   0  0  0  0  0  0  0  0  0  0  0  0
  -11.5263   -9.8478   -7.7005 H   0  0  0  0  0  0  0  0  0  0  0  0
   -9.4192  -10.9235   -7.1984 H   0  0  0  0  0  0  0  0  0  0  0  0
   -9.9888   -7.5088   -7.9918 H   0  0  0  0  0  0  0  0  0  0  0  0
   -7.9734   -5.9591   -8.1594 H   0  0  0  0  0  0  0  0  0  0  0  0
   -8.7700   -5.9066   -6.5917 H   0  0  0  0  0  0  0  0  0  0  0  0
   -6.2083   -6.0406   -6.6231 H   0  0  0  0  0  0  0  0  0  0  0  0
   -7.0328   -7.0656   -5.4918 H   0  0  0  0  0  0  0  0  0  0  0  0
   -5.9772   -7.9343   -8.2468 H   0  0  0  0  0  0  0  0  0  0  0  0
   -5.2618   -8.3447   -6.7101 H   0  0  0  0  0  0  0  0  0  0  0  0
   -7.7654  -10.7798   -5.5851 H   0  0  0  0  0  0  0  0  0  0  0  0
   -7.7225   -9.1157   -5.1340 H   0  0  0  0  0  0  0  0  0  0  0  0
   -6.2066   -9.9646   -5.2723 H   0  0  0  0  0  0  0  0  0  0  0  0
   -4.6113  -10.5159   -6.9099 H   0  0  0  0  0  0  0  0  0  0  0  0
   -7.3258  -12.9101  -10.3261 H   0  0  0  0  0  0  0  0  0  0  0  0
   -8.6460  -10.0882  -10.0048 H   0  0  0  0  0  0  0  0  0  0  0  0
   -9.5899  -12.8246   -9.0918 H   0  0  0  0  0  0  0  0  0  0  0  0
   -9.6328  -12.1450  -10.7060 H   0  0  0  0  0  0  0  0  0  0  0  0
  1  2  1  0
  1 25  1  0
  1 26  1  0
  1 27  1  0
  2 23  1  0
  2  3  1  0
  2  4  1  0
  3 28  1  0
  3 29  1  0
  3 30  1  0
  4  5  1  0
  4 31  1  0
  4 32  1  0
  5 22  1  0
  5  6  1  0
  5 33  1  1
  6 11  1  0
  6  7  2  0
  7  8  1  0
  7 34  1  0
  8  9  1  0
  8 35  1  0
  8 36  1  0
  9 10  1  0
  9 37  1  0
  9 38  1  0
 10 11  1  0
 10 39  1  0
 10 40  1  0
 11 12  1  1
 11 13  1  0
 12 41  1  0
 12 42  1  0
 12 43  1  0
 13 14  2  0
 13 21  1  0
 14 44  1  0
 14 15  1  0
 15 16  1  0
 15 19  2  0
 16 17  2  0
 17 18  1  0
 18 19  1  0
 18 24  1  0
 19 20  1  0
 20 21  2  0
 20 45  1  0
 21 22  1  0
 22 23  1  0
 22 46  1  6
 23 47  1  0
 23 48  1  0
M  END
>  <i_m_ct_stereo_status>  (13) 
1

>  <s_m_source_file>  (13) 
/var/tmp/pbs.5076255.sched01/tmprv8ptrg5/026yimkau.sdf

>  <i_m_source_file_index>  (13) 
6

>  <i_lp_mmshare_version>  (13) 
48012

>  <i_f3d_flags>  (13) 
0

>  <s_epik_input>  (13) 
W0NIMl0xW0NIMl1bQ0gyXVtDSF09QyhbQ0BdMTJbQ0gzXSlbQ0BASF0zW0NASF0oW0NIMl1DKFtDSDNdKShbQ0gzXSlbQ0gyXTMpYzRjMltjSF1jNWMoW2NIXTQpbltuSF1uNQ==

>  <s_epik_cmdline>  (13) 
J2VwaWtfcHl0aG9uJywgJy1waHQnLCAnMi4wJywgJy1waCcsICc3LjAnLCAnLXRuJywgJzgnLCAnLW1hJywgJzIwMCcsICctaW1hZScsICc8aW5maWxlLm1hZT4nLCAnLW9tYWUnLCAnPG91dGZpbGUubWFlPic=

>  <r_lp_tautomer_probability>  (13) 
0.460795

>  <r_epik_Ionization_Penalty>  (13) 
0.000705586

>  <r_epik_Ionization_Penalty_Charging>  (13) 
0

>  <r_epik_Ionization_Penalty_Neutral>  (13) 
0.000705586

>  <r_epik_State_Penalty>  (13) 
0.425407

>  <r_epik_Charging_Adjusted_Penalty>  (13) 
0.425407

>  <i_epik_Tot_Q>  (13) 
0

>  <i_epik_Tot_abs_Q>  (13) 
0

>  <s_lp_Force_Field>  (13) 
OPLS3e

>  <r_lp_Energy>  (13) 
30.0962

>  <b_lp_Chiralities_Consistent>  (13) 
1

>  <s_lp_Variant>  (13) 
6:0-1

>  <s_i_glide_gridfile>  (13) 
pfpi4k_grid

>  <i_i_glide_lignum>  (13) 
6

>  <i_i_glide_rotatable_bonds>  (13) 
0

>  <r_i_docking_score>  (13) 
-4.71106

>  <r_i_glide_ligand_efficiency>  (13) 
-0.204829

>  <r_i_glide_ligand_efficiency_sa>  (13) 
-0.582506

>  <r_i_glide_ligand_efficiency_ln>  (13) 
-1.13918

>  <r_i_glide_gscore>  (13) 
-4.71106

>  <r_i_glide_lipo>  (13) 
-1.40598

>  <r_i_glide_hbond>  (13) 
0

>  <r_i_glide_metal>  (13) 
-0

>  <r_i_glide_rewards>  (13) 
-1.59859

>  <r_i_glide_evdw>  (13) 
-15.6594

>  <r_i_glide_ecoul>  (13) 
-5.11049

>  <r_i_glide_erotb>  (13) 
0

>  <r_i_glide_esite>  (13) 
-0.156945

>  <r_i_glide_emodel>  (13) 
-29.1387

>  <r_i_glide_energy>  (13) 
-20.7698

>  <r_i_glide_einternal>  (13) 
0

>  <r_i_glide_intrahb_reward>  (13) 
-0

>  <i_i_glide_confnum>  (13) 
1

>  <i_i_glide_posenum>  (13) 
20

>  <r_i_glide_eff_state_penalty>  (13) 
0

>  <ligand_id>  (13) 
6

>  <original_smiles>  (13) 
CC1(C)CC2C3=CCCCC3(C)c3cc4n[nH]nc4cc3C2C1

>  <smiles>  (13) 
[H]C1=C2C3([H])C([H])([H])C(C([H])([H])[H])(C([H])([H])[H])C([H])([H])C3([H])c3c(c([H])c4nnn([H])c4c3[H])C2(C([H])([H])[H])C([H])([H])C([H])([H])C1([H])[H]

$$$$
6:0:1
     RDKit          3D

 48 52  0  0  1  0  0  0  0  0999 V2000
   -0.9143    9.4382    7.6083 C   0  0  0  0  0  0  0  0  0  0  0  0
    0.1883    8.3771    7.8331 C   0  0  0  0  0  0  0  0  0  0  0  0
    1.5514    9.0784    7.9627 C   0  0  0  0  0  0  0  0  0  0  0  0
   -0.1016    7.5291    9.1013 C   0  0  0  0  0  0  0  0  0  0  0  0
   -0.7326    6.2378    8.5612 C   0  0  2  0  0  0  0  0  0  0  0  0
   -0.7714    4.9862    9.4232 C   0  0  0  0  0  0  0  0  0  0  0  0
   -0.2251    4.9078   10.6554 C   0  0  0  0  0  0  0  0  0  0  0  0
   -0.1597    3.6402   11.4863 C   0  0  0  0  0  0  0  0  0  0  0  0
   -0.9861    2.4893   10.9002 C   0  0  0  0  0  0  0  0  0  0  0  0
   -0.9280    2.4585    9.3664 C   0  0  0  0  0  0  0  0  0  0  0  0
   -1.4180    3.7850    8.7115 C   0  0  1  0  0  0  0  0  0  0  0  0
   -2.9515    3.9090    8.9130 C   0  0  0  0  0  0  0  0  0  0  0  0
   -1.1552    3.7641    7.1848 C   0  0  0  0  0  0  0  0  0  0  0  0
   -1.6318    2.6767    6.4063 C   0  0  0  0  0  0  0  0  0  0  0  0
   -1.4296    2.6253    5.0058 C   0  0  0  0  0  0  0  0  0  0  0  0
   -1.7857    1.6869    4.0493 N   0  0  0  0  0  0  0  0  0  0  0  0
   -1.3819    2.0958    2.9135 N   0  0  0  0  0  0  0  0  0  0  0  0
   -0.7515    3.2923    3.0772 N   0  0  0  0  0  0  0  0  0  0  0  0
   -0.7414    3.7007    4.3955 C   0  0  0  0  0  0  0  0  0  0  0  0
   -0.2532    4.7854    5.1213 C   0  0  0  0  0  0  0  0  0  0  0  0
   -0.4612    4.8222    6.5238 C   0  0  0  0  0  0  0  0  0  0  0  0
    0.1024    5.9727    7.3329 C   0  0  1  0  0  0  0  0  0  0  0  0
    0.1858    7.3538    6.6677 C   0  0  0  0  0  0  0  0  0  0  0  0
   -0.3388    3.7808    2.2660 H   0  0  0  0  0  0  0  0  0  0  0  0
   -0.9429   10.1577    8.4269 H   0  0  0  0  0  0  0  0  0  0  0  0
   -1.9018    8.9804    7.5362 H   0  0  0  0  0  0  0  0  0  0  0  0
   -0.7455    9.9971    6.6895 H   0  0  0  0  0  0  0  0  0  0  0  0
    2.3604    8.3588    8.0972 H   0  0  0  0  0  0  0  0  0  0  0  0
    1.5654    9.7539    8.8198 H   0  0  0  0  0  0  0  0  0  0  0  0
    1.7903    9.6734    7.0784 H   0  0  0  0  0  0  0  0  0  0  0  0
    0.8384    7.3011    9.6056 H   0  0  0  0  0  0  0  0  0  0  0  0
   -0.7502    8.0383    9.8131 H   0  0  0  0  0  0  0  0  0  0  0  0
   -1.7592    6.4659    8.2692 H   0  0  0  0  0  0  0  0  0  0  0  0
    0.2528    5.7626   11.1032 H   0  0  0  0  0  0  0  0  0  0  0  0
    0.8872    3.3423   11.5660 H   0  0  0  0  0  0  0  0  0  0  0  0
   -0.5027    3.8630   12.4999 H   0  0  0  0  0  0  0  0  0  0  0  0
   -0.6420    1.5401   11.3231 H   0  0  0  0  0  0  0  0  0  0  0  0
   -2.0177    2.5882   11.2339 H   0  0  0  0  0  0  0  0  0  0  0  0
    0.1026    2.2642    9.0709 H   0  0  0  0  0  0  0  0  0  0  0  0
   -1.5112    1.6055    9.0169 H   0  0  0  0  0  0  0  0  0  0  0  0
   -3.3494    4.7646    8.3669 H   0  0  0  0  0  0  0  0  0  0  0  0
   -3.2104    4.0585    9.9621 H   0  0  0  0  0  0  0  0  0  0  0  0
   -3.4882    3.0251    8.5672 H   0  0  0  0  0  0  0  0  0  0  0  0
   -2.1600    1.8581    6.8667 H   0  0  0  0  0  0  0  0  0  0  0  0
    0.2815    5.5739    4.6219 H   0  0  0  0  0  0  0  0  0  0  0  0
    1.1066    5.6804    7.6447 H   0  0  0  0  0  0  0  0  0  0  0  0
   -0.6835    7.5149    6.0373 H   0  0  0  0  0  0  0  0  0  0  0  0
    1.0615    7.4400    6.0243 H   0  0  0  0  0  0  0  0  0  0  0  0
  1  2  1  0
  1 25  1  0
  1 26  1  0
  1 27  1  0
  2 23  1  0
  2  3  1  0
  2  4  1  0
  3 28  1  0
  3 29  1  0
  3 30  1  0
  4  5  1  0
  4 31  1  0
  4 32  1  0
  5 22  1  0
  5  6  1  0
  5 33  1  6
  6 11  1  0
  6  7  2  0
  7  8  1  0
  7 34  1  0
  8  9  1  0
  8 35  1  0
  8 36  1  0
  9 10  1  0
  9 37  1  0
  9 38  1  0
 10 11  1  0
 10 39  1  0
 10 40  1  0
 11 12  1  6
 11 13  1  0
 12 41  1  0
 12 42  1  0
 12 43  1  0
 13 14  2  0
 13 21  1  0
 14 44  1  0
 14 15  1  0
 15 16  1  0
 15 19  2  0
 16 17  2  0
 17 18  1  0
 18 19  1  0
 18 24  1  0
 19 20  1  0
 20 21  2  0
 20 45  1  0
 21 22  1  0
 22 23  1  0
 22 46  1  1
 23 47  1  0
 23 48  1  0
M  END
>  <i_m_ct_stereo_status>  (14) 
1

>  <s_m_source_file>  (14) 
/var/tmp/pbs.5076255.sched01/tmprv8ptrg5/026yimkau.sdf

>  <i_m_source_file_index>  (14) 
6

>  <i_lp_mmshare_version>  (14) 
48012

>  <i_f3d_flags>  (14) 
0

>  <s_epik_input>  (14) 
W0NIMl0xW0NIMl1bQ0gyXVtDSF09QyhbQ0BdMTJbQ0gzXSlbQ0BASF0zW0NASF0oW0NIMl1DKFtDSDNdKShbQ0gzXSlbQ0gyXTMpYzRjMltjSF1jNWMoW2NIXTQpbltuSF1uNQ==

>  <s_epik_cmdline>  (14) 
J2VwaWtfcHl0aG9uJywgJy1waHQnLCAnMi4wJywgJy1waCcsICc3LjAnLCAnLXRuJywgJzgnLCAnLW1hJywgJzIwMCcsICctaW1hZScsICc8aW5maWxlLm1hZT4nLCAnLW9tYWUnLCAnPG91dGZpbGUubWFlPic=

>  <r_lp_tautomer_probability>  (14) 
0.460795

>  <r_epik_Ionization_Penalty>  (14) 
0.000705586

>  <r_epik_Ionization_Penalty_Charging>  (14) 
0

>  <r_epik_Ionization_Penalty_Neutral>  (14) 
0.000705586

>  <r_epik_State_Penalty>  (14) 
0.425407

>  <r_epik_Charging_Adjusted_Penalty>  (14) 
0.425407

>  <i_epik_Tot_Q>  (14) 
0

>  <i_epik_Tot_abs_Q>  (14) 
0

>  <s_lp_Force_Field>  (14) 
OPLS3e

>  <r_lp_Energy>  (14) 
30.0962

>  <b_lp_Chiralities_Consistent>  (14) 
1

>  <s_lp_Variant>  (14) 
6:0-1

>  <s_i_glide_gridfile>  (14) 
pfpi4k_grid

>  <i_i_glide_lignum>  (14) 
6

>  <i_i_glide_rotatable_bonds>  (14) 
0

>  <r_i_docking_score>  (14) 
-3.335

>  <r_i_glide_ligand_efficiency>  (14) 
-0.145

>  <r_i_glide_ligand_efficiency_sa>  (14) 
-0.41236

>  <r_i_glide_ligand_efficiency_ln>  (14) 
-0.806432

>  <r_i_glide_gscore>  (14) 
-3.335

>  <r_i_glide_lipo>  (14) 
-0.127958

>  <r_i_glide_hbond>  (14) 
-0.16

>  <r_i_glide_metal>  (14) 
-0

>  <r_i_glide_rewards>  (14) 
-1.31296

>  <r_i_glide_evdw>  (14) 
-19.9254

>  <r_i_glide_ecoul>  (14) 
-3.8137

>  <r_i_glide_erotb>  (14) 
0

>  <r_i_glide_esite>  (14) 
-0.165755

>  <r_i_glide_emodel>  (14) 
-29.7225

>  <r_i_glide_energy>  (14) 
-23.7391

>  <r_i_glide_einternal>  (14) 
0

>  <r_i_glide_intrahb_reward>  (14) 
-0

>  <i_i_glide_confnum>  (14) 
2

>  <i_i_glide_posenum>  (14) 
34

>  <r_i_glide_eff_state_penalty>  (14) 
0

>  <ligand_id>  (14) 
6

>  <original_smiles>  (14) 
CC1(C)CC2C3=CCCCC3(C)c3cc4n[nH]nc4cc3C2C1

>  <smiles>  (14) 
[H]C1=C2C3([H])C([H])([H])C(C([H])([H])[H])(C([H])([H])[H])C([H])([H])C3([H])c3c(c([H])c4nnn([H])c4c3[H])C2(C([H])([H])[H])C([H])([H])C([H])([H])C1([H])[H]

$$$$
6:0:2
     RDKit          3D

 48 52  0  0  1  0  0  0  0  0999 V2000
   -1.0203    2.6074   10.0803 C   0  0  0  0  0  0  0  0  0  0  0  0
   -1.7287    3.3642    8.9378 C   0  0  0  0  0  0  0  0  0  0  0  0
   -3.2255    3.5072    9.2738 C   0  0  0  0  0  0  0  0  0  0  0  0
   -1.0944    4.7644    8.7174 C   0  0  0  0  0  0  0  0  0  0  0  0
   -0.1508    4.5758    7.5229 C   0  0  2  0  0  0  0  0  0  0  0  0
    0.3300    5.7796    6.7257 C   0  0  0  0  0  0  0  0  0  0  0  0
   -0.0611    7.0471    6.9745 C   0  0  0  0  0  0  0  0  0  0  0  0
    0.3318    8.2511    6.1365 C   0  0  0  0  0  0  0  0  0  0  0  0
    1.4189    7.9364    5.1007 C   0  0  0  0  0  0  0  0  0  0  0  0
    1.2429    6.5349    4.4865 C   0  0  0  0  0  0  0  0  0  0  0  0
    1.2485    5.3964    5.5501 C   0  0  1  0  0  0  0  0  0  0  0  0
    2.6834    5.2531    6.1221 C   0  0  0  0  0  0  0  0  0  0  0  0
    0.8775    4.0402    4.8988 C   0  0  0  0  0  0  0  0  0  0  0  0
    1.5899    3.5888    3.7564 C   0  0  0  0  0  0  0  0  0  0  0  0
    1.2989    2.3441    3.1505 C   0  0  0  0  0  0  0  0  0  0  0  0
    1.8542    1.6784    2.0631 N   0  0  0  0  0  0  0  0  0  0  0  0
    1.2291    0.5769    1.9018 N   0  0  0  0  0  0  0  0  0  0  0  0
    0.2778    0.4689    2.8719 N   0  0  0  0  0  0  0  0  0  0  0  0
    0.2666    1.5565    3.7096 C   0  0  0  0  0  0  0  0  0  0  0  0
   -0.4606    1.9662    4.8316 C   0  0  0  0  0  0  0  0  0  0  0  0
   -0.1535    3.2033    5.4357 C   0  0  0  0  0  0  0  0  0  0  0  0
   -0.9615    3.6743    6.6242 C   0  0  1  0  0  0  0  0  0  0  0  0
   -1.5128    2.6189    7.5915 C   0  0  0  0  0  0  0  0  0  0  0  0
   -0.3170   -0.3454    2.9315 H   0  0  0  0  0  0  0  0  0  0  0  0
   -1.1405    3.1215   11.0351 H   0  0  0  0  0  0  0  0  0  0  0  0
    0.0498    2.5076    9.8927 H   0  0  0  0  0  0  0  0  0  0  0  0
   -1.4211    1.6023   10.2087 H   0  0  0  0  0  0  0  0  0  0  0  0
   -3.7685    4.0190    8.4792 H   0  0  0  0  0  0  0  0  0  0  0  0
   -3.3630    4.0829   10.1890 H   0  0  0  0  0  0  0  0  0  0  0  0
   -3.7034    2.5418    9.4277 H   0  0  0  0  0  0  0  0  0  0  0  0
   -1.8759    5.4838    8.4697 H   0  0  0  0  0  0  0  0  0  0  0  0
   -0.5724    5.1348    9.6016 H   0  0  0  0  0  0  0  0  0  0  0  0
    0.7323    4.0402    7.8753 H   0  0  0  0  0  0  0  0  0  0  0  0
   -0.7313    7.2639    7.7902 H   0  0  0  0  0  0  0  0  0  0  0  0
   -0.5613    8.6224    5.6325 H   0  0  0  0  0  0  0  0  0  0  0  0
    0.6707    9.0489    6.7995 H   0  0  0  0  0  0  0  0  0  0  0  0
    1.4093    8.6951    4.3159 H   0  0  0  0  0  0  0  0  0  0  0  0
    2.4002    8.0172    5.5673 H   0  0  0  0  0  0  0  0  0  0  0  0
    0.2998    6.5183    3.9382 H   0  0  0  0  0  0  0  0  0  0  0  0
    2.0190    6.3841    3.7368 H   0  0  0  0  0  0  0  0  0  0  0  0
    2.7611    4.3865    6.7805 H   0  0  0  0  0  0  0  0  0  0  0  0
    2.9736    6.1234    6.7117 H   0  0  0  0  0  0  0  0  0  0  0  0
    3.4294    5.1272    5.3364 H   0  0  0  0  0  0  0  0  0  0  0  0
    2.3760    4.1854    3.3234 H   0  0  0  0  0  0  0  0  0  0  0  0
   -1.2442    1.3381    5.2199 H   0  0  0  0  0  0  0  0  0  0  0  0
   -1.8006    4.2369    6.2210 H   0  0  0  0  0  0  0  0  0  0  0  0
   -0.7831    1.8193    7.7186 H   0  0  0  0  0  0  0  0  0  0  0  0
   -2.4251    2.1615    7.2096 H   0  0  0  0  0  0  0  0  0  0  0  0
  1  2  1  0
  1 25  1  0
  1 26  1  0
  1 27  1  0
  2 23  1  0
  2  3  1  0
  2  4  1  0
  3 28  1  0
  3 29  1  0
  3 30  1  0
  4  5  1  0
  4 31  1  0
  4 32  1  0
  5 22  1  0
  5  6  1  0
  5 33  1  1
  6 11  1  0
  6  7  2  0
  7  8  1  0
  7 34  1  0
  8  9  1  0
  8 35  1  0
  8 36  1  0
  9 10  1  0
  9 37  1  0
  9 38  1  0
 10 11  1  0
 10 39  1  0
 10 40  1  0
 11 12  1  1
 11 13  1  0
 12 41  1  0
 12 42  1  0
 12 43  1  0
 13 14  2  0
 13 21  1  0
 14 44  1  0
 14 15  1  0
 15 16  1  0
 15 19  2  0
 16 17  2  0
 17 18  1  0
 18 19  1  0
 18 24  1  0
 19 20  1  0
 20 21  2  0
 20 45  1  0
 21 22  1  0
 22 23  1  0
 22 46  1  6
 23 47  1  0
 23 48  1  0
M  END
>  <i_m_ct_stereo_status>  (15) 
1

>  <s_m_source_file>  (15) 
/var/tmp/pbs.5076255.sched01/tmprv8ptrg5/026yimkau.sdf

>  <i_m_source_file_index>  (15) 
6

>  <i_lp_mmshare_version>  (15) 
48012

>  <i_f3d_flags>  (15) 
0

>  <s_epik_input>  (15) 
W0NIMl0xW0NIMl1bQ0gyXVtDSF09QyhbQ0BdMTJbQ0gzXSlbQ0BASF0zW0NASF0oW0NIMl1DKFtDSDNdKShbQ0gzXSlbQ0gyXTMpYzRjMltjSF1jNWMoW2NIXTQpbltuSF1uNQ==

>  <s_epik_cmdline>  (15) 
J2VwaWtfcHl0aG9uJywgJy1waHQnLCAnMi4wJywgJy1waCcsICc3LjAnLCAnLXRuJywgJzgnLCAnLW1hJywgJzIwMCcsICctaW1hZScsICc8aW5maWxlLm1hZT4nLCAnLW9tYWUnLCAnPG91dGZpbGUubWFlPic=

>  <r_lp_tautomer_probability>  (15) 
0.460795

>  <r_epik_Ionization_Penalty>  (15) 
0.000705586

>  <r_epik_Ionization_Penalty_Charging>  (15) 
0

>  <r_epik_Ionization_Penalty_Neutral>  (15) 
0.000705586

>  <r_epik_State_Penalty>  (15) 
0.425407

>  <r_epik_Charging_Adjusted_Penalty>  (15) 
0.425407

>  <i_epik_Tot_Q>  (15) 
0

>  <i_epik_Tot_abs_Q>  (15) 
0

>  <s_lp_Force_Field>  (15) 
OPLS3e

>  <r_lp_Energy>  (15) 
30.0962

>  <b_lp_Chiralities_Consistent>  (15) 
1

>  <s_lp_Variant>  (15) 
6:0-1

>  <s_i_glide_gridfile>  (15) 
pfpi4k_grid

>  <i_i_glide_lignum>  (15) 
6

>  <i_i_glide_rotatable_bonds>  (15) 
0

>  <r_i_docking_score>  (15) 
-2.75904

>  <r_i_glide_ligand_efficiency>  (15) 
-0.119958

>  <r_i_glide_ligand_efficiency_sa>  (15) 
-0.341146

>  <r_i_glide_ligand_efficiency_ln>  (15) 
-0.667162

>  <r_i_glide_gscore>  (15) 
-2.75904

>  <r_i_glide_lipo>  (15) 
-0.0218487

>  <r_i_glide_hbond>  (15) 
0

>  <r_i_glide_metal>  (15) 
-0

>  <r_i_glide_rewards>  (15) 
-1.31296

>  <r_i_glide_evdw>  (15) 
-24.0319

>  <r_i_glide_ecoul>  (15) 
-0.800497

>  <r_i_glide_erotb>  (15) 
0

>  <r_i_glide_esite>  (15) 
-0.102567

>  <r_i_glide_emodel>  (15) 
-29.7743

>  <r_i_glide_energy>  (15) 
-24.8324

>  <r_i_glide_einternal>  (15) 
0

>  <r_i_glide_intrahb_reward>  (15) 
-0

>  <i_i_glide_confnum>  (15) 
1

>  <i_i_glide_posenum>  (15) 
4

>  <r_i_glide_eff_state_penalty>  (15) 
0

>  <ligand_id>  (15) 
6

>  <original_smiles>  (15) 
CC1(C)CC2C3=CCCCC3(C)c3cc4n[nH]nc4cc3C2C1

>  <smiles>  (15) 
[H]C1=C2C3([H])C([H])([H])C(C([H])([H])[H])(C([H])([H])[H])C([H])([H])C3([H])c3c(c([H])c4nnn([H])c4c3[H])C2(C([H])([H])[H])C([H])([H])C([H])([H])C1([H])[H]

$$$$
6:1:0
     RDKit          3D

 48 52  0  0  1  0  0  0  0  0999 V2000
    4.1015   -0.7238    0.4137 C   0  0  0  0  0  0  0  0  0  0  0  0
    4.4562   -1.9716   -0.4223 C   0  0  0  0  0  0  0  0  0  0  0  0
    4.6348   -1.5570   -1.8972 C   0  0  0  0  0  0  0  0  0  0  0  0
    5.7512   -2.6455    0.1047 C   0  0  0  0  0  0  0  0  0  0  0  0
    5.2480   -3.8134    0.9624 C   0  0  2  0  0  0  0  0  0  0  0  0
    6.1820   -4.9616    1.3132 C   0  0  0  0  0  0  0  0  0  0  0  0
    7.4468   -5.0557    0.8622 C   0  0  0  0  0  0  0  0  0  0  0  0
    8.3521   -6.2485    1.1043 C   0  0  0  0  0  0  0  0  0  0  0  0
    7.7947   -7.2449    2.1261 C   0  0  0  0  0  0  0  0  0  0  0  0
    6.2699   -7.3985    1.9956 C   0  0  0  0  0  0  0  0  0  0  0  0
    5.5097   -6.0518    2.1566 C   0  0  1  0  0  0  0  0  0  0  0  0
    5.5936   -5.5976    3.6373 C   0  0  0  0  0  0  0  0  0  0  0  0
    4.0178   -6.2554    1.8366 C   0  0  0  0  0  0  0  0  0  0  0  0
    3.2859   -7.2756    2.4890 C   0  0  0  0  0  0  0  0  0  0  0  0
    1.9198   -7.4475    2.2269 C   0  0  0  0  0  0  0  0  0  0  0  0
    0.9102   -8.2759    2.6456 N   0  0  0  0  0  0  0  0  0  0  0  0
   -0.2922   -7.9586    2.0657 N   0  0  0  0  0  0  0  0  0  0  0  0
   -0.1303   -6.9981    1.2822 N   0  0  0  0  0  0  0  0  0  0  0  0
    1.2189   -6.6269    1.3089 C   0  0  0  0  0  0  0  0  0  0  0  0
    1.9548   -5.6236    0.6295 C   0  0  0  0  0  0  0  0  0  0  0  0
    3.3289   -5.4170    0.8968 C   0  0  0  0  0  0  0  0  0  0  0  0
    4.0927   -4.3430    0.1457 C   0  0  1  0  0  0  0  0  0  0  0  0
    3.3516   -3.0565   -0.2591 C   0  0  0  0  0  0  0  0  0  0  0  0
    1.0001   -9.0402    3.3094 H   0  0  0  0  0  0  0  0  0  0  0  0
    4.8669    0.0503    0.3360 H   0  0  0  0  0  0  0  0  0  0  0  0
    3.9834   -0.9668    1.4704 H   0  0  0  0  0  0  0  0  0  0  0  0
    3.1603   -0.2856    0.0792 H   0  0  0  0  0  0  0  0  0  0  0  0
    4.8692   -2.4176   -2.5265 H   0  0  0  0  0  0  0  0  0  0  0  0
    5.4452   -0.8371   -2.0089 H   0  0  0  0  0  0  0  0  0  0  0  0
    3.7323   -1.0929   -2.2972 H   0  0  0  0  0  0  0  0  0  0  0  0
    6.3360   -3.0179   -0.7342 H   0  0  0  0  0  0  0  0  0  0  0  0
    6.3800   -1.9591    0.6743 H   0  0  0  0  0  0  0  0  0  0  0  0
    4.8707   -3.4014    1.8976 H   0  0  0  0  0  0  0  0  0  0  0  0
    7.8750   -4.2903    0.2313 H   0  0  0  0  0  0  0  0  0  0  0  0
    8.5189   -6.7554    0.1513 H   0  0  0  0  0  0  0  0  0  0  0  0
    9.3252   -5.8858    1.4448 H   0  0  0  0  0  0  0  0  0  0  0  0
    8.2865   -8.2119    2.0047 H   0  0  0  0  0  0  0  0  0  0  0  0
    8.0479   -6.9133    3.1335 H   0  0  0  0  0  0  0  0  0  0  0  0
    6.0509   -7.8220    1.0155 H   0  0  0  0  0  0  0  0  0  0  0  0
    5.9343   -8.1361    2.7206 H   0  0  0  0  0  0  0  0  0  0  0  0
    4.9606   -4.7263    3.8158 H   0  0  0  0  0  0  0  0  0  0  0  0
    6.6111   -5.3158    3.9174 H   0  0  0  0  0  0  0  0  0  0  0  0
    5.2682   -6.3778    4.3247 H   0  0  0  0  0  0  0  0  0  0  0  0
    3.7649   -7.9204    3.2054 H   0  0  0  0  0  0  0  0  0  0  0  0
    1.4511   -5.0071   -0.0943 H   0  0  0  0  0  0  0  0  0  0  0  0
    4.4825   -4.8082   -0.7601 H   0  0  0  0  0  0  0  0  0  0  0  0
    2.6510   -2.7584    0.5186 H   0  0  0  0  0  0  0  0  0  0  0  0
    2.7677   -3.1938   -1.1712 H   0  0  0  0  0  0  0  0  0  0  0  0
  1  2  1  0
  1 25  1  0
  1 26  1  0
  1 27  1  0
  2 23  1  0
  2  3  1  0
  2  4  1  0
  3 28  1  0
  3 29  1  0
  3 30  1  0
  4  5  1  0
  4 31  1  0
  4 32  1  0
  5 22  1  0
  5  6  1  0
  5 33  1  1
  6 11  1  0
  6  7  2  0
  7  8  1  0
  7 34  1  0
  8  9  1  0
  8 35  1  0
  8 36  1  0
  9 10  1  0
  9 37  1  0
  9 38  1  0
 10 11  1  0
 10 39  1  0
 10 40  1  0
 11 12  1  1
 11 13  1  0
 12 41  1  0
 12 42  1  0
 12 43  1  0
 13 14  2  0
 13 21  1  0
 14 44  1  0
 14 15  1  0
 15 16  1  0
 15 19  2  0
 16 17  1  0
 16 24  1  0
 17 18  2  0
 18 19  1  0
 19 20  1  0
 20 21  2  0
 20 45  1  0
 21 22  1  0
 22 23  1  0
 22 46  1  6
 23 47  1  0
 23 48  1  0
M  END
>  <i_m_ct_stereo_status>  (16) 
1

>  <s_m_source_file>  (16) 
/var/tmp/pbs.5076255.sched01/tmprv8ptrg5/026yimkau.sdf

>  <i_m_source_file_index>  (16) 
7

>  <i_lp_mmshare_version>  (16) 
48012

>  <i_f3d_flags>  (16) 
0

>  <s_epik_input>  (16) 
W0NIMl0xW0NIMl1bQ0gyXVtDSF09QyhbQ0BdMTJbQ0gzXSlbQ0BASF0zW0NASF0oW0NIMl1DKFtDSDNdKShbQ0gzXSlbQ0gyXTMpYzRjMltjSF1jNWMoW2NIXTQpbltuSF1uNQ==

>  <s_epik_cmdline>  (16) 
J2VwaWtfcHl0aG9uJywgJy1waHQnLCAnMi4wJywgJy1waCcsICc3LjAnLCAnLXRuJywgJzgnLCAnLW1hJywgJzIwMCcsICctaW1hZScsICc8aW5maWxlLm1hZT4nLCAnLW9tYWUnLCAnPG91dGZpbGUubWFlPic=

>  <r_lp_tautomer_probability>  (16) 
0.460795

>  <r_epik_Ionization_Penalty>  (16) 
0.00092609

>  <r_epik_Ionization_Penalty_Charging>  (16) 
0

>  <r_epik_Ionization_Penalty_Neutral>  (16) 
0.00092609

>  <r_epik_State_Penalty>  (16) 
0.468354

>  <r_epik_Charging_Adjusted_Penalty>  (16) 
0.468354

>  <i_epik_Tot_Q>  (16) 
0

>  <i_epik_Tot_abs_Q>  (16) 
0

>  <s_lp_Force_Field>  (16) 
OPLS3e

>  <r_lp_Energy>  (16) 
30.4888

>  <b_lp_Chiralities_Consistent>  (16) 
1

>  <s_lp_Variant>  (16) 
6:0-2

>  <s_i_glide_gridfile>  (16) 
pfpi4k_grid

>  <i_i_glide_lignum>  (16) 
7

>  <i_i_glide_rotatable_bonds>  (16) 
0

>  <r_i_docking_score>  (16) 
-3.64177

>  <r_i_glide_ligand_efficiency>  (16) 
-0.158338

>  <r_i_glide_ligand_efficiency_sa>  (16) 
-0.450292

>  <r_i_glide_ligand_efficiency_ln>  (16) 
-0.880613

>  <r_i_glide_gscore>  (16) 
-3.64177

>  <r_i_glide_lipo>  (16) 
-0.450642

>  <r_i_glide_hbond>  (16) 
0

>  <r_i_glide_metal>  (16) 
-0

>  <r_i_glide_rewards>  (16) 
-1.31296

>  <r_i_glide_evdw>  (16) 
-28.9462

>  <r_i_glide_ecoul>  (16) 
-1.56766

>  <r_i_glide_erotb>  (16) 
0

>  <r_i_glide_esite>  (16) 
-0.195713

>  <r_i_glide_emodel>  (16) 
-37.7168

>  <r_i_glide_energy>  (16) 
-30.5138

>  <r_i_glide_einternal>  (16) 
0

>  <r_i_glide_intrahb_reward>  (16) 
-0

>  <i_i_glide_confnum>  (16) 
1

>  <i_i_glide_posenum>  (16) 
1

>  <r_i_glide_eff_state_penalty>  (16) 
0

>  <ligand_id>  (16) 
6

>  <original_smiles>  (16) 
CC1(C)CC2C3=CCCCC3(C)c3cc4n[nH]nc4cc3C2C1

>  <smiles>  (16) 
[H]C1=C2C3([H])C([H])([H])C(C([H])([H])[H])(C([H])([H])[H])C([H])([H])C3([H])c3c(c([H])c4c(nnn4[H])c3[H])C2(C([H])([H])[H])C([H])([H])C([H])([H])C1([H])[H]

$$$$
6:1:1
     RDKit          3D

 48 52  0  0  1  0  0  0  0  0999 V2000
    3.4252   -0.8810   -2.3248 C   0  0  0  0  0  0  0  0  0  0  0  0
    3.9658   -2.2803   -2.5511 C   0  0  0  0  0  0  0  0  0  0  0  0
    4.0406   -2.5009   -4.0577 C   0  0  0  0  0  0  0  0  0  0  0  0
    5.3512   -2.4536   -1.8848 C   0  0  0  0  0  0  0  0  0  0  0  0
    5.0453   -3.1741   -0.5673 C   0  0  2  0  0  0  0  0  0  0  0  0
    6.1512   -3.9133    0.1584 C   0  0  0  0  0  0  0  0  0  0  0  0
    7.4245   -3.9724   -0.2784 C   0  0  0  0  0  0  0  0  0  0  0  0
    8.5010   -4.8389    0.3484 C   0  0  0  0  0  0  0  0  0  0  0  0
    8.1142   -5.4154    1.7110 C   0  0  0  0  0  0  0  0  0  0  0  0
    6.6320   -5.8270    1.7610 C   0  0  0  0  0  0  0  0  0  0  0  0
    5.6524   -4.6745    1.4011 C   0  0  1  0  0  0  0  0  0  0  0  0
    5.6327   -3.6214    2.5135 C   0  0  0  0  0  0  0  0  0  0  0  0
    4.2164   -5.2082    1.3021 C   0  0  0  0  0  0  0  0  0  0  0  0
    3.6710   -5.9629    2.3749 C   0  0  0  0  0  0  0  0  0  0  0  0
    2.3456   -6.4309    2.2831 C   0  0  0  0  0  0  0  0  0  0  0  0
    1.4839   -7.1540    3.0865 N   0  0  0  0  0  0  0  0  0  0  0  0
    0.2577   -7.3300    2.5122 N   0  0  0  0  0  0  0  0  0  0  0  0
    0.2538   -6.7345    1.3679 N   0  0  0  0  0  0  0  0  0  0  0  0
    1.5256   -6.1972    1.1694 C   0  0  0  0  0  0  0  0  0  0  0  0
    2.0811   -5.4514    0.0941 C   0  0  0  0  0  0  0  0  0  0  0  0
    3.4025   -4.9450    0.1739 C   0  0  0  0  0  0  0  0  0  0  0  0
    3.9947   -4.1603   -0.9920 C   0  0  1  0  0  0  0  0  0  0  0  0
    3.0462   -3.3022   -1.8557 C   0  0  0  0  0  0  0  0  0  0  0  0
    1.6971   -7.5364    3.9877 H   0  0  0  0  0  0  0  0  0  0  0  0
    4.0539   -0.0933   -2.7415 H   0  0  0  0  0  0  0  0  0  0  0  0
    3.3362   -0.7047   -1.2538 H   0  0  0  0  0  0  0  0  0  0  0  0
    2.4257   -0.7625   -2.7417 H   0  0  0  0  0  0  0  0  0  0  0  0
    4.4379   -3.4869   -4.3053 H   0  0  0  0  0  0  0  0  0  0  0  0
    4.6795   -1.7350   -4.4903 H   0  0  0  0  0  0  0  0  0  0  0  0
    3.0703   -2.3910   -4.5444 H   0  0  0  0  0  0  0  0  0  0  0  0
    5.9933   -3.0568   -2.5348 H   0  0  0  0  0  0  0  0  0  0  0  0
    5.8387   -1.4985   -1.7047 H   0  0  0  0  0  0  0  0  0  0  0  0
    4.5892   -2.4724    0.1282 H   0  0  0  0  0  0  0  0  0  0  0  0
    7.7181   -3.5013   -1.2073 H   0  0  0  0  0  0  0  0  0  0  0  0
    8.7310   -5.6659   -0.3225 H   0  0  0  0  0  0  0  0  0  0  0  0
    9.3884   -4.2251    0.4435 H   0  0  0  0  0  0  0  0  0  0  0  0
    8.7584   -6.2655    1.9606 H   0  0  0  0  0  0  0  0  0  0  0  0
    8.3222   -4.6660    2.4698 H   0  0  0  0  0  0  0  0  0  0  0  0
    6.4858   -6.6519    1.0664 H   0  0  0  0  0  0  0  0  0  0  0  0
    6.4215   -6.2301    2.7496 H   0  0  0  0  0  0  0  0  0  0  0  0
    4.8298   -2.8856    2.3798 H   0  0  0  0  0  0  0  0  0  0  0  0
    6.5704   -3.0729    2.4692 H   0  0  0  0  0  0  0  0  0  0  0  0
    5.4878   -4.0699    3.5055 H   0  0  0  0  0  0  0  0  0  0  0  0
    4.2505   -6.1620    3.2566 H   0  0  0  0  0  0  0  0  0  0  0  0
    1.4688   -5.2606   -0.7673 H   0  0  0  0  0  0  0  0  0  0  0  0
    4.5311   -4.8792   -1.6145 H   0  0  0  0  0  0  0  0  0  0  0  0
    2.2986   -2.8058   -1.2315 H   0  0  0  0  0  0  0  0  0  0  0  0
    2.4763   -3.8486   -2.5999 H   0  0  0  0  0  0  0  0  0  0  0  0
  1  2  1  0
  1 25  1  0
  1 26  1  0
  1 27  1  0
  2 23  1  0
  2  3  1  0
  2  4  1  0
  3 28  1  0
  3 29  1  0
  3 30  1  0
  4  5  1  0
  4 31  1  0
  4 32  1  0
  5 22  1  0
  5  6  1  0
  5 33  1  1
  6 11  1  0
  6  7  2  0
  7  8  1  0
  7 34  1  0
  8  9  1  0
  8 35  1  0
  8 36  1  0
  9 10  1  0
  9 37  1  0
  9 38  1  0
 10 11  1  0
 10 39  1  0
 10 40  1  0
 11 12  1  1
 11 13  1  0
 12 41  1  0
 12 42  1  0
 12 43  1  0
 13 14  2  0
 13 21  1  0
 14 44  1  0
 14 15  1  0
 15 16  1  0
 15 19  2  0
 16 17  1  0
 16 24  1  0
 17 18  2  0
 18 19  1  0
 19 20  1  0
 20 21  2  0
 20 45  1  0
 21 22  1  0
 22 23  1  0
 22 46  1  6
 23 47  1  0
 23 48  1  0
M  END
>  <i_m_ct_stereo_status>  (17) 
1

>  <s_m_source_file>  (17) 
/var/tmp/pbs.5076255.sched01/tmprv8ptrg5/026yimkau.sdf

>  <i_m_source_file_index>  (17) 
7

>  <i_lp_mmshare_version>  (17) 
48012

>  <i_f3d_flags>  (17) 
0

>  <s_epik_input>  (17) 
W0NIMl0xW0NIMl1bQ0gyXVtDSF09QyhbQ0BdMTJbQ0gzXSlbQ0BASF0zW0NASF0oW0NIMl1DKFtDSDNdKShbQ0gzXSlbQ0gyXTMpYzRjMltjSF1jNWMoW2NIXTQpbltuSF1uNQ==

>  <s_epik_cmdline>  (17) 
J2VwaWtfcHl0aG9uJywgJy1waHQnLCAnMi4wJywgJy1waCcsICc3LjAnLCAnLXRuJywgJzgnLCAnLW1hJywgJzIwMCcsICctaW1hZScsICc8aW5maWxlLm1hZT4nLCAnLW9tYWUnLCAnPG91dGZpbGUubWFlPic=

>  <r_lp_tautomer_probability>  (17) 
0.460795

>  <r_epik_Ionization_Penalty>  (17) 
0.00092609

>  <r_epik_Ionization_Penalty_Charging>  (17) 
0

>  <r_epik_Ionization_Penalty_Neutral>  (17) 
0.00092609

>  <r_epik_State_Penalty>  (17) 
0.468354

>  <r_epik_Charging_Adjusted_Penalty>  (17) 
0.468354

>  <i_epik_Tot_Q>  (17) 
0

>  <i_epik_Tot_abs_Q>  (17) 
0

>  <s_lp_Force_Field>  (17) 
OPLS3e

>  <r_lp_Energy>  (17) 
30.4888

>  <b_lp_Chiralities_Consistent>  (17) 
1

>  <s_lp_Variant>  (17) 
6:0-2

>  <s_i_glide_gridfile>  (17) 
pfpi4k_grid

>  <i_i_glide_lignum>  (17) 
7

>  <i_i_glide_rotatable_bonds>  (17) 
0

>  <r_i_docking_score>  (17) 
-3.4112

>  <r_i_glide_ligand_efficiency>  (17) 
-0.148313

>  <r_i_glide_ligand_efficiency_sa>  (17) 
-0.421783

>  <r_i_glide_ligand_efficiency_ln>  (17) 
-0.824859

>  <r_i_glide_gscore>  (17) 
-3.4112

>  <r_i_glide_lipo>  (17) 
-0.593156

>  <r_i_glide_hbond>  (17) 
0

>  <r_i_glide_metal>  (17) 
-0

>  <r_i_glide_rewards>  (17) 
-1.31296

>  <r_i_glide_evdw>  (17) 
-21.225

>  <r_i_glide_ecoul>  (17) 
-1.81028

>  <r_i_glide_erotb>  (17) 
0

>  <r_i_glide_esite>  (17) 
-0.172294

>  <r_i_glide_emodel>  (17) 
-29.6245

>  <r_i_glide_energy>  (17) 
-23.0353

>  <r_i_glide_einternal>  (17) 
0

>  <r_i_glide_intrahb_reward>  (17) 
-0

>  <i_i_glide_confnum>  (17) 
1

>  <i_i_glide_posenum>  (17) 
18

>  <r_i_glide_eff_state_penalty>  (17) 
0

>  <ligand_id>  (17) 
6

>  <original_smiles>  (17) 
CC1(C)CC2C3=CCCCC3(C)c3cc4n[nH]nc4cc3C2C1

>  <smiles>  (17) 
[H]C1=C2C3([H])C([H])([H])C(C([H])([H])[H])(C([H])([H])[H])C([H])([H])C3([H])c3c(c([H])c4c(nnn4[H])c3[H])C2(C([H])([H])[H])C([H])([H])C([H])([H])C1([H])[H]

$$$$
6:1:2
     RDKit          3D

 48 52  0  0  1  0  0  0  0  0999 V2000
   -2.1325    3.1035    3.2376 C   0  0  0  0  0  0  0  0  0  0  0  0
   -0.8459    3.1151    4.0874 C   0  0  0  0  0  0  0  0  0  0  0  0
   -0.5650    4.5573    4.5505 C   0  0  0  0  0  0  0  0  0  0  0  0
   -0.9783    2.1756    5.3149 C   0  0  0  0  0  0  0  0  0  0  0  0
   -0.2439    0.8960    4.8982 C   0  0  2  0  0  0  0  0  0  0  0  0
    0.2253   -0.0947    5.9527 C   0  0  0  0  0  0  0  0  0  0  0  0
    0.0855    0.1023    7.2797 C   0  0  0  0  0  0  0  0  0  0  0  0
    0.6347   -0.8258    8.3520 C   0  0  0  0  0  0  0  0  0  0  0  0
    1.1723   -2.1491    7.7904 C   0  0  0  0  0  0  0  0  0  0  0  0
    1.8759   -1.9528    6.4357 C   0  0  0  0  0  0  0  0  0  0  0  0
    0.9565   -1.3082    5.3580 C   0  0  1  0  0  0  0  0  0  0  0  0
   -0.1280   -2.3310    4.9371 C   0  0  0  0  0  0  0  0  0  0  0  0
    1.7731   -0.9754    4.0903 C   0  0  0  0  0  0  0  0  0  0  0  0
    2.5534   -1.9830    3.4768 C   0  0  0  0  0  0  0  0  0  0  0  0
    3.2834   -1.6966    2.3151 C   0  0  0  0  0  0  0  0  0  0  0  0
    4.1192   -2.3824    1.4685 N   0  0  0  0  0  0  0  0  0  0  0  0
    4.5780   -1.5994    0.4478 N   0  0  0  0  0  0  0  0  0  0  0  0
    4.1069   -0.4300    0.5870 N   0  0  0  0  0  0  0  0  0  0  0  0
    3.2777   -0.4172    1.7093 C   0  0  0  0  0  0  0  0  0  0  0  0
    2.4967    0.5944    2.3167 C   0  0  0  0  0  0  0  0  0  0  0  0
    1.7471    0.3256    3.4903 C   0  0  0  0  0  0  0  0  0  0  0  0
    0.9576    1.4379    4.1563 C   0  0  1  0  0  0  0  0  0  0  0  0
    0.3442    2.5334    3.2722 C   0  0  0  0  0  0  0  0  0  0  0  0
    4.3878   -3.3539    1.5501 H   0  0  0  0  0  0  0  0  0  0  0  0
   -2.9910    3.4790    3.7932 H   0  0  0  0  0  0  0  0  0  0  0  0
   -2.3769    2.0966    2.8995 H   0  0  0  0  0  0  0  0  0  0  0  0
   -2.0192    3.7212    2.3457 H   0  0  0  0  0  0  0  0  0  0  0  0
    0.3530    4.6169    5.1372 H   0  0  0  0  0  0  0  0  0  0  0  0
   -1.3749    4.9304    5.1767 H   0  0  0  0  0  0  0  0  0  0  0  0
   -0.4533    5.2376    3.7046 H   0  0  0  0  0  0  0  0  0  0  0  0
   -0.4826    2.6294    6.1724 H   0  0  0  0  0  0  0  0  0  0  0  0
   -2.0162    1.9879    5.5925 H   0  0  0  0  0  0  0  0  0  0  0  0
   -0.8847    0.3576    4.1997 H   0  0  0  0  0  0  0  0  0  0  0  0
   -0.3921    0.9941    7.6585 H   0  0  0  0  0  0  0  0  0  0  0  0
    1.4358   -0.2978    8.8729 H   0  0  0  0  0  0  0  0  0  0  0  0
   -0.1415   -1.0219    9.0928 H   0  0  0  0  0  0  0  0  0  0  0  0
    1.8583   -2.6026    8.5089 H   0  0  0  0  0  0  0  0  0  0  0  0
    0.3543   -2.8603    7.6773 H   0  0  0  0  0  0  0  0  0  0  0  0
    2.7494   -1.3188    6.5924 H   0  0  0  0  0  0  0  0  0  0  0  0
    2.2635   -2.9143    6.1044 H   0  0  0  0  0  0  0  0  0  0  0  0
   -0.7051   -1.9624    4.0875 H   0  0  0  0  0  0  0  0  0  0  0  0
   -0.8353   -2.5311    5.7435 H   0  0  0  0  0  0  0  0  0  0  0  0
    0.3040   -3.2857    4.6360 H   0  0  0  0  0  0  0  0  0  0  0  0
    2.5967   -2.9758    3.8913 H   0  0  0  0  0  0  0  0  0  0  0  0
    2.4890    1.5769    1.8725 H   0  0  0  0  0  0  0  0  0  0  0  0
    1.6268    1.9183    4.8718 H   0  0  0  0  0  0  0  0  0  0  0  0
   -0.0179    2.1017    2.3391 H   0  0  0  0  0  0  0  0  0  0  0  0
    1.0760    3.2942    2.9949 H   0  0  0  0  0  0  0  0  0  0  0  0
  1  2  1  0
  1 25  1  0
  1 26  1  0
  1 27  1  0
  2 23  1  0
  2  3  1  0
  2  4  1  0
  3 28  1  0
  3 29  1  0
  3 30  1  0
  4  5  1  0
  4 31  1  0
  4 32  1  0
  5 22  1  0
  5  6  1  0
  5 33  1  6
  6 11  1  0
  6  7  2  0
  7  8  1  0
  7 34  1  0
  8  9  1  0
  8 35  1  0
  8 36  1  0
  9 10  1  0
  9 37  1  0
  9 38  1  0
 10 11  1  0
 10 39  1  0
 10 40  1  0
 11 12  1  6
 11 13  1  0
 12 41  1  0
 12 42  1  0
 12 43  1  0
 13 14  2  0
 13 21  1  0
 14 44  1  0
 14 15  1  0
 15 16  1  0
 15 19  2  0
 16 17  1  0
 16 24  1  0
 17 18  2  0
 18 19  1  0
 19 20  1  0
 20 21  2  0
 20 45  1  0
 21 22  1  0
 22 23  1  0
 22 46  1  1
 23 47  1  0
 23 48  1  0
M  END
>  <i_m_ct_stereo_status>  (18) 
1

>  <s_m_source_file>  (18) 
/var/tmp/pbs.5076255.sched01/tmprv8ptrg5/026yimkau.sdf

>  <i_m_source_file_index>  (18) 
7

>  <i_lp_mmshare_version>  (18) 
48012

>  <i_f3d_flags>  (18) 
0

>  <s_epik_input>  (18) 
W0NIMl0xW0NIMl1bQ0gyXVtDSF09QyhbQ0BdMTJbQ0gzXSlbQ0BASF0zW0NASF0oW0NIMl1DKFtDSDNdKShbQ0gzXSlbQ0gyXTMpYzRjMltjSF1jNWMoW2NIXTQpbltuSF1uNQ==

>  <s_epik_cmdline>  (18) 
J2VwaWtfcHl0aG9uJywgJy1waHQnLCAnMi4wJywgJy1waCcsICc3LjAnLCAnLXRuJywgJzgnLCAnLW1hJywgJzIwMCcsICctaW1hZScsICc8aW5maWxlLm1hZT4nLCAnLW9tYWUnLCAnPG91dGZpbGUubWFlPic=

>  <r_lp_tautomer_probability>  (18) 
0.460795

>  <r_epik_Ionization_Penalty>  (18) 
0.00092609

>  <r_epik_Ionization_Penalty_Charging>  (18) 
0

>  <r_epik_Ionization_Penalty_Neutral>  (18) 
0.00092609

>  <r_epik_State_Penalty>  (18) 
0.468354

>  <r_epik_Charging_Adjusted_Penalty>  (18) 
0.468354

>  <i_epik_Tot_Q>  (18) 
0

>  <i_epik_Tot_abs_Q>  (18) 
0

>  <s_lp_Force_Field>  (18) 
OPLS3e

>  <r_lp_Energy>  (18) 
30.4888

>  <b_lp_Chiralities_Consistent>  (18) 
1

>  <s_lp_Variant>  (18) 
6:0-2

>  <s_i_glide_gridfile>  (18) 
pfpi4k_grid

>  <i_i_glide_lignum>  (18) 
7

>  <i_i_glide_rotatable_bonds>  (18) 
0

>  <r_i_docking_score>  (18) 
-2.33551

>  <r_i_glide_ligand_efficiency>  (18) 
-0.101544

>  <r_i_glide_ligand_efficiency_sa>  (18) 
-0.288777

>  <r_i_glide_ligand_efficiency_ln>  (18) 
-0.564747

>  <r_i_glide_gscore>  (18) 
-2.33551

>  <r_i_glide_lipo>  (18) 
0

>  <r_i_glide_hbond>  (18) 
0

>  <r_i_glide_metal>  (18) 
-0

>  <r_i_glide_rewards>  (18) 
-1.31296

>  <r_i_glide_evdw>  (18) 
-22.4549

>  <r_i_glide_ecoul>  (18) 
0.688172

>  <r_i_glide_erotb>  (18) 
0

>  <r_i_glide_esite>  (18) 
-0.00302963

>  <r_i_glide_emodel>  (18) 
-26.3765

>  <r_i_glide_energy>  (18) 
-21.7667

>  <r_i_glide_einternal>  (18) 
0

>  <r_i_glide_intrahb_reward>  (18) 
-0

>  <i_i_glide_confnum>  (18) 
1

>  <i_i_glide_posenum>  (18) 
19

>  <r_i_glide_eff_state_penalty>  (18) 
0

>  <ligand_id>  (18) 
6

>  <original_smiles>  (18) 
CC1(C)CC2C3=CCCCC3(C)c3cc4n[nH]nc4cc3C2C1

>  <smiles>  (18) 
[H]C1=C2C3([H])C([H])([H])C(C([H])([H])[H])(C([H])([H])[H])C([H])([H])C3([H])c3c(c([H])c4c(nnn4[H])c3[H])C2(C([H])([H])[H])C([H])([H])C([H])([H])C1([H])[H]

$$$$
6:2:0
     RDKit          3D

 48 52  0  0  1  0  0  0  0  0999 V2000
    0.6473  -10.9508    3.4293 C   0  0  0  0  0  0  0  0  0  0  0  0
    1.3787   -9.9036    4.2899 C   0  0  0  0  0  0  0  0  0  0  0  0
    0.6185   -9.7160    5.6172 C   0  0  0  0  0  0  0  0  0  0  0  0
    2.8424  -10.3364    4.5670 C   0  0  0  0  0  0  0  0  0  0  0  0
    3.6777   -9.5492    3.5498 C   0  0  2  0  0  0  0  0  0  0  0  0
    5.1681   -9.3500    3.7685 C   0  0  0  0  0  0  0  0  0  0  0  0
    5.8339   -9.8025    4.8529 C   0  0  0  0  0  0  0  0  0  0  0  0
    7.3012   -9.5433    5.1403 C   0  0  0  0  0  0  0  0  0  0  0  0
    8.0439   -8.9080    3.9575 C   0  0  0  0  0  0  0  0  0  0  0  0
    7.1644   -7.8991    3.1983 C   0  0  0  0  0  0  0  0  0  0  0  0
    5.8432   -8.5208    2.6555 C   0  0  1  0  0  0  0  0  0  0  0  0
    6.1749   -9.4968    1.4996 C   0  0  0  0  0  0  0  0  0  0  0  0
    4.9201   -7.4155    2.0727 C   0  0  0  0  0  0  0  0  0  0  0  0
    5.4350   -6.5197    1.0964 C   0  0  0  0  0  0  0  0  0  0  0  0
    4.5880   -5.5366    0.5584 C   0  0  0  0  0  0  0  0  0  0  0  0
    4.8972   -4.6169   -0.3498 N   0  0  0  0  0  0  0  0  0  0  0  0
    3.6886   -3.9743   -0.4735 N   0  0  0  0  0  0  0  0  0  0  0  0
    2.6597   -4.4345    0.3117 N   0  0  0  0  0  0  0  0  0  0  0  0
    3.2728   -5.4258    0.9487 C   0  0  0  0  0  0  0  0  0  0  0  0
    2.7205   -6.2815    1.9115 C   0  0  0  0  0  0  0  0  0  0  0  0
    3.5499   -7.2843    2.4743 C   0  0  0  0  0  0  0  0  0  0  0  0
    2.9939   -8.1995    3.5544 C   0  0  1  0  0  0  0  0  0  0  0  0
    1.5035   -8.5671    3.5084 C   0  0  0  0  0  0  0  0  0  0  0  0
    3.5582   -3.2073   -1.1186 H   0  0  0  0  0  0  0  0  0  0  0  0
    0.5659  -11.9086    3.9459 H   0  0  0  0  0  0  0  0  0  0  0  0
    1.1643  -11.1277    2.4864 H   0  0  0  0  0  0  0  0  0  0  0  0
   -0.3650  -10.6248    3.1899 H   0  0  0  0  0  0  0  0  0  0  0  0
    1.0942   -8.9689    6.2534 H   0  0  0  0  0  0  0  0  0  0  0  0
    0.5846  -10.6507    6.1789 H   0  0  0  0  0  0  0  0  0  0  0  0
   -0.4135   -9.4058    5.4521 H   0  0  0  0  0  0  0  0  0  0  0  0
    3.1193  -10.0525    5.5832 H   0  0  0  0  0  0  0  0  0  0  0  0
    2.9889  -11.4131    4.4816 H   0  0  0  0  0  0  0  0  0  0  0  0
    3.5445  -10.0205    2.5748 H   0  0  0  0  0  0  0  0  0  0  0  0
    5.3150  -10.3548    5.6208 H   0  0  0  0  0  0  0  0  0  0  0  0
    7.3612   -8.8858    6.0093 H   0  0  0  0  0  0  0  0  0  0  0  0
    7.7824  -10.4803    5.4222 H   0  0  0  0  0  0  0  0  0  0  0  0
    8.9549   -8.4237    4.3111 H   0  0  0  0  0  0  0  0  0  0  0  0
    8.3753   -9.6926    3.2788 H   0  0  0  0  0  0  0  0  0  0  0  0
    6.9251   -7.0779    3.8757 H   0  0  0  0  0  0  0  0  0  0  0  0
    7.7529   -7.4624    2.3924 H   0  0  0  0  0  0  0  0  0  0  0  0
    5.2661   -9.8582    1.0153 H   0  0  0  0  0  0  0  0  0  0  0  0
    6.7128  -10.3756    1.8563 H   0  0  0  0  0  0  0  0  0  0  0  0
    6.7896   -9.0305    0.7305 H   0  0  0  0  0  0  0  0  0  0  0  0
    6.4575   -6.5796    0.7596 H   0  0  0  0  0  0  0  0  0  0  0  0
    1.6933   -6.1582    2.2152 H   0  0  0  0  0  0  0  0  0  0  0  0
    3.1939   -7.7099    4.5102 H   0  0  0  0  0  0  0  0  0  0  0  0
    1.1934   -8.7072    2.4716 H   0  0  0  0  0  0  0  0  0  0  0  0
    0.8804   -7.7757    3.9228 H   0  0  0  0  0  0  0  0  0  0  0  0
  1  2  1  0
  1 25  1  0
  1 26  1  0
  1 27  1  0
  2 23  1  0
  2  3  1  0
  2  4  1  0
  3 28  1  0
  3 29  1  0
  3 30  1  0
  4  5  1  0
  4 31  1  0
  4 32  1  0
  5 22  1  0
  5  6  1  0
  5 33  1  6
  6 11  1  0
  6  7  2  0
  7  8  1  0
  7 34  1  0
  8  9  1  0
  8 35  1  0
  8 36  1  0
  9 10  1  0
  9 37  1  0
  9 38  1  0
 10 11  1  0
 10 39  1  0
 10 40  1  0
 11 12  1  6
 11 13  1  0
 12 41  1  0
 12 42  1  0
 12 43  1  0
 13 21  1  0
 13 14  2  0
 14 15  1  0
 14 44  1  0
 15 19  1  0
 15 16  2  0
 16 17  1  0
 17 24  1  0
 17 18  1  0
 18 19  2  0
 19 20  1  0
 20 21  2  0
 20 45  1  0
 21 22  1  0
 22 23  1  0
 22 46  1  1
 23 47  1  0
 23 48  1  0
M  END
>  <i_m_ct_stereo_status>  (19) 
1

>  <s_m_source_file>  (19) 
/var/tmp/pbs.5076255.sched01/tmprv8ptrg5/026yimkau.sdf

>  <i_m_source_file_index>  (19) 
8

>  <i_lp_mmshare_version>  (19) 
48012

>  <i_f3d_flags>  (19) 
0

>  <s_epik_input>  (19) 
W0NIMl0xW0NIMl1bQ0gyXVtDSF09QyhbQ0BdMTJbQ0gzXSlbQ0BASF0zW0NASF0oW0NIMl1DKFtDSDNdKShbQ0gzXSlbQ0gyXTMpYzRjMltjSF1jNWMoW2NIXTQpbltuSF1uNQ==

>  <s_epik_cmdline>  (19) 
J2VwaWtfcHl0aG9uJywgJy1waHQnLCAnMi4wJywgJy1waCcsICc3LjAnLCAnLXRuJywgJzgnLCAnLW1hJywgJzIwMCcsICctaW1hZScsICc8aW5maWxlLm1hZT4nLCAnLW9tYWUnLCAnPG91dGZpbGUubWFlPic=

>  <r_lp_tautomer_probability>  (19) 
0.0784092

>  <r_epik_Ionization_Penalty>  (19) 
0.00991499

>  <r_epik_Ionization_Penalty_Charging>  (19) 
0

>  <r_epik_Ionization_Penalty_Neutral>  (19) 
0.00991499

>  <r_epik_State_Penalty>  (19) 
1.68544

>  <r_epik_Charging_Adjusted_Penalty>  (19) 
1.68544

>  <i_epik_Tot_Q>  (19) 
0

>  <i_epik_Tot_abs_Q>  (19) 
0

>  <s_lp_Force_Field>  (19) 
OPLS3e

>  <r_lp_Energy>  (19) 
29.4703

>  <b_lp_Chiralities_Consistent>  (19) 
1

>  <s_lp_Variant>  (19) 
6:0-3

>  <s_i_glide_gridfile>  (19) 
pfpi4k_grid

>  <i_i_glide_lignum>  (19) 
8

>  <i_i_glide_rotatable_bonds>  (19) 
0

>  <r_i_docking_score>  (19) 
-2.95015

>  <r_i_glide_ligand_efficiency>  (19) 
-0.128267

>  <r_i_glide_ligand_efficiency_sa>  (19) 
-0.364775

>  <r_i_glide_ligand_efficiency_ln>  (19) 
-0.713373

>  <r_i_glide_gscore>  (19) 
-2.95015

>  <r_i_glide_lipo>  (19) 
-0.349796

>  <r_i_glide_hbond>  (19) 
0

>  <r_i_glide_metal>  (19) 
-0

>  <r_i_glide_rewards>  (19) 
-1.31296

>  <r_i_glide_evdw>  (19) 
-23.5862

>  <r_i_glide_ecoul>  (19) 
-0.621712

>  <r_i_glide_erotb>  (19) 
0

>  <r_i_glide_esite>  (19) 
-0.0148246

>  <r_i_glide_emodel>  (19) 
-28.9251

>  <r_i_glide_energy>  (19) 
-24.2079

>  <r_i_glide_einternal>  (19) 
0

>  <r_i_glide_intrahb_reward>  (19) 
-0

>  <i_i_glide_confnum>  (19) 
1

>  <i_i_glide_posenum>  (19) 
1

>  <r_i_glide_eff_state_penalty>  (19) 
0

>  <ligand_id>  (19) 
6

>  <original_smiles>  (19) 
CC1(C)CC2C3=CCCCC3(C)c3cc4n[nH]nc4cc3C2C1

>  <smiles>  (19) 
[H]C1=C2C3([H])C([H])([H])C(C([H])([H])[H])(C([H])([H])[H])C([H])([H])C3([H])c3c(c([H])c4nn([H])nc4c3[H])C2(C([H])([H])[H])C([H])([H])C([H])([H])C1([H])[H]

$$$$
6:2:1
     RDKit          3D

 48 52  0  0  1  0  0  0  0  0999 V2000
   -0.1071   -7.8521    2.0932 C   0  0  0  0  0  0  0  0  0  0  0  0
    0.9677   -7.4048    3.1070 C   0  0  0  0  0  0  0  0  0  0  0  0
    0.6979   -8.0834    4.4644 C   0  0  0  0  0  0  0  0  0  0  0  0
    2.3926   -7.7568    2.6025 C   0  0  0  0  0  0  0  0  0  0  0  0
    2.9286   -6.4478    2.0092 C   0  0  2  0  0  0  0  0  0  0  0  0
    4.4213   -6.2486    1.8100 C   0  0  0  0  0  0  0  0  0  0  0  0
    5.3551   -7.1592    2.1631 C   0  0  0  0  0  0  0  0  0  0  0  0
    6.8544   -6.9483    2.0579 C   0  0  0  0  0  0  0  0  0  0  0  0
    7.2320   -5.6809    1.2801 C   0  0  0  0  0  0  0  0  0  0  0  0
    6.2561   -4.5239    1.5571 C   0  0  0  0  0  0  0  0  0  0  0  0
    4.7779   -4.8691    1.2174 C   0  0  1  0  0  0  0  0  0  0  0  0
    4.6211   -4.9771   -0.3150 C   0  0  0  0  0  0  0  0  0  0  0  0
    3.8294   -3.7336    1.6948 C   0  0  0  0  0  0  0  0  0  0  0  0
    4.0853   -2.3953    1.2878 C   0  0  0  0  0  0  0  0  0  0  0  0
    3.2124   -1.3772    1.7039 C   0  0  0  0  0  0  0  0  0  0  0  0
    3.2987   -0.0802    1.4261 N   0  0  0  0  0  0  0  0  0  0  0  0
    2.1823    0.3878    2.0767 N   0  0  0  0  0  0  0  0  0  0  0  0
    1.4301   -0.5386    2.7581 N   0  0  0  0  0  0  0  0  0  0  0  0
    2.1138   -1.6463    2.4888 C   0  0  0  0  0  0  0  0  0  0  0  0
    1.8209   -2.9478    2.9183 C   0  0  0  0  0  0  0  0  0  0  0  0
    2.6842   -3.9994    2.5144 C   0  0  0  0  0  0  0  0  0  0  0  0
    2.4226   -5.4188    2.9969 C   0  0  1  0  0  0  0  0  0  0  0  0
    0.9719   -5.8588    3.2368 C   0  0  0  0  0  0  0  0  0  0  0  0
    1.9329    1.3682    2.0657 H   0  0  0  0  0  0  0  0  0  0  0  0
   -0.1107   -8.9367    1.9810 H   0  0  0  0  0  0  0  0  0  0  0  0
    0.0633   -7.4231    1.1047 H   0  0  0  0  0  0  0  0  0  0  0  0
   -1.1077   -7.5603    2.4129 H   0  0  0  0  0  0  0  0  0  0  0  0
    1.4240   -7.7732    5.2172 H   0  0  0  0  0  0  0  0  0  0  0  0
    0.7596   -9.1697    4.3814 H   0  0  0  0  0  0  0  0  0  0  0  0
   -0.2949   -7.8444    4.8478 H   0  0  0  0  0  0  0  0  0  0  0  0
    3.0105   -8.0630    3.4483 H   0  0  0  0  0  0  0  0  0  0  0  0
    2.3996   -8.5743    1.8818 H   0  0  0  0  0  0  0  0  0  0  0  0
    2.4432   -6.2977    1.0441 H   0  0  0  0  0  0  0  0  0  0  0  0
    5.0632   -8.1003    2.6011 H   0  0  0  0  0  0  0  0  0  0  0  0
    7.2560   -6.8903    3.0706 H   0  0  0  0  0  0  0  0  0  0  0  0
    7.3108   -7.8222    1.5912 H   0  0  0  0  0  0  0  0  0  0  0  0
    8.2516   -5.3869    1.5347 H   0  0  0  0  0  0  0  0  0  0  0  0
    7.2489   -5.9037    0.2145 H   0  0  0  0  0  0  0  0  0  0  0  0
    6.3212   -4.2643    2.6124 H   0  0  0  0  0  0  0  0  0  0  0  0
    6.5905   -3.6452    1.0065 H   0  0  0  0  0  0  0  0  0  0  0  0
    3.5735   -5.0920   -0.5938 H   0  0  0  0  0  0  0  0  0  0  0  0
    5.1537   -5.8415   -0.7155 H   0  0  0  0  0  0  0  0  0  0  0  0
    4.9931   -4.0915   -0.8315 H   0  0  0  0  0  0  0  0  0  0  0  0
    4.9300   -2.1433    0.6665 H   0  0  0  0  0  0  0  0  0  0  0  0
    0.9583   -3.1253    3.5427 H   0  0  0  0  0  0  0  0  0  0  0  0
    2.9691   -5.5343    3.9354 H   0  0  0  0  0  0  0  0  0  0  0  0
    0.3338   -5.4292    2.4694 H   0  0  0  0  0  0  0  0  0  0  0  0
    0.5940   -5.5085    4.1968 H   0  0  0  0  0  0  0  0  0  0  0  0
  1  2  1  0
  1 25  1  0
  1 26  1  0
  1 27  1  0
  2 23  1  0
  2  3  1  0
  2  4  1  0
  3 28  1  0
  3 29  1  0
  3 30  1  0
  4  5  1  0
  4 31  1  0
  4 32  1  0
  5 22  1  0
  5  6  1  0
  5 33  1  6
  6 11  1  0
  6  7  2  0
  7  8  1  0
  7 34  1  0
  8  9  1  0
  8 35  1  0
  8 36  1  0
  9 10  1  0
  9 37  1  0
  9 38  1  0
 10 11  1  0
 10 39  1  0
 10 40  1  0
 11 12  1  6
 11 13  1  0
 12 41  1  0
 12 42  1  0
 12 43  1  0
 13 21  1  0
 13 14  2  0
 14 15  1  0
 14 44  1  0
 15 19  1  0
 15 16  2  0
 16 17  1  0
 17 24  1  0
 17 18  1  0
 18 19  2  0
 19 20  1  0
 20 21  2  0
 20 45  1  0
 21 22  1  0
 22 23  1  0
 22 46  1  1
 23 47  1  0
 23 48  1  0
M  END
>  <i_m_ct_stereo_status>  (20) 
1

>  <s_m_source_file>  (20) 
/var/tmp/pbs.5076255.sched01/tmprv8ptrg5/026yimkau.sdf

>  <i_m_source_file_index>  (20) 
8

>  <i_lp_mmshare_version>  (20) 
48012

>  <i_f3d_flags>  (20) 
0

>  <s_epik_input>  (20) 
W0NIMl0xW0NIMl1bQ0gyXVtDSF09QyhbQ0BdMTJbQ0gzXSlbQ0BASF0zW0NASF0oW0NIMl1DKFtDSDNdKShbQ0gzXSlbQ0gyXTMpYzRjMltjSF1jNWMoW2NIXTQpbltuSF1uNQ==

>  <s_epik_cmdline>  (20) 
J2VwaWtfcHl0aG9uJywgJy1waHQnLCAnMi4wJywgJy1waCcsICc3LjAnLCAnLXRuJywgJzgnLCAnLW1hJywgJzIwMCcsICctaW1hZScsICc8aW5maWxlLm1hZT4nLCAnLW9tYWUnLCAnPG91dGZpbGUubWFlPic=

>  <r_lp_tautomer_probability>  (20) 
0.0784092

>  <r_epik_Ionization_Penalty>  (20) 
0.00991499

>  <r_epik_Ionization_Penalty_Charging>  (20) 
0

>  <r_epik_Ionization_Penalty_Neutral>  (20) 
0.00991499

>  <r_epik_State_Penalty>  (20) 
1.68544

>  <r_epik_Charging_Adjusted_Penalty>  (20) 
1.68544

>  <i_epik_Tot_Q>  (20) 
0

>  <i_epik_Tot_abs_Q>  (20) 
0

>  <s_lp_Force_Field>  (20) 
OPLS3e

>  <r_lp_Energy>  (20) 
29.4703

>  <b_lp_Chiralities_Consistent>  (20) 
1

>  <s_lp_Variant>  (20) 
6:0-3

>  <s_i_glide_gridfile>  (20) 
pfpi4k_grid

>  <i_i_glide_lignum>  (20) 
8

>  <i_i_glide_rotatable_bonds>  (20) 
0

>  <r_i_docking_score>  (20) 
-2.81357

>  <r_i_glide_ligand_efficiency>  (20) 
-0.122329

>  <r_i_glide_ligand_efficiency_sa>  (20) 
-0.347888

>  <r_i_glide_ligand_efficiency_ln>  (20) 
-0.680348

>  <r_i_glide_gscore>  (20) 
-2.81357

>  <r_i_glide_lipo>  (20) 
-0.324646

>  <r_i_glide_hbond>  (20) 
0

>  <r_i_glide_metal>  (20) 
-0

>  <r_i_glide_rewards>  (20) 
-1.31296

>  <r_i_glide_evdw>  (20) 
-24.0378

>  <r_i_glide_ecoul>  (20) 
0.368311

>  <r_i_glide_erotb>  (20) 
0

>  <r_i_glide_esite>  (20) 
-0.0293237

>  <r_i_glide_emodel>  (20) 
-28.1669

>  <r_i_glide_energy>  (20) 
-23.6695

>  <r_i_glide_einternal>  (20) 
0

>  <r_i_glide_intrahb_reward>  (20) 
-0

>  <i_i_glide_confnum>  (20) 
2

>  <i_i_glide_posenum>  (20) 
39

>  <r_i_glide_eff_state_penalty>  (20) 
0

>  <ligand_id>  (20) 
6

>  <original_smiles>  (20) 
CC1(C)CC2C3=CCCCC3(C)c3cc4n[nH]nc4cc3C2C1

>  <smiles>  (20) 
[H]C1=C2C3([H])C([H])([H])C(C([H])([H])[H])(C([H])([H])[H])C([H])([H])C3([H])c3c(c([H])c4nn([H])nc4c3[H])C2(C([H])([H])[H])C([H])([H])C([H])([H])C1([H])[H]

$$$$
6:2:2
     RDKit          3D

 48 52  0  0  1  0  0  0  0  0999 V2000
   -1.1541   -8.9099    2.6081 C   0  0  0  0  0  0  0  0  0  0  0  0
   -0.1741   -8.1824    3.5508 C   0  0  0  0  0  0  0  0  0  0  0  0
   -0.9104   -7.8065    4.8458 C   0  0  0  0  0  0  0  0  0  0  0  0
    1.0561   -9.0699    3.8782 C   0  0  0  0  0  0  0  0  0  0  0  0
    2.1591   -8.5561    2.9462 C   0  0  2  0  0  0  0  0  0  0  0  0
    3.6185   -8.8485    3.2489 C   0  0  0  0  0  0  0  0  0  0  0  0
    4.0401   -9.5301    4.3359 C   0  0  0  0  0  0  0  0  0  0  0  0
    5.4942   -9.7607    4.7018 C   0  0  0  0  0  0  0  0  0  0  0  0
    6.4704   -9.3560    3.5888 C   0  0  0  0  0  0  0  0  0  0  0  0
    6.0042   -8.0909    2.8486 C   0  0  0  0  0  0  0  0  0  0  0  0
    4.5892   -8.2387    2.2175 C   0  0  1  0  0  0  0  0  0  0  0  0
    4.6629   -9.2218    1.0321 C   0  0  0  0  0  0  0  0  0  0  0  0
    4.1034   -6.8815    1.6442 C   0  0  0  0  0  0  0  0  0  0  0  0
    4.9353   -6.1679    0.7390 C   0  0  0  0  0  0  0  0  0  0  0  0
    4.4782   -4.9510    0.2086 C   0  0  0  0  0  0  0  0  0  0  0  0
    5.1123   -4.1490   -0.6416 N   0  0  0  0  0  0  0  0  0  0  0  0
    4.1764   -3.1534   -0.7864 N   0  0  0  0  0  0  0  0  0  0  0  0
    3.0170   -3.2852   -0.0655 N   0  0  0  0  0  0  0  0  0  0  0  0
    3.2458   -4.4401    0.5467 C   0  0  0  0  0  0  0  0  0  0  0  0
    2.3969   -5.1020    1.4413 C   0  0  0  0  0  0  0  0  0  0  0  0
    2.8251   -6.3360    1.9864 C   0  0  0  0  0  0  0  0  0  0  0  0
    1.9404   -7.0609    2.9883 C   0  0  1  0  0  0  0  0  0  0  0  0
    0.4167   -6.9307    2.8501 C   0  0  0  0  0  0  0  0  0  0  0  0
    4.3352   -2.3561   -1.3864 H   0  0  0  0  0  0  0  0  0  0  0  0
   -1.5605   -9.8105    3.0717 H   0  0  0  0  0  0  0  0  0  0  0  0
   -0.6626   -9.2120    1.6844 H   0  0  0  0  0  0  0  0  0  0  0  0
   -1.9956   -8.2737    2.3339 H   0  0  0  0  0  0  0  0  0  0  0  0
   -0.2607   -7.2744    5.5428 H   0  0  0  0  0  0  0  0  0  0  0  0
   -1.2688   -8.7040    5.3517 H   0  0  0  0  0  0  0  0  0  0  0  0
   -1.7790   -7.1760    4.6526 H   0  0  0  0  0  0  0  0  0  0  0  0
    1.3477   -8.9225    4.9199 H   0  0  0  0  0  0  0  0  0  0  0  0
    0.8617  -10.1336    3.7450 H   0  0  0  0  0  0  0  0  0  0  0  0
    1.9437   -8.9253    1.9426 H   0  0  0  0  0  0  0  0  0  0  0  0
    3.3301   -9.9201    5.0482 H   0  0  0  0  0  0  0  0  0  0  0  0
    5.7062   -9.1862    5.6042 H   0  0  0  0  0  0  0  0  0  0  0  0
    5.6359  -10.8111    4.9577 H   0  0  0  0  0  0  0  0  0  0  0  0
    7.4644   -9.2016    4.0107 H   0  0  0  0  0  0  0  0  0  0  0  0
    6.5767  -10.1803    2.8847 H   0  0  0  0  0  0  0  0  0  0  0  0
    5.9981   -7.2620    3.5568 H   0  0  0  0  0  0  0  0  0  0  0  0
    6.7461   -7.8372    2.0918 H   0  0  0  0  0  0  0  0  0  0  0  0
    3.7189   -9.2694    0.4868 H   0  0  0  0  0  0  0  0  0  0  0  0
    4.8843  -10.2379    1.3645 H   0  0  0  0  0  0  0  0  0  0  0  0
    5.4355   -8.9376    0.3217 H   0  0  0  0  0  0  0  0  0  0  0  0
    5.9057   -6.5373    0.4520 H   0  0  0  0  0  0  0  0  0  0  0  0
    1.4518   -4.6615    1.7130 H   0  0  0  0  0  0  0  0  0  0  0  0
    2.2255   -6.6935    3.9767 H   0  0  0  0  0  0  0  0  0  0  0  0
    0.1430   -6.9304    1.7946 H   0  0  0  0  0  0  0  0  0  0  0  0
    0.0590   -5.9980    3.2831 H   0  0  0  0  0  0  0  0  0  0  0  0
  1  2  1  0
  1 25  1  0
  1 26  1  0
  1 27  1  0
  2 23  1  0
  2  3  1  0
  2  4  1  0
  3 28  1  0
  3 29  1  0
  3 30  1  0
  4  5  1  0
  4 31  1  0
  4 32  1  0
  5 22  1  0
  5  6  1  0
  5 33  1  6
  6 11  1  0
  6  7  2  0
  7  8  1  0
  7 34  1  0
  8  9  1  0
  8 35  1  0
  8 36  1  0
  9 10  1  0
  9 37  1  0
  9 38  1  0
 10 11  1  0
 10 39  1  0
 10 40  1  0
 11 12  1  6
 11 13  1  0
 12 41  1  0
 12 42  1  0
 12 43  1  0
 13 21  1  0
 13 14  2  0
 14 15  1  0
 14 44  1  0
 15 19  1  0
 15 16  2  0
 16 17  1  0
 17 24  1  0
 17 18  1  0
 18 19  2  0
 19 20  1  0
 20 21  2  0
 20 45  1  0
 21 22  1  0
 22 23  1  0
 22 46  1  1
 23 47  1  0
 23 48  1  0
M  END
>  <i_m_ct_stereo_status>  (21) 
1

>  <s_m_source_file>  (21) 
/var/tmp/pbs.5076255.sched01/tmprv8ptrg5/026yimkau.sdf

>  <i_m_source_file_index>  (21) 
8

>  <i_lp_mmshare_version>  (21) 
48012

>  <i_f3d_flags>  (21) 
0

>  <s_epik_input>  (21) 
W0NIMl0xW0NIMl1bQ0gyXVtDSF09QyhbQ0BdMTJbQ0gzXSlbQ0BASF0zW0NASF0oW0NIMl1DKFtDSDNdKShbQ0gzXSlbQ0gyXTMpYzRjMltjSF1jNWMoW2NIXTQpbltuSF1uNQ==

>  <s_epik_cmdline>  (21) 
J2VwaWtfcHl0aG9uJywgJy1waHQnLCAnMi4wJywgJy1waCcsICc3LjAnLCAnLXRuJywgJzgnLCAnLW1hJywgJzIwMCcsICctaW1hZScsICc8aW5maWxlLm1hZT4nLCAnLW9tYWUnLCAnPG91dGZpbGUubWFlPic=

>  <r_lp_tautomer_probability>  (21) 
0.0784092

>  <r_epik_Ionization_Penalty>  (21) 
0.00991499

>  <r_epik_Ionization_Penalty_Charging>  (21) 
0

>  <r_epik_Ionization_Penalty_Neutral>  (21) 
0.00991499

>  <r_epik_State_Penalty>  (21) 
1.68544

>  <r_epik_Charging_Adjusted_Penalty>  (21) 
1.68544

>  <i_epik_Tot_Q>  (21) 
0

>  <i_epik_Tot_abs_Q>  (21) 
0

>  <s_lp_Force_Field>  (21) 
OPLS3e

>  <r_lp_Energy>  (21) 
29.4703

>  <b_lp_Chiralities_Consistent>  (21) 
1

>  <s_lp_Variant>  (21) 
6:0-3

>  <s_i_glide_gridfile>  (21) 
pfpi4k_grid

>  <i_i_glide_lignum>  (21) 
8

>  <i_i_glide_rotatable_bonds>  (21) 
0

>  <r_i_docking_score>  (21) 
-2.72003

>  <r_i_glide_ligand_efficiency>  (21) 
-0.118262

>  <r_i_glide_ligand_efficiency_sa>  (21) 
-0.336321

>  <r_i_glide_ligand_efficiency_ln>  (21) 
-0.657727

>  <r_i_glide_gscore>  (21) 
-2.72003

>  <r_i_glide_lipo>  (21) 
-0.272537

>  <r_i_glide_hbond>  (21) 
0

>  <r_i_glide_metal>  (21) 
-0

>  <r_i_glide_rewards>  (21) 
-1.31296

>  <r_i_glide_evdw>  (21) 
-24.5287

>  <r_i_glide_ecoul>  (21) 
0.612704

>  <r_i_glide_erotb>  (21) 
0

>  <r_i_glide_esite>  (21) 
0

>  <r_i_glide_emodel>  (21) 
-28.2609

>  <r_i_glide_energy>  (21) 
-23.916

>  <r_i_glide_einternal>  (21) 
0

>  <r_i_glide_intrahb_reward>  (21) 
-0

>  <i_i_glide_confnum>  (21) 
2

>  <i_i_glide_posenum>  (21) 
29

>  <r_i_glide_eff_state_penalty>  (21) 
0

>  <ligand_id>  (21) 
6

>  <original_smiles>  (21) 
CC1(C)CC2C3=CCCCC3(C)c3cc4n[nH]nc4cc3C2C1

>  <smiles>  (21) 
[H]C1=C2C3([H])C([H])([H])C(C([H])([H])[H])(C([H])([H])[H])C([H])([H])C3([H])c3c(c([H])c4nn([H])nc4c3[H])C2(C([H])([H])[H])C([H])([H])C([H])([H])C1([H])[H]

$$$$
7:0:0
     RDKit          3D

 38 41  0  0  1  0  0  0  0  0999 V2000
    2.3904   -2.7566   -3.6265 C   0  0  0  0  0  0  0  0  0  0  0  0
    3.3662   -1.5894   -3.7931 C   0  0  0  0  0  0  0  0  0  0  0  0
    3.0470   -0.5203   -4.3294 O   0  0  0  0  0  0  0  0  0  0  0  0
    4.6092   -1.7805   -3.2832 O   0  0  0  0  0  0  0  0  0  0  0  0
    5.1422   -2.9937   -2.7826 C   0  0  0  0  0  0  0  0  0  0  0  0
    5.4686   -2.8946   -1.2813 C   0  0  2  0  0  0  0  0  0  0  0  0
    6.5848   -2.0558   -0.9272 O   0  0  0  0  0  0  0  0  0  0  0  0
    6.8033   -3.4222   -0.8418 C   0  0  1  0  0  0  0  0  0  0  0  0
    6.7545   -4.1476    0.4989 C   0  0  2  0  0  0  0  0  0  0  0  0
    5.7386   -5.2848    0.4053 C   0  0  0  0  0  0  0  0  0  0  0  0
    4.6879   -4.2340    0.8030 C   0  0  1  0  0  0  0  0  0  0  0  0
    3.5058   -4.8017    1.6202 C   0  0  0  0  0  0  0  0  0  0  0  0
    5.8028   -3.5633    1.5995 C   0  0  2  0  0  0  0  0  0  0  0  0
    5.4610   -2.0731    1.7009 C   0  0  0  0  0  0  0  0  0  0  0  0
    4.2622   -1.8696    0.7299 C   0  0  1  0  0  0  0  0  0  0  0  0
    4.2502   -0.6257    0.0809 O   0  0  0  0  0  0  0  0  0  0  0  0
    4.2738   -3.0971   -0.2136 C   0  0  1  0  0  0  0  0  0  0  0  0
    2.8876   -3.3117   -0.7697 C   0  0  0  0  0  0  0  0  0  0  0  0
    2.8385   -3.6195   -3.1396 H   0  0  0  0  0  0  0  0  0  0  0  0
    2.0022   -3.0932   -4.5809 H   0  0  0  0  0  0  0  0  0  0  0  0
    1.5677   -2.4309   -2.9979 H   0  0  0  0  0  0  0  0  0  0  0  0
    4.5589   -3.8777   -3.0033 H   0  0  0  0  0  0  0  0  0  0  0  0
    6.0962   -3.1261   -3.3056 H   0  0  0  0  0  0  0  0  0  0  0  0
    7.5059   -3.8375   -1.5946 H   0  0  0  0  0  0  0  0  0  0  0  0
    7.7264   -4.4284    0.8923 H   0  0  0  0  0  0  0  0  0  0  0  0
    5.5812   -5.6884   -0.6004 H   0  0  0  0  0  0  0  0  0  0  0  0
    5.8894   -6.0835    1.1398 H   0  0  0  0  0  0  0  0  0  0  0  0
    2.9260   -4.0154    2.1001 H   0  0  0  0  0  0  0  0  0  0  0  0
    3.8586   -5.4672    2.4126 H   0  0  0  0  0  0  0  0  0  0  0  0
    2.8299   -5.3899    0.9974 H   0  0  0  0  0  0  0  0  0  0  0  0
    5.9578   -4.0482    2.5722 H   0  0  0  0  0  0  0  0  0  0  0  0
    5.1566   -1.7792    2.7043 H   0  0  0  0  0  0  0  0  0  0  0  0
    6.3056   -1.4437    1.4196 H   0  0  0  0  0  0  0  0  0  0  0  0
    3.3430   -1.9128    1.3212 H   0  0  0  0  0  0  0  0  0  0  0  0
    3.3673   -0.5002   -0.3104 H   0  0  0  0  0  0  0  0  0  0  0  0
    2.1311   -3.4258    0.0080 H   0  0  0  0  0  0  0  0  0  0  0  0
    2.8758   -4.2080   -1.3722 H   0  0  0  0  0  0  0  0  0  0  0  0
    2.6353   -2.4418   -1.3723 H   0  0  0  0  0  0  0  0  0  0  0  0
  1  2  1  0
  1 19  1  0
  1 20  1  0
  1 21  1  0
  2  3  2  0
  2  4  1  0
  4  5  1  0
  6  5  1  6
  5 22  1  0
  5 23  1  0
  6  8  1  0
  6 17  1  0
  6  7  1  0
  7  8  1  0
  8  9  1  0
  8 24  1  6
  9 13  1  0
  9 10  1  0
  9 25  1  1
 10 11  1  0
 10 26  1  0
 10 27  1  0
 11 17  1  0
 11 12  1  1
 11 13  1  0
 12 28  1  0
 12 29  1  0
 12 30  1  0
 13 14  1  0
 13 31  1  1
 14 15  1  0
 14 32  1  0
 14 33  1  0
 15 16  1  0
 15 17  1  0
 15 34  1  1
 16 35  1  0
 17 18  1  6
 18 36  1  0
 18 37  1  0
 18 38  1  0
M  END
>  <i_m_ct_stereo_status>  (22) 
1

>  <s_m_source_file>  (22) 
/var/tmp/pbs.5076255.sched01/tmprv8ptrg5/026yimkau.sdf

>  <i_m_source_file_index>  (22) 
9

>  <i_lp_mmshare_version>  (22) 
48012

>  <i_f3d_flags>  (22) 
0

>  <s_epik_input>  (22) 
W0NIM11DKD1PKU9bQ0gyXVtDQEBdMTJbQ0BASF0oTzEpW0NASF0zW0NAQEhdNFtDQEBdKFtDSDJdMykoW0NIM10pW0NAQF0yKFtDSDNdKVtDQEBIXShbQ0gyXTQpW09IXQ==

>  <s_epik_cmdline>  (22) 
J2VwaWtfcHl0aG9uJywgJy1waHQnLCAnMi4wJywgJy1waCcsICc3LjAnLCAnLXRuJywgJzgnLCAnLW1hJywgJzIwMCcsICctaW1hZScsICc8aW5maWxlLm1hZT4nLCAnLW9tYWUnLCAnPG91dGZpbGUubWFlPic=

>  <r_lp_tautomer_probability>  (22) 
1

>  <r_epik_Ionization_Penalty>  (22) 
2.28277e-07

>  <r_epik_Ionization_Penalty_Charging>  (22) 
0

>  <r_epik_Ionization_Penalty_Neutral>  (22) 
2.28277e-07

>  <r_epik_State_Penalty>  (22) 
-0

>  <r_epik_Charging_Adjusted_Penalty>  (22) 
0

>  <i_epik_Tot_Q>  (22) 
0

>  <i_epik_Tot_abs_Q>  (22) 
0

>  <s_epik_Chemistry_Notes>  (22) 
This compound has an ester and may undergo hydrolysis at high or low pH.

>  <s_lp_Force_Field>  (22) 
OPLS3e

>  <r_lp_Energy>  (22) 
45.3109

>  <b_lp_Chiralities_Consistent>  (22) 
1

>  <s_lp_Variant>  (22) 
7:0-1

>  <s_i_glide_gridfile>  (22) 
pfpi4k_grid

>  <i_i_glide_lignum>  (22) 
9

>  <i_i_glide_rotatable_bonds>  (22) 
4

>  <r_i_docking_score>  (22) 
-4.17035

>  <r_i_glide_ligand_efficiency>  (22) 
-0.231686

>  <r_i_glide_ligand_efficiency_sa>  (22) 
-0.60719

>  <r_i_glide_ligand_efficiency_ln>  (22) 
-1.07197

>  <r_i_glide_gscore>  (22) 
-4.17035

>  <r_i_glide_lipo>  (22) 
-1.07824

>  <r_i_glide_hbond>  (22) 
-0.16

>  <r_i_glide_metal>  (22) 
-0

>  <r_i_glide_rewards>  (22) 
-1.90636

>  <r_i_glide_evdw>  (22) 
-22.0518

>  <r_i_glide_ecoul>  (22) 
-3.16272

>  <r_i_glide_erotb>  (22) 
0.551249

>  <r_i_glide_esite>  (22) 
0

>  <r_i_glide_emodel>  (22) 
-25.9975

>  <r_i_glide_energy>  (22) 
-25.2145

>  <r_i_glide_einternal>  (22) 
7.42631

>  <r_i_glide_intrahb_reward>  (22) 
-0

>  <i_i_glide_confnum>  (22) 
3

>  <i_i_glide_posenum>  (22) 
32

>  <r_i_glide_eff_state_penalty>  (22) 
0

>  <ligand_id>  (22) 
7

>  <original_smiles>  (22) 
CC(=O)OCC12OC1C1CC3(C)C1CC(O)C32C

>  <smiles>  (22) 
[H]OC1([H])C([H])([H])C2([H])C3([H])C([H])([H])C2(C([H])([H])[H])C1(C([H])([H])[H])C1(C([H])([H])OC(=O)C([H])([H])[H])OC31[H]

$$$$
7:0:1
     RDKit          3D

 38 41  0  0  1  0  0  0  0  0999 V2000
    2.6019   -2.9297   -3.5866 C   0  0  0  0  0  0  0  0  0  0  0  0
    3.4660   -1.6377   -3.6781 C   0  0  0  0  0  0  0  0  0  0  0  0
    3.0765   -0.6398   -4.2729 O   0  0  0  0  0  0  0  0  0  0  0  0
    4.6837   -1.7152   -3.0924 O   0  0  0  0  0  0  0  0  0  0  0  0
    5.3087   -2.8606   -2.5516 C   0  0  0  0  0  0  0  0  0  0  0  0
    5.5599   -2.7313   -1.0511 C   0  0  2  0  0  0  0  0  0  0  0  0
    6.7491   -1.9545   -0.6709 O   0  0  0  0  0  0  0  0  0  0  0  0
    6.8592   -3.3578   -0.5327 C   0  0  1  0  0  0  0  0  0  0  0  0
    6.7087   -4.0178    0.8072 C   0  0  2  0  0  0  0  0  0  0  0  0
    5.6205   -5.0896    0.7261 C   0  0  0  0  0  0  0  0  0  0  0  0
    4.6416   -3.9595    1.0570 C   0  0  1  0  0  0  0  0  0  0  0  0
    3.3923   -4.4075    1.8424 C   0  0  0  0  0  0  0  0  0  0  0  0
    5.7675   -3.3391    1.8675 C   0  0  2  0  0  0  0  0  0  0  0  0
    5.5336   -1.8282    1.9132 C   0  0  0  0  0  0  0  0  0  0  0  0
    4.3839   -1.5746    0.9076 C   0  0  1  0  0  0  0  0  0  0  0  0
    4.4839   -0.3369    0.2342 O   0  0  0  0  0  0  0  0  0  0  0  0
    4.3527   -2.8282   -0.0094 C   0  0  1  0  0  0  0  0  0  0  0  0
    2.9557   -2.9905   -0.6146 C   0  0  0  0  0  0  0  0  0  0  0  0
    3.0911   -3.7303   -3.0202 H   0  0  0  0  0  0  0  0  0  0  0  0
    2.3122   -3.2594   -4.5429 H   0  0  0  0  0  0  0  0  0  0  0  0
    1.7071   -2.6433   -3.0139 H   0  0  0  0  0  0  0  0  0  0  0  0
    4.7806   -3.7908   -2.7674 H   0  0  0  0  0  0  0  0  0  0  0  0
    6.2758   -2.9220   -3.0449 H   0  0  0  0  0  0  0  0  0  0  0  0
    7.5400   -3.8364   -1.2588 H   0  0  0  0  0  0  0  0  0  0  0  0
    7.6461   -4.3577    1.2542 H   0  0  0  0  0  0  0  0  0  0  0  0
    5.4827   -5.5213   -0.2758 H   0  0  0  0  0  0  0  0  0  0  0  0
    5.6944   -5.8620    1.4885 H   0  0  0  0  0  0  0  0  0  0  0  0
    2.8570   -3.5701    2.2840 H   0  0  0  0  0  0  0  0  0  0  0  0
    3.6778   -5.0675    2.6642 H   0  0  0  0  0  0  0  0  0  0  0  0
    2.6941   -4.9708    1.2215 H   0  0  0  0  0  0  0  0  0  0  0  0
    5.8554   -3.8075    2.8481 H   0  0  0  0  0  0  0  0  0  0  0  0
    5.2243   -1.4838    2.8999 H   0  0  0  0  0  0  0  0  0  0  0  0
    6.4316   -1.2717    1.6428 H   0  0  0  0  0  0  0  0  0  0  0  0
    3.4409   -1.5364    1.4524 H   0  0  0  0  0  0  0  0  0  0  0  0
    4.2374    0.3488    0.8270 H   0  0  0  0  0  0  0  0  0  0  0  0
    2.1666   -2.9655    0.1460 H   0  0  0  0  0  0  0  0  0  0  0  0
    2.8984   -3.9308   -1.1760 H   0  0  0  0  0  0  0  0  0  0  0  0
    2.7705   -2.1578   -1.2883 H   0  0  0  0  0  0  0  0  0  0  0  0
  1  2  1  0
  1 19  1  0
  1 20  1  0
  1 21  1  0
  2  3  2  0
  2  4  1  0
  4  5  1  0
  6  5  1  6
  5 22  1  0
  5 23  1  0
  6  8  1  0
  6 17  1  0
  6  7  1  0
  7  8  1  0
  8  9  1  0
  8 24  1  6
  9 13  1  0
  9 10  1  0
  9 25  1  1
 10 11  1  0
 10 26  1  0
 10 27  1  0
 11 17  1  0
 11 12  1  1
 11 13  1  0
 12 28  1  0
 12 29  1  0
 12 30  1  0
 13 14  1  0
 13 31  1  1
 14 15  1  0
 14 32  1  0
 14 33  1  0
 15 16  1  0
 15 17  1  0
 15 34  1  1
 16 35  1  0
 17 18  1  6
 18 36  1  0
 18 37  1  0
 18 38  1  0
M  END
>  <i_m_ct_stereo_status>  (23) 
1

>  <s_m_source_file>  (23) 
/var/tmp/pbs.5076255.sched01/tmprv8ptrg5/026yimkau.sdf

>  <i_m_source_file_index>  (23) 
9

>  <i_lp_mmshare_version>  (23) 
48012

>  <i_f3d_flags>  (23) 
0

>  <s_epik_input>  (23) 
W0NIM11DKD1PKU9bQ0gyXVtDQEBdMTJbQ0BASF0oTzEpW0NASF0zW0NAQEhdNFtDQEBdKFtDSDJdMykoW0NIM10pW0NAQF0yKFtDSDNdKVtDQEBIXShbQ0gyXTQpW09IXQ==

>  <s_epik_cmdline>  (23) 
J2VwaWtfcHl0aG9uJywgJy1waHQnLCAnMi4wJywgJy1waCcsICc3LjAnLCAnLXRuJywgJzgnLCAnLW1hJywgJzIwMCcsICctaW1hZScsICc8aW5maWxlLm1hZT4nLCAnLW9tYWUnLCAnPG91dGZpbGUubWFlPic=

>  <r_lp_tautomer_probability>  (23) 
1

>  <r_epik_Ionization_Penalty>  (23) 
2.28277e-07

>  <r_epik_Ionization_Penalty_Charging>  (23) 
0

>  <r_epik_Ionization_Penalty_Neutral>  (23) 
2.28277e-07

>  <r_epik_State_Penalty>  (23) 
-0

>  <r_epik_Charging_Adjusted_Penalty>  (23) 
0

>  <i_epik_Tot_Q>  (23) 
0

>  <i_epik_Tot_abs_Q>  (23) 
0

>  <s_epik_Chemistry_Notes>  (23) 
This compound has an ester and may undergo hydrolysis at high or low pH.

>  <s_lp_Force_Field>  (23) 
OPLS3e

>  <r_lp_Energy>  (23) 
45.3109

>  <b_lp_Chiralities_Consistent>  (23) 
1

>  <s_lp_Variant>  (23) 
7:0-1

>  <s_i_glide_gridfile>  (23) 
pfpi4k_grid

>  <i_i_glide_lignum>  (23) 
9

>  <i_i_glide_rotatable_bonds>  (23) 
4

>  <r_i_docking_score>  (23) 
-3.95616

>  <r_i_glide_ligand_efficiency>  (23) 
-0.219787

>  <r_i_glide_ligand_efficiency_sa>  (23) 
-0.576005

>  <r_i_glide_ligand_efficiency_ln>  (23) 
-1.01691

>  <r_i_glide_gscore>  (23) 
-3.95616

>  <r_i_glide_lipo>  (23) 
-0.938436

>  <r_i_glide_hbond>  (23) 
-0.16

>  <r_i_glide_metal>  (23) 
-0

>  <r_i_glide_rewards>  (23) 
-1.97741

>  <r_i_glide_evdw>  (23) 
-21.678

>  <r_i_glide_ecoul>  (23) 
-2.31774

>  <r_i_glide_erotb>  (23) 
0.551249

>  <r_i_glide_esite>  (23) 
0

>  <r_i_glide_emodel>  (23) 
-25.0238

>  <r_i_glide_energy>  (23) 
-23.9958

>  <r_i_glide_einternal>  (23) 
7.00702

>  <r_i_glide_intrahb_reward>  (23) 
-0

>  <i_i_glide_confnum>  (23) 
3

>  <i_i_glide_posenum>  (23) 
40

>  <r_i_glide_eff_state_penalty>  (23) 
0

>  <ligand_id>  (23) 
7

>  <original_smiles>  (23) 
CC(=O)OCC12OC1C1CC3(C)C1CC(O)C32C

>  <smiles>  (23) 
[H]OC1([H])C([H])([H])C2([H])C3([H])C([H])([H])C2(C([H])([H])[H])C1(C([H])([H])[H])C1(C([H])([H])OC(=O)C([H])([H])[H])OC31[H]

$$$$
7:0:2
     RDKit          3D

 38 41  0  0  1  0  0  0  0  0999 V2000
    2.9989   -1.2889   -4.7503 C   0  0  0  0  0  0  0  0  0  0  0  0
    3.8034   -0.3188   -3.9181 C   0  0  0  0  0  0  0  0  0  0  0  0
    3.8438    0.8521   -4.2782 O   0  0  0  0  0  0  0  0  0  0  0  0
    4.4242   -0.8079   -2.8290 O   0  0  0  0  0  0  0  0  0  0  0  0
    4.7195   -2.1855   -2.6417 C   0  0  0  0  0  0  0  0  0  0  0  0
    4.7881   -2.4995   -1.1731 C   0  0  2  0  0  0  0  0  0  0  0  0
    5.7579   -1.7708   -0.3539 O   0  0  0  0  0  0  0  0  0  0  0  0
    6.0885   -3.0960   -0.6831 C   0  0  1  0  0  0  0  0  0  0  0  0
    5.8834   -4.1835    0.3238 C   0  0  2  0  0  0  0  0  0  0  0  0
    5.0496   -5.3071   -0.2766 C   0  0  0  0  0  0  0  0  0  0  0  0
    3.8299   -4.5029    0.1700 C   0  0  1  0  0  0  0  0  0  0  0  0
    2.6146   -5.3682    0.5398 C   0  0  0  0  0  0  0  0  0  0  0  0
    4.6977   -4.0398    1.3239 C   0  0  2  0  0  0  0  0  0  0  0  0
    4.1676   -2.6860    1.8002 C   0  0  0  0  0  0  0  0  0  0  0  0
    3.1389   -2.2813    0.7224 C   0  0  1  0  0  0  0  0  0  0  0  0
    3.1165   -0.9008    0.4834 O   0  0  0  0  0  0  0  0  0  0  0  0
    3.4855   -3.1334   -0.5182 C   0  0  1  0  0  0  0  0  0  0  0  0
    2.2675   -3.2543   -1.4766 C   0  0  0  0  0  0  0  0  0  0  0  0
    3.0403   -2.3701   -4.5947 H   0  0  0  0  0  0  0  0  0  0  0  0
    3.4068   -1.0738   -5.7473 H   0  0  0  0  0  0  0  0  0  0  0  0
    1.9405   -0.9776   -4.7640 H   0  0  0  0  0  0  0  0  0  0  0  0
    4.0185   -2.8869   -3.0571 H   0  0  0  0  0  0  0  0  0  0  0  0
    5.6632   -2.4380   -3.1170 H   0  0  0  0  0  0  0  0  0  0  0  0
    6.9127   -3.2018   -1.3966 H   0  0  0  0  0  0  0  0  0  0  0  0
    6.7884   -4.5095    0.8298 H   0  0  0  0  0  0  0  0  0  0  0  0
    5.1093   -5.3862   -1.3625 H   0  0  0  0  0  0  0  0  0  0  0  0
    5.1898   -6.2639    0.2341 H   0  0  0  0  0  0  0  0  0  0  0  0
    1.8811   -4.8285    1.1303 H   0  0  0  0  0  0  0  0  0  0  0  0
    2.9328   -6.2112    1.1537 H   0  0  0  0  0  0  0  0  0  0  0  0
    2.1255   -5.7986   -0.3320 H   0  0  0  0  0  0  0  0  0  0  0  0
    4.7916   -4.7995    2.0934 H   0  0  0  0  0  0  0  0  0  0  0  0
    3.6772   -2.7530    2.7681 H   0  0  0  0  0  0  0  0  0  0  0  0
    4.9611   -1.9421    1.8996 H   0  0  0  0  0  0  0  0  0  0  0  0
    2.1431   -2.5411    1.0756 H   0  0  0  0  0  0  0  0  0  0  0  0
    2.3258   -0.7149   -0.0215 H   0  0  0  0  0  0  0  0  0  0  0  0
    1.3698   -3.6002   -0.9700 H   0  0  0  0  0  0  0  0  0  0  0  0
    2.4136   -3.9564   -2.2921 H   0  0  0  0  0  0  0  0  0  0  0  0
    2.0353   -2.3009   -1.9467 H   0  0  0  0  0  0  0  0  0  0  0  0
  1  2  1  0
  1 19  1  0
  1 20  1  0
  1 21  1  0
  2  3  2  0
  2  4  1  0
  4  5  1  0
  6  5  1  6
  5 22  1  0
  5 23  1  0
  6  8  1  0
  6 17  1  0
  6  7  1  0
  7  8  1  0
  8  9  1  0
  8 24  1  6
  9 13  1  0
  9 10  1  0
  9 25  1  1
 10 11  1  0
 10 26  1  0
 10 27  1  0
 11 17  1  0
 11 12  1  1
 11 13  1  0
 12 28  1  0
 12 29  1  0
 12 30  1  0
 13 14  1  0
 13 31  1  1
 14 15  1  0
 14 32  1  0
 14 33  1  0
 15 16  1  0
 15 17  1  0
 15 34  1  1
 16 35  1  0
 17 18  1  6
 18 36  1  0
 18 37  1  0
 18 38  1  0
M  END
>  <i_m_ct_stereo_status>  (24) 
1

>  <s_m_source_file>  (24) 
/var/tmp/pbs.5076255.sched01/tmprv8ptrg5/026yimkau.sdf

>  <i_m_source_file_index>  (24) 
9

>  <i_lp_mmshare_version>  (24) 
48012

>  <i_f3d_flags>  (24) 
0

>  <s_epik_input>  (24) 
W0NIM11DKD1PKU9bQ0gyXVtDQEBdMTJbQ0BASF0oTzEpW0NASF0zW0NAQEhdNFtDQEBdKFtDSDJdMykoW0NIM10pW0NAQF0yKFtDSDNdKVtDQEBIXShbQ0gyXTQpW09IXQ==

>  <s_epik_cmdline>  (24) 
J2VwaWtfcHl0aG9uJywgJy1waHQnLCAnMi4wJywgJy1waCcsICc3LjAnLCAnLXRuJywgJzgnLCAnLW1hJywgJzIwMCcsICctaW1hZScsICc8aW5maWxlLm1hZT4nLCAnLW9tYWUnLCAnPG91dGZpbGUubWFlPic=

>  <r_lp_tautomer_probability>  (24) 
1

>  <r_epik_Ionization_Penalty>  (24) 
2.28277e-07

>  <r_epik_Ionization_Penalty_Charging>  (24) 
0

>  <r_epik_Ionization_Penalty_Neutral>  (24) 
2.28277e-07

>  <r_epik_State_Penalty>  (24) 
-0

>  <r_epik_Charging_Adjusted_Penalty>  (24) 
0

>  <i_epik_Tot_Q>  (24) 
0

>  <i_epik_Tot_abs_Q>  (24) 
0

>  <s_epik_Chemistry_Notes>  (24) 
This compound has an ester and may undergo hydrolysis at high or low pH.

>  <s_lp_Force_Field>  (24) 
OPLS3e

>  <r_lp_Energy>  (24) 
45.3109

>  <b_lp_Chiralities_Consistent>  (24) 
1

>  <s_lp_Variant>  (24) 
7:0-1

>  <s_i_glide_gridfile>  (24) 
pfpi4k_grid

>  <i_i_glide_lignum>  (24) 
9

>  <i_i_glide_rotatable_bonds>  (24) 
4

>  <r_i_docking_score>  (24) 
-3.18227

>  <r_i_glide_ligand_efficiency>  (24) 
-0.176793

>  <r_i_glide_ligand_efficiency_sa>  (24) 
-0.463328

>  <r_i_glide_ligand_efficiency_ln>  (24) 
-0.817986

>  <r_i_glide_gscore>  (24) 
-3.18227

>  <r_i_glide_lipo>  (24) 
-0.34373

>  <r_i_glide_hbond>  (24) 
0

>  <r_i_glide_metal>  (24) 
-0

>  <r_i_glide_rewards>  (24) 
-2.05714

>  <r_i_glide_evdw>  (24) 
-17.0176

>  <r_i_glide_ecoul>  (24) 
-3.21177

>  <r_i_glide_erotb>  (24) 
0.551249

>  <r_i_glide_esite>  (24) 
0

>  <r_i_glide_emodel>  (24) 
-19.7959

>  <r_i_glide_energy>  (24) 
-20.2293

>  <r_i_glide_einternal>  (24) 
9.39142

>  <r_i_glide_intrahb_reward>  (24) 
-0

>  <i_i_glide_confnum>  (24) 
3

>  <i_i_glide_posenum>  (24) 
4

>  <r_i_glide_eff_state_penalty>  (24) 
0

>  <ligand_id>  (24) 
7

>  <original_smiles>  (24) 
CC(=O)OCC12OC1C1CC3(C)C1CC(O)C32C

>  <smiles>  (24) 
[H]OC1([H])C([H])([H])C2([H])C3([H])C([H])([H])C2(C([H])([H])[H])C1(C([H])([H])[H])C1(C([H])([H])OC(=O)C([H])([H])[H])OC31[H]

$$$$
8:1:0
     RDKit          3D

 56 62  0  0  1  0  0  0  0  0999 V2000
    1.0711   -6.4561    1.3175 C   0  0  0  0  0  0  0  0  0  0  0  0
    1.6552   -5.3109    2.0063 N   0  0  0  0  0  0  0  0  0  0  0  0
    1.3668   -5.4103    3.4363 C   0  0  0  0  0  0  0  0  0  0  0  0
    3.1071   -5.0905    1.7424 C   0  0  2  0  0  0  0  0  0  0  0  0
    3.6849   -3.7976    2.3386 C   0  0  0  0  0  0  0  0  0  0  0  0
    4.0918   -3.6701    3.4937 O   0  0  0  0  0  0  0  0  0  0  0  0
    3.7582   -2.6601    1.3002 C   0  0  1  0  0  0  0  0  0  0  0  0
    2.9881   -1.4285    1.8747 C   0  0  0  0  0  0  0  0  0  0  0  0
    1.5798   -1.4449    1.6874 O   0  0  0  0  0  0  0  0  0  0  0  0
    5.2493   -2.2593    0.9714 C   0  0  1  0  0  0  0  0  0  0  0  0
    6.2861   -3.3834    1.1606 C   0  0  0  0  0  0  0  0  0  0  0  0
    6.1097   -4.2507   -0.0740 C   0  0  1  0  0  0  0  0  0  0  0  0
    4.9703   -5.3157    0.0212 C   0  0  0  0  0  0  0  0  0  0  0  0
    3.4770   -4.8729    0.2472 C   0  0  2  0  0  0  0  0  0  0  0  0
    3.1416   -3.3639    0.0420 C   0  0  2  0  0  0  0  0  0  0  0  0
    3.2961   -2.6097   -1.3458 C   0  0  1  0  0  0  0  0  0  0  0  0
    4.1527   -1.3583   -1.1862 C   0  0  2  0  0  0  0  0  0  0  0  0
    4.2993   -0.5536   -2.5102 C   0  0  0  0  0  0  0  0  0  0  0  0
    3.4237   -1.0850   -3.6724 C   0  0  0  0  0  0  0  0  0  0  0  0
    3.7280   -2.5349   -3.9170 C   0  0  2  0  0  0  0  0  0  0  0  0
    2.8510   -3.7196   -3.6743 C   0  0  0  0  0  0  0  0  0  0  0  0
    3.8450   -3.3125   -2.6002 C   0  0  2  0  0  0  0  0  0  0  0  0
    5.2848   -3.7560   -2.4585 C   0  0  0  0  0  0  0  0  0  0  0  0
    6.0022   -3.2125   -1.1966 C   0  0  1  0  0  0  0  0  0  0  0  0
    5.4583   -1.8896   -0.5393 C   0  0  2  0  0  0  0  0  0  0  0  0
    1.0430   -6.3194    0.2369 H   0  0  0  0  0  0  0  0  0  0  0  0
    0.0321   -6.5940    1.6045 H   0  0  0  0  0  0  0  0  0  0  0  0
    1.6001   -7.3851    1.5302 H   0  0  0  0  0  0  0  0  0  0  0  0
    1.6470   -4.5156    3.9834 H   0  0  0  0  0  0  0  0  0  0  0  0
    1.8863   -6.2571    3.8788 H   0  0  0  0  0  0  0  0  0  0  0  0
    0.3009   -5.5467    3.6159 H   0  0  0  0  0  0  0  0  0  0  0  0
    3.6506   -5.9411    2.1428 H   0  0  0  0  0  0  0  0  0  0  0  0
    3.1248   -1.3717    2.9517 H   0  0  0  0  0  0  0  0  0  0  0  0
    3.3865   -0.4773    1.5335 H   0  0  0  0  0  0  0  0  0  0  0  0
    1.4033   -1.2333    0.7641 H   0  0  0  0  0  0  0  0  0  0  0  0
    5.5365   -1.4160    1.5932 H   0  0  0  0  0  0  0  0  0  0  0  0
    7.2889   -2.9416    1.1450 H   0  0  0  0  0  0  0  0  0  0  0  0
    6.2436   -3.9441    2.0934 H   0  0  0  0  0  0  0  0  0  0  0  0
    7.0374   -4.8093   -0.2117 H   0  0  0  0  0  0  0  0  0  0  0  0
    5.0001   -5.9749   -0.8494 H   0  0  0  0  0  0  0  0  0  0  0  0
    5.2629   -6.0021    0.8238 H   0  0  0  0  0  0  0  0  0  0  0  0
    2.8586   -5.4676   -0.4099 H   0  0  0  0  0  0  0  0  0  0  0  0
    2.0614   -3.3544    0.1667 H   0  0  0  0  0  0  0  0  0  0  0  0
    2.2873   -2.2806   -1.5945 H   0  0  0  0  0  0  0  0  0  0  0  0
    3.6521   -0.6741   -0.5132 H   0  0  0  0  0  0  0  0  0  0  0  0
    4.0232    0.4785   -2.3431 H   0  0  0  0  0  0  0  0  0  0  0  0
    5.3514   -0.5354   -2.7758 H   0  0  0  0  0  0  0  0  0  0  0  0
    2.3636   -0.9815   -3.4422 H   0  0  0  0  0  0  0  0  0  0  0  0
    3.5947   -0.5450   -4.6019 H   0  0  0  0  0  0  0  0  0  0  0  0
    4.4578   -2.7156   -4.6984 H   0  0  0  0  0  0  0  0  0  0  0  0
    1.8036   -3.5392   -3.4847 H   0  0  0  0  0  0  0  0  0  0  0  0
    3.0658   -4.5755   -4.3108 H   0  0  0  0  0  0  0  0  0  0  0  0
    5.2862   -4.8325   -2.5383 H   0  0  0  0  0  0  0  0  0  0  0  0
    5.8667   -3.4196   -3.3085 H   0  0  0  0  0  0  0  0  0  0  0  0
    7.0333   -3.0070   -1.5106 H   0  0  0  0  0  0  0  0  0  0  0  0
    6.2302   -1.1230   -0.6085 H   0  0  0  0  0  0  0  0  0  0  0  0
  1  2  1  0
  1 26  1  0
  1 27  1  0
  1 28  1  0
  2  3  1  0
  2  4  1  0
  3 29  1  0
  3 30  1  0
  3 31  1  0
  4 14  1  0
  4  5  1  0
  4 32  1  1
  5  6  2  0
  5  7  1  0
  7 15  1  0
  7  8  1  1
  7 10  1  0
  8  9  1  0
  8 33  1  0
  8 34  1  0
  9 35  1  0
 10 25  1  0
 10 11  1  0
 10 36  1  1
 11 12  1  0
 11 37  1  0
 11 38  1  0
 12 24  1  0
 12 13  1  0
 12 39  1  6
 13 14  1  0
 13 40  1  0
 13 41  1  0
 14 15  1  0
 14 42  1  6
 15 16  1  0
 15 43  1  1
 16 22  1  0
 16 17  1  0
 16 44  1  6
 17 25  1  0
 17 18  1  0
 17 45  1  1
 18 19  1  0
 18 46  1  0
 18 47  1  0
 19 20  1  0
 19 48  1  0
 19 49  1  0
 20 22  1  0
 20 21  1  0
 20 50  1  6
 22 21  1  6
 21 51  1  0
 21 52  1  0
 22 23  1  0
 23 24  1  0
 23 53  1  0
 23 54  1  0
 24 25  1  0
 24 55  1  6
 25 56  1  1
M  END
>  <i_m_ct_stereo_status>  (25) 
1

>  <s_m_source_file>  (25) 
/var/tmp/pbs.5076255.sched01/tmprv8ptrg5/026yimkau.sdf

>  <i_m_source_file_index>  (25) 
11

>  <i_lp_mmshare_version>  (25) 
48012

>  <i_f3d_flags>  (25) 
0

>  <s_epik_input>  (25) 
W0NIM11OKFtDSDNdKVtDQEhdKEMxPU8pW0NAQEhdMltDSDJdW0NASF0oW0NIMl0zKVtDQEBIXShbQ0gyXTQpW0NASF0oW0NASF0zW0NAQF0xKFtDSDJdW09IXSlbQ0BIXTJbQ0BASF01W0NAXTQ2NylbQ0BIXTVbQ0gyXVtDSDJdW0NAQEhdNltDSDJdNw==

>  <s_epik_cmdline>  (25) 
J2VwaWtfcHl0aG9uJywgJy1waHQnLCAnMi4wJywgJy1waCcsICc3LjAnLCAnLXRuJywgJzgnLCAnLW1hJywgJzIwMCcsICctaW1hZScsICc8aW5maWxlLm1hZT4nLCAnLW9tYWUnLCAnPG91dGZpbGUubWFlPic=

>  <r_lp_tautomer_probability>  (25) 
0.99995

>  <r_epik_Ionization_Penalty>  (25) 
1.86267

>  <r_epik_Ionization_Penalty_Charging>  (25) 
0

>  <r_epik_Ionization_Penalty_Neutral>  (25) 
1.86267

>  <r_epik_State_Penalty>  (25) 
1.98105

>  <r_epik_Charging_Adjusted_Penalty>  (25) 
1.98105

>  <i_epik_Tot_Q>  (25) 
0

>  <i_epik_Tot_abs_Q>  (25) 
0

>  <s_lp_Force_Field>  (25) 
OPLS3e

>  <r_lp_Energy>  (25) 
101.685

>  <b_lp_Chiralities_Consistent>  (25) 
1

>  <s_lp_Variant>  (25) 
8:0-2

>  <s_i_glide_gridfile>  (25) 
pfpi4k_grid

>  <i_i_glide_lignum>  (25) 
11

>  <i_i_glide_rotatable_bonds>  (25) 
3

>  <r_i_docking_score>  (25) 
-3.19351

>  <r_i_glide_ligand_efficiency>  (25) 
-0.12774

>  <r_i_glide_ligand_efficiency_sa>  (25) 
-0.373515

>  <r_i_glide_ligand_efficiency_ln>  (25) 
-0.756957

>  <r_i_glide_gscore>  (25) 
-3.19351

>  <r_i_glide_lipo>  (25) 
-0.856444

>  <r_i_glide_hbond>  (25) 
-0.194366

>  <r_i_glide_metal>  (25) 
-0

>  <r_i_glide_rewards>  (25) 
-1.08235

>  <r_i_glide_evdw>  (25) 
-18.8403

>  <r_i_glide_ecoul>  (25) 
-1.87221

>  <r_i_glide_erotb>  (25) 
0.162508

>  <r_i_glide_esite>  (25) 
0

>  <r_i_glide_emodel>  (25) 
-24.0369

>  <r_i_glide_energy>  (25) 
-20.7125

>  <r_i_glide_einternal>  (25) 
1.99141

>  <r_i_glide_intrahb_reward>  (25) 
-0

>  <i_i_glide_confnum>  (25) 
3

>  <i_i_glide_posenum>  (25) 
35

>  <r_i_glide_eff_state_penalty>  (25) 
0

>  <ligand_id>  (25) 
8

>  <original_smiles>  (25) 
CN(C)C1C(=O)C2(CO)C3CC4CC1C2C1C2CCC5CC51CC4C23

>  <smiles>  (25) 
[H]OC([H])([H])C12C(=O)C([H])(N(C([H])([H])[H])C([H])([H])[H])C3([H])C([H])([H])C4([H])C([H])([H])C1([H])C1([H])C4([H])C([H])([H])C45C([H])([H])C4([H])C([H])([H])C([H])([H])C1([H])C5([H])C32[H]

$$$$
8:1:1
     RDKit          3D

 56 62  0  0  1  0  0  0  0  0999 V2000
    1.3722   -6.7149    1.0729 C   0  0  0  0  0  0  0  0  0  0  0  0
    1.6843   -5.4631    1.7539 N   0  0  0  0  0  0  0  0  0  0  0  0
    1.2949   -5.5926    3.1584 C   0  0  0  0  0  0  0  0  0  0  0  0
    3.1110   -5.0223    1.6203 C   0  0  2  0  0  0  0  0  0  0  0  0
    3.4079   -3.6334    2.2046 C   0  0  0  0  0  0  0  0  0  0  0  0
    3.6589   -3.4208    3.3759 O   0  0  0  0  0  0  0  0  0  0  0  0
    3.4122   -2.5233    1.1184 C   0  0  1  0  0  0  0  0  0  0  0  0
    2.3337   -1.4667    1.5414 C   0  0  0  0  0  0  0  0  0  0  0  0
    2.6419   -0.7712    2.7265 O   0  0  0  0  0  0  0  0  0  0  0  0
    4.8343   -1.8850    0.8714 C   0  0  1  0  0  0  0  0  0  0  0  0
    6.0142   -2.8017    1.2431 C   0  0  0  0  0  0  0  0  0  0  0  0
    6.1209   -3.7569    0.0614 C   0  0  1  0  0  0  0  0  0  0  0  0
    5.1641   -4.9879    0.1290 C   0  0  0  0  0  0  0  0  0  0  0  0
    3.6042   -4.7984    0.1717 C   0  0  2  0  0  0  0  0  0  0  0  0
    3.0425   -3.3769   -0.1416 C   0  0  2  0  0  0  0  0  0  0  0  0
    3.2109   -2.6903   -1.5597 C   0  0  1  0  0  0  0  0  0  0  0  0
    3.8445   -1.3122   -1.4431 C   0  0  2  0  0  0  0  0  0  0  0  0
    3.9646   -0.5658   -2.8071 C   0  0  0  0  0  0  0  0  0  0  0  0
    3.3044   -1.2998   -3.9908 C   0  0  0  0  0  0  0  0  0  0  0  0
    3.8449   -2.6788   -4.0518 C   0  0  2  0  0  0  0  0  0  0  0  0
    3.1877   -3.9615   -3.8682 C   0  0  0  0  0  0  0  0  0  0  0  0
    3.9719   -3.3611   -2.7099 C   0  0  2  0  0  0  0  0  0  0  0  0
    5.4535   -3.5333   -2.4100 C   0  0  0  0  0  0  0  0  0  0  0  0
    5.9504   -2.8167   -1.1389 C   0  0  1  0  0  0  0  0  0  0  0  0
    5.1350   -1.5746   -0.6359 C   0  0  2  0  0  0  0  0  0  0  0  0
    1.4172   -6.5960   -0.0036 H   0  0  0  0  0  0  0  0  0  0  0  0
    0.3478   -7.0285    1.2723 H   0  0  0  0  0  0  0  0  0  0  0  0
    2.0310   -7.5306    1.3678 H   0  0  0  0  0  0  0  0  0  0  0  0
    1.3710   -4.6533    3.7059 H   0  0  0  0  0  0  0  0  0  0  0  0
    1.9117   -6.3312    3.6746 H   0  0  0  0  0  0  0  0  0  0  0  0
    0.2561   -5.9047    3.2634 H   0  0  0  0  0  0  0  0  0  0  0  0
    3.7360   -5.7595    2.1290 H   0  0  0  0  0  0  0  0  0  0  0  0
    2.1782   -0.6544    0.8477 H   0  0  0  0  0  0  0  0  0  0  0  0
    1.3718   -1.9585    1.6679 H   0  0  0  0  0  0  0  0  0  0  0  0
    3.4369   -0.2719    2.5895 H   0  0  0  0  0  0  0  0  0  0  0  0
    4.9171   -0.9636    1.4424 H   0  0  0  0  0  0  0  0  0  0  0  0
    6.9164   -2.1916    1.2944 H   0  0  0  0  0  0  0  0  0  0  0  0
    5.9596   -3.3079    2.2056 H   0  0  0  0  0  0  0  0  0  0  0  0
    7.1348   -4.1578    0.0421 H   0  0  0  0  0  0  0  0  0  0  0  0
    5.3922   -5.6754   -0.6839 H   0  0  0  0  0  0  0  0  0  0  0  0
    5.4809   -5.5647    1.0007 H   0  0  0  0  0  0  0  0  0  0  0  0
    3.1781   -5.5268   -0.5144 H   0  0  0  0  0  0  0  0  0  0  0  0
    1.9604   -3.5131   -0.0987 H   0  0  0  0  0  0  0  0  0  0  0  0
    2.1925   -2.5497   -1.9230 H   0  0  0  0  0  0  0  0  0  0  0  0
    3.2071   -0.6584   -0.8654 H   0  0  0  0  0  0  0  0  0  0  0  0
    3.4609    0.3912   -2.7224 H   0  0  0  0  0  0  0  0  0  0  0  0
    5.0045   -0.3300   -3.0217 H   0  0  0  0  0  0  0  0  0  0  0  0
    2.2304   -1.3654   -3.8819 H   0  0  0  0  0  0  0  0  0  0  0  0
    3.5007   -0.7956   -4.9326 H   0  0  0  0  0  0  0  0  0  0  0  0
    4.6555   -2.7886   -4.7251 H   0  0  0  0  0  0  0  0  0  0  0  0
    2.1041   -3.9833   -3.8099 H   0  0  0  0  0  0  0  0  0  0  0  0
    3.6589   -4.8179   -4.3289 H   0  0  0  0  0  0  0  0  0  0  0  0
    5.6544   -4.5994   -2.4182 H   0  0  0  0  0  0  0  0  0  0  0  0
    6.0495   -3.1467   -3.2341 H   0  0  0  0  0  0  0  0  0  0  0  0
    6.9509   -2.4577   -1.3688 H   0  0  0  0  0  0  0  0  0  0  0  0
    5.7732   -0.6896   -0.6863 H   0  0  0  0  0  0  0  0  0  0  0  0
  1  2  1  0
  1 26  1  0
  1 27  1  0
  1 28  1  0
  2  3  1  0
  2  4  1  0
  3 29  1  0
  3 30  1  0
  3 31  1  0
  4 14  1  0
  4  5  1  0
  4 32  1  1
  5  6  2  0
  5  7  1  0
  7 15  1  0
  7  8  1  1
  7 10  1  0
  8  9  1  0
  8 33  1  0
  8 34  1  0
  9 35  1  0
 10 25  1  0
 10 11  1  0
 10 36  1  1
 11 12  1  0
 11 37  1  0
 11 38  1  0
 12 24  1  0
 12 13  1  0
 12 39  1  6
 13 14  1  0
 13 40  1  0
 13 41  1  0
 14 15  1  0
 14 42  1  6
 15 16  1  0
 15 43  1  1
 16 22  1  0
 16 17  1  0
 16 44  1  6
 17 25  1  0
 17 18  1  0
 17 45  1  1
 18 19  1  0
 18 46  1  0
 18 47  1  0
 19 20  1  0
 19 48  1  0
 19 49  1  0
 20 22  1  0
 20 21  1  0
 20 50  1  6
 22 21  1  6
 21 51  1  0
 21 52  1  0
 22 23  1  0
 23 24  1  0
 23 53  1  0
 23 54  1  0
 24 25  1  0
 24 55  1  6
 25 56  1  1
M  END
>  <i_m_ct_stereo_status>  (26) 
1

>  <s_m_source_file>  (26) 
/var/tmp/pbs.5076255.sched01/tmprv8ptrg5/026yimkau.sdf

>  <i_m_source_file_index>  (26) 
11

>  <i_lp_mmshare_version>  (26) 
48012

>  <i_f3d_flags>  (26) 
0

>  <s_epik_input>  (26) 
W0NIM11OKFtDSDNdKVtDQEhdKEMxPU8pW0NAQEhdMltDSDJdW0NASF0oW0NIMl0zKVtDQEBIXShbQ0gyXTQpW0NASF0oW0NASF0zW0NAQF0xKFtDSDJdW09IXSlbQ0BIXTJbQ0BASF01W0NAXTQ2NylbQ0BIXTVbQ0gyXVtDSDJdW0NAQEhdNltDSDJdNw==

>  <s_epik_cmdline>  (26) 
J2VwaWtfcHl0aG9uJywgJy1waHQnLCAnMi4wJywgJy1waCcsICc3LjAnLCAnLXRuJywgJzgnLCAnLW1hJywgJzIwMCcsICctaW1hZScsICc8aW5maWxlLm1hZT4nLCAnLW9tYWUnLCAnPG91dGZpbGUubWFlPic=

>  <r_lp_tautomer_probability>  (26) 
0.99995

>  <r_epik_Ionization_Penalty>  (26) 
1.86267

>  <r_epik_Ionization_Penalty_Charging>  (26) 
0

>  <r_epik_Ionization_Penalty_Neutral>  (26) 
1.86267

>  <r_epik_State_Penalty>  (26) 
1.98105

>  <r_epik_Charging_Adjusted_Penalty>  (26) 
1.98105

>  <i_epik_Tot_Q>  (26) 
0

>  <i_epik_Tot_abs_Q>  (26) 
0

>  <s_lp_Force_Field>  (26) 
OPLS3e

>  <r_lp_Energy>  (26) 
101.685

>  <b_lp_Chiralities_Consistent>  (26) 
1

>  <s_lp_Variant>  (26) 
8:0-2

>  <s_i_glide_gridfile>  (26) 
pfpi4k_grid

>  <i_i_glide_lignum>  (26) 
11

>  <i_i_glide_rotatable_bonds>  (26) 
3

>  <r_i_docking_score>  (26) 
-2.81703

>  <r_i_glide_ligand_efficiency>  (26) 
-0.112681

>  <r_i_glide_ligand_efficiency_sa>  (26) 
-0.329482

>  <r_i_glide_ligand_efficiency_ln>  (26) 
-0.66772

>  <r_i_glide_gscore>  (26) 
-2.81703

>  <r_i_glide_lipo>  (26) 
-0.664111

>  <r_i_glide_hbond>  (26) 
-0.0554725

>  <r_i_glide_metal>  (26) 
-0

>  <r_i_glide_rewards>  (26) 
-1.08241

>  <r_i_glide_evdw>  (26) 
-19.5505

>  <r_i_glide_ecoul>  (26) 
-1.33345

>  <r_i_glide_erotb>  (26) 
0.162508

>  <r_i_glide_esite>  (26) 
0

>  <r_i_glide_emodel>  (26) 
-24.4262

>  <r_i_glide_energy>  (26) 
-20.884

>  <r_i_glide_einternal>  (26) 
0.267998

>  <r_i_glide_intrahb_reward>  (26) 
-0

>  <i_i_glide_confnum>  (26) 
3

>  <i_i_glide_posenum>  (26) 
2

>  <r_i_glide_eff_state_penalty>  (26) 
0

>  <ligand_id>  (26) 
8

>  <original_smiles>  (26) 
CN(C)C1C(=O)C2(CO)C3CC4CC1C2C1C2CCC5CC51CC4C23

>  <smiles>  (26) 
[H]OC([H])([H])C12C(=O)C([H])(N(C([H])([H])[H])C([H])([H])[H])C3([H])C([H])([H])C4([H])C([H])([H])C1([H])C1([H])C4([H])C([H])([H])C45C([H])([H])C4([H])C([H])([H])C([H])([H])C1([H])C5([H])C32[H]

$$$$
8:1:2
     RDKit          3D

 56 62  0  0  1  0  0  0  0  0999 V2000
    8.2596   -6.1150    2.1766 C   0  0  0  0  0  0  0  0  0  0  0  0
    6.8467   -6.3574    2.4508 N   0  0  0  0  0  0  0  0  0  0  0  0
    6.7628   -7.3058    3.5671 C   0  0  0  0  0  0  0  0  0  0  0  0
    6.0636   -5.1164    2.7360 C   0  0  2  0  0  0  0  0  0  0  0  0
    4.5575   -5.3520    2.8653 C   0  0  0  0  0  0  0  0  0  0  0  0
    3.9689   -5.7124    3.8882 O   0  0  0  0  0  0  0  0  0  0  0  0
    3.8265   -5.0401    1.5476 C   0  0  1  0  0  0  0  0  0  0  0  0
    3.0430   -6.3399    1.1705 C   0  0  0  0  0  0  0  0  0  0  0  0
    3.8768   -7.4462    0.8878 O   0  0  0  0  0  0  0  0  0  0  0  0
    2.8614   -3.7994    1.6798 C   0  0  1  0  0  0  0  0  0  0  0  0
    3.2528   -2.7717    2.7606 C   0  0  0  0  0  0  0  0  0  0  0  0
    4.3783   -1.9765    2.1080 C   0  0  1  0  0  0  0  0  0  0  0  0
    5.7840   -2.6369    2.2212 C   0  0  0  0  0  0  0  0  0  0  0  0
    6.0723   -4.0533    1.5979 C   0  0  2  0  0  0  0  0  0  0  0  0
    5.0207   -4.6443    0.6170 C   0  0  2  0  0  0  0  0  0  0  0  0
    4.6499   -3.9718   -0.7618 C   0  0  1  0  0  0  0  0  0  0  0  0
    3.1546   -3.7084   -0.8777 C   0  0  2  0  0  0  0  0  0  0  0  0
    2.7449   -3.1321   -2.2702 C   0  0  0  0  0  0  0  0  0  0  0  0
    3.9164   -3.0405   -3.2849 C   0  0  0  0  0  0  0  0  0  0  0  0
    5.0590   -2.2594   -2.6714 C   0  0  2  0  0  0  0  0  0  0  0  0
    6.4158   -2.7487   -2.2543 C   0  0  0  0  0  0  0  0  0  0  0  0
    5.3214   -2.6626   -1.2192 C   0  0  2  0  0  0  0  0  0  0  0  0
    4.9714   -1.4664   -0.3337 C   0  0  0  0  0  0  0  0  0  0  0  0
    3.8431   -1.7336    0.6915 C   0  0  1  0  0  0  0  0  0  0  0  0
    2.8302   -2.9007    0.3992 C   0  0  2  0  0  0  0  0  0  0  0  0
    8.4106   -5.6029    1.2273 H   0  0  0  0  0  0  0  0  0  0  0  0
    8.7980   -7.0572    2.0796 H   0  0  0  0  0  0  0  0  0  0  0  0
    8.7424   -5.5380    2.9662 H   0  0  0  0  0  0  0  0  0  0  0  0
    5.7440   -7.6368    3.7612 H   0  0  0  0  0  0  0  0  0  0  0  0
    7.1568   -6.8650    4.4838 H   0  0  0  0  0  0  0  0  0  0  0  0
    7.3393   -8.2092    3.3614 H   0  0  0  0  0  0  0  0  0  0  0  0
    6.4315   -4.6928    3.6690 H   0  0  0  0  0  0  0  0  0  0  0  0
    2.3935   -6.6217    2.0001 H   0  0  0  0  0  0  0  0  0  0  0  0
    2.3605   -6.2324    0.3368 H   0  0  0  0  0  0  0  0  0  0  0  0
    4.3837   -7.2580    0.1131 H   0  0  0  0  0  0  0  0  0  0  0  0
    1.8585   -4.1623    1.8958 H   0  0  0  0  0  0  0  0  0  0  0  0
    2.4021   -2.1077    2.9350 H   0  0  0  0  0  0  0  0  0  0  0  0
    3.5098   -3.1631    3.7442 H   0  0  0  0  0  0  0  0  0  0  0  0
    4.4516   -1.0121    2.6165 H   0  0  0  0  0  0  0  0  0  0  0  0
    6.5490   -1.9457    1.8648 H   0  0  0  0  0  0  0  0  0  0  0  0
    5.9854   -2.6691    3.2941 H   0  0  0  0  0  0  0  0  0  0  0  0
    7.0364   -3.9854    1.0989 H   0  0  0  0  0  0  0  0  0  0  0  0
    5.4828   -5.5752    0.2874 H   0  0  0  0  0  0  0  0  0  0  0  0
    4.8992   -4.7255   -1.5130 H   0  0  0  0  0  0  0  0  0  0  0  0
    2.6173   -4.6436   -0.8322 H   0  0  0  0  0  0  0  0  0  0  0  0
    1.9928   -3.7956   -2.7007 H   0  0  0  0  0  0  0  0  0  0  0  0
    2.2571   -2.1639   -2.1636 H   0  0  0  0  0  0  0  0  0  0  0  0
    4.2674   -4.0301   -3.5859 H   0  0  0  0  0  0  0  0  0  0  0  0
    3.5940   -2.5305   -4.1914 H   0  0  0  0  0  0  0  0  0  0  0  0
    5.0157   -1.1971   -2.9226 H   0  0  0  0  0  0  0  0  0  0  0  0
    6.7234   -3.7259   -2.6262 H   0  0  0  0  0  0  0  0  0  0  0  0
    7.2211   -2.0223   -2.1941 H   0  0  0  0  0  0  0  0  0  0  0  0
    5.8802   -1.0656    0.1059 H   0  0  0  0  0  0  0  0  0  0  0  0
    4.6161   -0.6397   -0.9473 H   0  0  0  0  0  0  0  0  0  0  0  0
    3.2484   -0.8182    0.7436 H   0  0  0  0  0  0  0  0  0  0  0  0
    1.8274   -2.4841    0.3313 H   0  0  0  0  0  0  0  0  0  0  0  0
  1  2  1  0
  1 26  1  0
  1 27  1  0
  1 28  1  0
  2  3  1  0
  2  4  1  0
  3 29  1  0
  3 30  1  0
  3 31  1  0
  4 14  1  0
  4  5  1  0
  4 32  1  1
  5  6  2  0
  5  7  1  0
  7 15  1  0
  7  8  1  6
  7 10  1  0
  8  9  1  0
  8 33  1  0
  8 34  1  0
  9 35  1  0
 10 25  1  0
 10 11  1  0
 10 36  1  1
 11 12  1  0
 11 37  1  0
 11 38  1  0
 12 24  1  0
 12 13  1  0
 12 39  1  1
 13 14  1  0
 13 40  1  0
 13 41  1  0
 14 15  1  0
 14 42  1  6
 15 16  1  0
 15 43  1  6
 16 22  1  0
 16 17  1  0
 16 44  1  6
 17 25  1  0
 17 18  1  0
 17 45  1  1
 18 19  1  0
 18 46  1  0
 18 47  1  0
 19 20  1  0
 19 48  1  0
 19 49  1  0
 20 22  1  0
 20 21  1  0
 20 50  1  1
 22 21  1  6
 21 51  1  0
 21 52  1  0
 22 23  1  0
 23 24  1  0
 23 53  1  0
 23 54  1  0
 24 25  1  0
 24 55  1  1
 25 56  1  6
M  END
>  <i_m_ct_stereo_status>  (27) 
1

>  <s_m_source_file>  (27) 
/var/tmp/pbs.5076255.sched01/tmprv8ptrg5/026yimkau.sdf

>  <i_m_source_file_index>  (27) 
11

>  <i_lp_mmshare_version>  (27) 
48012

>  <i_f3d_flags>  (27) 
0

>  <s_epik_input>  (27) 
W0NIM11OKFtDSDNdKVtDQEhdKEMxPU8pW0NAQEhdMltDSDJdW0NASF0oW0NIMl0zKVtDQEBIXShbQ0gyXTQpW0NASF0oW0NASF0zW0NAQF0xKFtDSDJdW09IXSlbQ0BIXTJbQ0BASF01W0NAXTQ2NylbQ0BIXTVbQ0gyXVtDSDJdW0NAQEhdNltDSDJdNw==

>  <s_epik_cmdline>  (27) 
J2VwaWtfcHl0aG9uJywgJy1waHQnLCAnMi4wJywgJy1waCcsICc3LjAnLCAnLXRuJywgJzgnLCAnLW1hJywgJzIwMCcsICctaW1hZScsICc8aW5maWxlLm1hZT4nLCAnLW9tYWUnLCAnPG91dGZpbGUubWFlPic=

>  <r_lp_tautomer_probability>  (27) 
0.99995

>  <r_epik_Ionization_Penalty>  (27) 
1.86267

>  <r_epik_Ionization_Penalty_Charging>  (27) 
0

>  <r_epik_Ionization_Penalty_Neutral>  (27) 
1.86267

>  <r_epik_State_Penalty>  (27) 
1.98105

>  <r_epik_Charging_Adjusted_Penalty>  (27) 
1.98105

>  <i_epik_Tot_Q>  (27) 
0

>  <i_epik_Tot_abs_Q>  (27) 
0

>  <s_lp_Force_Field>  (27) 
OPLS3e

>  <r_lp_Energy>  (27) 
101.685

>  <b_lp_Chiralities_Consistent>  (27) 
1

>  <s_lp_Variant>  (27) 
8:0-2

>  <s_i_glide_gridfile>  (27) 
pfpi4k_grid

>  <i_i_glide_lignum>  (27) 
11

>  <i_i_glide_rotatable_bonds>  (27) 
3

>  <r_i_docking_score>  (27) 
-2.56904

>  <r_i_glide_ligand_efficiency>  (27) 
-0.102761

>  <r_i_glide_ligand_efficiency_sa>  (27) 
-0.300476

>  <r_i_glide_ligand_efficiency_ln>  (27) 
-0.608939

>  <r_i_glide_gscore>  (27) 
-2.56904

>  <r_i_glide_lipo>  (27) 
-0.506357

>  <r_i_glide_hbond>  (27) 
0

>  <r_i_glide_metal>  (27) 
-0

>  <r_i_glide_rewards>  (27) 
-1.08082

>  <r_i_glide_evdw>  (27) 
-20.3138

>  <r_i_glide_ecoul>  (27) 
-0.857854

>  <r_i_glide_erotb>  (27) 
0.162508

>  <r_i_glide_esite>  (27) 
0

>  <r_i_glide_emodel>  (27) 
-24.6851

>  <r_i_glide_energy>  (27) 
-21.1717

>  <r_i_glide_einternal>  (27) 
0.151259

>  <r_i_glide_intrahb_reward>  (27) 
-0

>  <i_i_glide_confnum>  (27) 
4

>  <i_i_glide_posenum>  (27) 
1

>  <r_i_glide_eff_state_penalty>  (27) 
0

>  <ligand_id>  (27) 
8

>  <original_smiles>  (27) 
CN(C)C1C(=O)C2(CO)C3CC4CC1C2C1C2CCC5CC51CC4C23

>  <smiles>  (27) 
[H]OC([H])([H])C12C(=O)C([H])(N(C([H])([H])[H])C([H])([H])[H])C3([H])C([H])([H])C4([H])C([H])([H])C1([H])C1([H])C4([H])C([H])([H])C45C([H])([H])C4([H])C([H])([H])C([H])([H])C1([H])C5([H])C32[H]

$$$$
9:0:0
     RDKit          3D

 69 74  0  0  1  0  0  0  0  0999 V2000
    7.7429    0.2129    7.2392 C   0  0  0  0  0  0  0  0  0  0  0  0
    6.7232    0.0378    6.1223 C   0  0  0  0  0  0  0  0  0  0  0  0
    6.8899    0.5524    5.0158 O   0  0  0  0  0  0  0  0  0  0  0  0
    5.6834   -0.7354    6.4986 O   0  0  0  0  0  0  0  0  0  0  0  0
    4.5386   -0.9967    5.6764 C   0  0  2  0  0  0  0  0  0  0  0  0
    4.9036   -1.5239    4.2817 C   0  0  0  0  0  0  0  0  0  0  0  0
    3.6859   -2.0428    3.4810 C   0  0  1  0  0  0  0  0  0  0  0  0
    2.5836   -0.9033    3.3452 C   0  0  2  0  0  0  0  0  0  0  0  0
    1.2070   -1.4923    2.9477 C   0  0  0  0  0  0  0  0  0  0  0  0
    3.0264    0.0937    2.2438 C   0  0  0  0  0  0  0  0  0  0  0  0
    3.3994   -0.5788    0.9154 C   0  0  0  0  0  0  0  0  0  0  0  0
    4.5111   -1.6375    1.0626 C   0  0  2  0  0  0  0  0  0  0  0  0
    4.9367   -2.2902   -0.2763 C   0  0  2  0  0  0  0  0  0  0  0  0
    5.1032   -1.3540   -1.4995 C   0  0  0  0  0  0  0  0  0  0  0  0
    3.7813   -1.3842   -2.2914 C   0  0  1  0  0  0  0  0  0  0  0  0
    4.0229   -1.0891   -4.0279 Cl  0  0  0  0  0  0  0  0  0  0  0  0
    3.2684   -2.7866   -2.0077 C   0  0  0  0  0  0  0  0  0  0  0  0
    2.4475   -3.3859   -2.7051 O   0  0  0  0  0  0  0  0  0  0  0  0
    3.9190   -3.3669   -0.7512 C   0  0  1  0  0  0  0  0  0  0  0  0
    4.6160   -4.5484   -1.1142 O   0  0  0  0  0  0  0  0  0  0  0  0
    2.8953   -3.6964    0.1687 O   0  0  0  0  0  0  0  0  0  0  0  0
    3.0857   -3.6769    1.5244 C   0  0  0  0  0  0  0  0  0  0  0  0
    2.3828   -4.3719    2.2620 O   0  0  0  0  0  0  0  0  0  0  0  0
    4.1617   -2.7257    2.1143 C   0  0  2  0  0  0  0  0  0  0  0  0
    5.3845   -3.6519    2.3496 C   0  0  0  0  0  0  0  0  0  0  0  0
    2.3805   -0.1254    4.6803 C   0  0  0  0  0  0  0  0  0  0  0  0
    1.2234    0.3354    5.1909 C   0  0  0  0  0  0  0  0  0  0  0  0
    1.3883    0.9707    6.5448 C   0  0  0  0  0  0  0  0  0  0  0  0
    2.7771    0.4632    6.9740 C   0  0  1  0  0  0  0  0  0  0  0  0
    2.6642   -0.6989    7.9467 C   0  0  0  0  0  0  0  0  0  0  0  0
    3.2571   -0.8170    9.2337 C   0  0  0  0  0  0  0  0  0  0  0  0
    2.8693   -2.0303    9.7514 C   0  0  0  0  0  0  0  0  0  0  0  0
    2.0550   -2.6760    8.8771 O   0  0  0  0  0  0  0  0  0  0  0  0
    1.9393   -1.8636    7.7895 C   0  0  0  0  0  0  0  0  0  0  0  0
    3.5330    0.1832    5.6272 C   0  0  1  0  0  0  0  0  0  0  0  0
    4.1862    1.5192    5.1836 C   0  0  0  0  0  0  0  0  0  0  0  0
    8.1544   -0.7521    7.5644 H   0  0  0  0  0  0  0  0  0  0  0  0
    7.2895    0.7205    8.0956 H   0  0  0  0  0  0  0  0  0  0  0  0
    8.5566    0.8287    6.8674 H   0  0  0  0  0  0  0  0  0  0  0  0
    4.0269   -1.8344    6.1475 H   0  0  0  0  0  0  0  0  0  0  0  0
    5.4107   -0.7547    3.7018 H   0  0  0  0  0  0  0  0  0  0  0  0
    5.6158   -2.3242    4.4583 H   0  0  0  0  0  0  0  0  0  0  0  0
    3.2412   -2.8358    4.0930 H   0  0  0  0  0  0  0  0  0  0  0  0
    1.1973   -1.9658    1.9747 H   0  0  0  0  0  0  0  0  0  0  0  0
    0.4346   -0.7279    2.8662 H   0  0  0  0  0  0  0  0  0  0  0  0
    0.8739   -2.2359    3.6733 H   0  0  0  0  0  0  0  0  0  0  0  0
    2.2341    0.8248    2.0639 H   0  0  0  0  0  0  0  0  0  0  0  0
    3.8883    0.6715    2.5590 H   0  0  0  0  0  0  0  0  0  0  0  0
    2.5134   -1.0229    0.4719 H   0  0  0  0  0  0  0  0  0  0  0  0
    3.7437    0.1897    0.2331 H   0  0  0  0  0  0  0  0  0  0  0  0
    5.3865   -1.0962    1.4244 H   0  0  0  0  0  0  0  0  0  0  0  0
    5.9064   -2.7701   -0.1066 H   0  0  0  0  0  0  0  0  0  0  0  0
    5.4048   -0.3423   -1.2360 H   0  0  0  0  0  0  0  0  0  0  0  0
    5.8953   -1.7709   -2.1317 H   0  0  0  0  0  0  0  0  0  0  0  0
    3.0619   -0.6491   -1.9069 H   0  0  0  0  0  0  0  0  0  0  0  0
    4.0133   -5.1016   -1.6065 H   0  0  0  0  0  0  0  0  0  0  0  0
    6.2977   -3.0684    2.4659 H   0  0  0  0  0  0  0  0  0  0  0  0
    5.5773   -4.3511    1.5279 H   0  0  0  0  0  0  0  0  0  0  0  0
    5.2619   -4.2612    3.2443 H   0  0  0  0  0  0  0  0  0  0  0  0
    0.2483    0.2940    4.7274 H   0  0  0  0  0  0  0  0  0  0  0  0
    1.4107    2.0542    6.4209 H   0  0  0  0  0  0  0  0  0  0  0  0
    0.5960    0.7267    7.2518 H   0  0  0  0  0  0  0  0  0  0  0  0
    3.2892    1.2391    7.5423 H   0  0  0  0  0  0  0  0  0  0  0  0
    3.8962   -0.1075    9.7350 H   0  0  0  0  0  0  0  0  0  0  0  0
    3.0635   -2.5488   10.6714 H   0  0  0  0  0  0  0  0  0  0  0  0
    1.3159   -2.2500    7.0066 H   0  0  0  0  0  0  0  0  0  0  0  0
    4.8416    1.9070    5.9687 H   0  0  0  0  0  0  0  0  0  0  0  0
    3.4486    2.2885    4.9775 H   0  0  0  0  0  0  0  0  0  0  0  0
    4.8234    1.3703    4.3076 H   0  0  0  0  0  0  0  0  0  0  0  0
  1  2  1  0
  1 37  1  0
  1 38  1  0
  1 39  1  0
  2  3  2  0
  2  4  1  0
  4  5  1  0
  5 35  1  0
  5  6  1  0
  5 40  1  1
  6  7  1  0
  6 41  1  0
  6 42  1  0
  7 24  1  0
  7  8  1  0
  7 43  1  1
  8  9  1  6
  8 10  1  0
  8 26  1  0
  9 44  1  0
  9 45  1  0
  9 46  1  0
 10 11  1  0
 10 47  1  0
 10 48  1  0
 11 12  1  0
 11 49  1  0
 11 50  1  0
 12 24  1  0
 12 13  1  0
 12 51  1  1
 13 19  1  0
 13 14  1  0
 13 52  1  1
 14 15  1  0
 14 53  1  0
 14 54  1  0
 15 16  1  0
 15 17  1  0
 15 55  1  1
 17 18  2  0
 17 19  1  0
 19 20  1  6
 19 21  1  0
 20 56  1  0
 21 22  1  0
 22 23  2  0
 22 24  1  0
 24 25  1  1
 25 57  1  0
 25 58  1  0
 25 59  1  0
 26 35  1  0
 26 27  2  0
 27 28  1  0
 27 60  1  0
 28 29  1  0
 28 61  1  0
 28 62  1  0
 29 30  1  0
 29 35  1  0
 29 63  1  1
 30 34  2  0
 30 31  1  0
 31 32  2  0
 31 64  1  0
 32 33  1  0
 32 65  1  0
 33 34  1  0
 34 66  1  0
 35 36  1  6
 36 67  1  0
 36 68  1  0
 36 69  1  0
M  END
>  <i_m_ct_stereo_status>  (28) 
1

>  <s_m_source_file>  (28) 
/var/tmp/pbs.5076255.sched01/tmprv8ptrg5/026yimkau.sdf

>  <i_m_source_file_index>  (28) 
12

>  <i_lp_mmshare_version>  (28) 
48012

>  <i_f3d_flags>  (28) 
0

>  <s_epik_input>  (28) 
W0NIMl0xW0NAQEhdKENsKUMoPU8pW0NAXShbT0hdKShPQzI9TylbQ0BASF0xW0NAQEhdKFtDSDJdW0NIMl0zKVtDQEBdMihbQ0gzXSlbQ0BIXShbQ0BdMzRbQ0gzXSlbQ0gyXVtDQEBIXShPQyg9TylbQ0gzXSlbQ0BAXTUoW0NIM10pQzQ9W0NIXVtDSDJdW0NASF01YzZbY0hdW2NIXW9bY0hdNg==

>  <s_epik_cmdline>  (28) 
J2VwaWtfcHl0aG9uJywgJy1waHQnLCAnMi4wJywgJy1waCcsICc3LjAnLCAnLXRuJywgJzgnLCAnLW1hJywgJzIwMCcsICctaW1hZScsICc8aW5maWxlLm1hZT4nLCAnLW9tYWUnLCAnPG91dGZpbGUubWFlPic=

>  <r_lp_tautomer_probability>  (28) 
1

>  <r_epik_Ionization_Penalty>  (28) 
1.62945e-05

>  <r_epik_Ionization_Penalty_Charging>  (28) 
0

>  <r_epik_Ionization_Penalty_Neutral>  (28) 
1.62945e-05

>  <r_epik_State_Penalty>  (28) 
-0

>  <r_epik_Charging_Adjusted_Penalty>  (28) 
0

>  <i_epik_Tot_Q>  (28) 
0

>  <i_epik_Tot_abs_Q>  (28) 
0

>  <s_epik_Chemistry_Notes>  (28) 
This compound has an ester and may undergo hydrolysis at high or low pH.

>  <s_lp_Force_Field>  (28) 
OPLS3e

>  <r_lp_Energy>  (28) 
44.629

>  <b_lp_Chiralities_Consistent>  (28) 
1

>  <s_lp_Variant>  (28) 
9:0-1

>  <s_i_glide_gridfile>  (28) 
pfpi4k_grid

>  <i_i_glide_lignum>  (28) 
12

>  <i_i_glide_rotatable_bonds>  (28) 
4

>  <r_i_docking_score>  (28) 
-2.70567

>  <r_i_glide_ligand_efficiency>  (28) 
-0.0751576

>  <r_i_glide_ligand_efficiency_sa>  (28) 
-0.248165

>  <r_i_glide_ligand_efficiency_ln>  (28) 
-0.590305

>  <r_i_glide_gscore>  (28) 
-2.70567

>  <r_i_glide_lipo>  (28) 
-0.311976

>  <r_i_glide_hbond>  (28) 
0

>  <r_i_glide_metal>  (28) 
-0

>  <r_i_glide_rewards>  (28) 
-0.201971

>  <r_i_glide_evdw>  (28) 
-32.4037

>  <r_i_glide_ecoul>  (28) 
-4.65411

>  <r_i_glide_erotb>  (28) 
0.153605

>  <r_i_glide_esite>  (28) 
-0.0270308

>  <r_i_glide_emodel>  (28) 
-38.0741

>  <r_i_glide_energy>  (28) 
-37.0578

>  <r_i_glide_einternal>  (28) 
8.86302

>  <r_i_glide_intrahb_reward>  (28) 
-0

>  <i_i_glide_confnum>  (28) 
5

>  <i_i_glide_posenum>  (28) 
10

>  <r_i_glide_eff_state_penalty>  (28) 
0

>  <ligand_id>  (28) 
9

>  <original_smiles>  (28) 
CC(=O)OC1CC2C(C)(CCC3C4CC(Cl)C(=O)C4(O)OC(=O)C32C)C2=CCC(c3ccoc3)C21C

>  <smiles>  (28) 
[H]OC12OC(=O)C3(C([H])([H])[H])C([H])(C([H])([H])C([H])([H])C4(C([H])([H])[H])C5=C([H])C([H])([H])C([H])(c6c([H])oc([H])c6[H])C5(C([H])([H])[H])C([H])(OC(=O)C([H])([H])[H])C([H])([H])C43[H])C1([H])C([H])([H])C([H])(Cl)C2=O

$$$$
9:0:1
     RDKit          3D

 69 74  0  0  1  0  0  0  0  0999 V2000
    2.3034   -3.0462   -2.4691 C   0  0  0  0  0  0  0  0  0  0  0  0
    2.6110   -3.8380   -1.2231 C   0  0  0  0  0  0  0  0  0  0  0  0
    1.7497   -4.5503   -0.7132 O   0  0  0  0  0  0  0  0  0  0  0  0
    3.8998   -3.7648   -0.8498 O   0  0  0  0  0  0  0  0  0  0  0  0
    4.3897   -4.0576    0.4649 C   0  0  2  0  0  0  0  0  0  0  0  0
    3.8577   -5.3391    1.1176 C   0  0  0  0  0  0  0  0  0  0  0  0
    4.5688   -5.6911    2.4375 C   0  0  1  0  0  0  0  0  0  0  0  0
    4.4581   -4.4713    3.4545 C   0  0  2  0  0  0  0  0  0  0  0  0
    5.4936   -4.6105    4.5979 C   0  0  0  0  0  0  0  0  0  0  0  0
    3.0465   -4.4496    4.0824 C   0  0  0  0  0  0  0  0  0  0  0  0
    2.6153   -5.7919    4.6863 C   0  0  0  0  0  0  0  0  0  0  0  0
    2.6593   -6.9435    3.6534 C   0  0  2  0  0  0  0  0  0  0  0  0
    2.1689   -8.3055    4.1919 C   0  0  2  0  0  0  0  0  0  0  0  0
    0.9063   -8.2998    5.0844 C   0  0  0  0  0  0  0  0  0  0  0  0
    1.3873   -8.2676    6.5417 C   0  0  1  0  0  0  0  0  0  0  0  0
    0.2223   -9.0237    7.6644 Cl  0  0  0  0  0  0  0  0  0  0  0  0
    2.7193   -8.9880    6.4750 C   0  0  0  0  0  0  0  0  0  0  0  0
    3.2993   -9.4536    7.4601 O   0  0  0  0  0  0  0  0  0  0  0  0
    3.2528   -9.0092    5.0520 C   0  0  1  0  0  0  0  0  0  0  0  0
    3.3775  -10.3571    4.6451 O   0  0  0  0  0  0  0  0  0  0  0  0
    4.5237   -8.3811    5.0771 O   0  0  0  0  0  0  0  0  0  0  0  0
    5.0366   -7.7295    3.9809 C   0  0  0  0  0  0  0  0  0  0  0  0
    6.2461   -7.5974    3.8088 O   0  0  0  0  0  0  0  0  0  0  0  0
    4.0473   -7.1007    2.9720 C   0  0  2  0  0  0  0  0  0  0  0  0
    3.9731   -8.1407    1.8128 C   0  0  0  0  0  0  0  0  0  0  0  0
    4.7007   -3.0940    2.7648 C   0  0  0  0  0  0  0  0  0  0  0  0
    5.3552   -2.0318    3.2535 C   0  0  0  0  0  0  0  0  0  0  0  0
    5.4834   -0.8976    2.2748 C   0  0  0  0  0  0  0  0  0  0  0  0
    5.1825   -1.5843    0.9213 C   0  0  1  0  0  0  0  0  0  0  0  0
    6.4571   -1.9101    0.1271 C   0  0  0  0  0  0  0  0  0  0  0  0
    6.6073   -2.5579   -1.1485 C   0  0  0  0  0  0  0  0  0  0  0  0
    7.9329   -2.6848   -1.3938 C   0  0  0  0  0  0  0  0  0  0  0  0
    8.6438   -2.1083   -0.4026 O   0  0  0  0  0  0  0  0  0  0  0  0
    7.7537   -1.6082    0.4730 C   0  0  0  0  0  0  0  0  0  0  0  0
    4.2568   -2.7982    1.3418 C   0  0  1  0  0  0  0  0  0  0  0  0
    2.8000   -2.2703    1.3916 C   0  0  0  0  0  0  0  0  0  0  0  0
    2.8700   -3.4149   -3.3232 H   0  0  0  0  0  0  0  0  0  0  0  0
    2.5292   -1.9968   -2.2884 H   0  0  0  0  0  0  0  0  0  0  0  0
    1.2425   -3.1355   -2.6646 H   0  0  0  0  0  0  0  0  0  0  0  0
    5.4487   -4.2770    0.3443 H   0  0  0  0  0  0  0  0  0  0  0  0
    2.8058   -5.2633    1.3616 H   0  0  0  0  0  0  0  0  0  0  0  0
    3.9773   -6.1192    0.3665 H   0  0  0  0  0  0  0  0  0  0  0  0
    5.6255   -5.8029    2.1783 H   0  0  0  0  0  0  0  0  0  0  0  0
    5.3445   -5.4820    5.2232 H   0  0  0  0  0  0  0  0  0  0  0  0
    5.4649   -3.7713    5.2921 H   0  0  0  0  0  0  0  0  0  0  0  0
    6.5021   -4.6862    4.1933 H   0  0  0  0  0  0  0  0  0  0  0  0
    2.9982   -3.6760    4.8497 H   0  0  0  0  0  0  0  0  0  0  0  0
    2.3003   -4.1694    3.3456 H   0  0  0  0  0  0  0  0  0  0  0  0
    3.2358   -6.0265    5.5501 H   0  0  0  0  0  0  0  0  0  0  0  0
    1.6008   -5.6664    5.0650 H   0  0  0  0  0  0  0  0  0  0  0  0
    1.9465   -6.6688    2.8757 H   0  0  0  0  0  0  0  0  0  0  0  0
    1.9463   -8.9351    3.3341 H   0  0  0  0  0  0  0  0  0  0  0  0
    0.2009   -7.4999    4.8484 H   0  0  0  0  0  0  0  0  0  0  0  0
    0.3766   -9.2437    4.9310 H   0  0  0  0  0  0  0  0  0  0  0  0
    1.5530   -7.2534    6.8854 H   0  0  0  0  0  0  0  0  0  0  0  0
    2.5568  -10.8014    4.8090 H   0  0  0  0  0  0  0  0  0  0  0  0
    3.0988   -7.9834    1.1787 H   0  0  0  0  0  0  0  0  0  0  0  0
    3.9145   -9.1757    2.1546 H   0  0  0  0  0  0  0  0  0  0  0  0
    4.8547   -8.0898    1.1705 H   0  0  0  0  0  0  0  0  0  0  0  0
    5.7862   -1.9465    4.2336 H   0  0  0  0  0  0  0  0  0  0  0  0
    4.7166   -0.1549    2.5082 H   0  0  0  0  0  0  0  0  0  0  0  0
    6.4401   -0.3773    2.3453 H   0  0  0  0  0  0  0  0  0  0  0  0
    4.6362   -0.8918    0.2800 H   0  0  0  0  0  0  0  0  0  0  0  0
    5.8615   -2.9473   -1.8365 H   0  0  0  0  0  0  0  0  0  0  0  0
    8.5085   -3.1248   -2.1962 H   0  0  0  0  0  0  0  0  0  0  0  0
    8.2264   -1.0598    1.2786 H   0  0  0  0  0  0  0  0  0  0  0  0
    2.5491   -1.7759    0.4564 H   0  0  0  0  0  0  0  0  0  0  0  0
    2.6397   -1.5237    2.1698 H   0  0  0  0  0  0  0  0  0  0  0  0
    2.0843   -3.0763    1.5382 H   0  0  0  0  0  0  0  0  0  0  0  0
  1  2  1  0
  1 37  1  0
  1 38  1  0
  1 39  1  0
  2  3  2  0
  2  4  1  0
  4  5  1  0
  5 35  1  0
  5  6  1  0
  5 40  1  6
  6  7  1  0
  6 41  1  0
  6 42  1  0
  7 24  1  0
  7  8  1  0
  7 43  1  6
  8  9  1  1
  8 10  1  0
  8 26  1  0
  9 44  1  0
  9 45  1  0
  9 46  1  0
 10 11  1  0
 10 47  1  0
 10 48  1  0
 11 12  1  0
 11 49  1  0
 11 50  1  0
 12 24  1  0
 12 13  1  0
 12 51  1  6
 13 19  1  0
 13 14  1  0
 13 52  1  6
 14 15  1  0
 14 53  1  0
 14 54  1  0
 15 16  1  0
 15 17  1  0
 15 55  1  1
 17 18  2  0
 17 19  1  0
 19 20  1  6
 19 21  1  0
 20 56  1  0
 21 22  1  0
 22 23  2  0
 22 24  1  0
 24 25  1  6
 25 57  1  0
 25 58  1  0
 25 59  1  0
 26 35  1  0
 26 27  2  0
 27 28  1  0
 27 60  1  0
 28 29  1  0
 28 61  1  0
 28 62  1  0
 29 30  1  0
 29 35  1  0
 29 63  1  6
 30 34  2  0
 30 31  1  0
 31 32  2  0
 31 64  1  0
 32 33  1  0
 32 65  1  0
 33 34  1  0
 34 66  1  0
 35 36  1  1
 36 67  1  0
 36 68  1  0
 36 69  1  0
M  END
>  <i_m_ct_stereo_status>  (29) 
1

>  <s_m_source_file>  (29) 
/var/tmp/pbs.5076255.sched01/tmprv8ptrg5/026yimkau.sdf

>  <i_m_source_file_index>  (29) 
12

>  <i_lp_mmshare_version>  (29) 
48012

>  <i_f3d_flags>  (29) 
0

>  <s_epik_input>  (29) 
W0NIMl0xW0NAQEhdKENsKUMoPU8pW0NAXShbT0hdKShPQzI9TylbQ0BASF0xW0NAQEhdKFtDSDJdW0NIMl0zKVtDQEBdMihbQ0gzXSlbQ0BIXShbQ0BdMzRbQ0gzXSlbQ0gyXVtDQEBIXShPQyg9TylbQ0gzXSlbQ0BAXTUoW0NIM10pQzQ9W0NIXVtDSDJdW0NASF01YzZbY0hdW2NIXW9bY0hdNg==

>  <s_epik_cmdline>  (29) 
J2VwaWtfcHl0aG9uJywgJy1waHQnLCAnMi4wJywgJy1waCcsICc3LjAnLCAnLXRuJywgJzgnLCAnLW1hJywgJzIwMCcsICctaW1hZScsICc8aW5maWxlLm1hZT4nLCAnLW9tYWUnLCAnPG91dGZpbGUubWFlPic=

>  <r_lp_tautomer_probability>  (29) 
1

>  <r_epik_Ionization_Penalty>  (29) 
1.62945e-05

>  <r_epik_Ionization_Penalty_Charging>  (29) 
0

>  <r_epik_Ionization_Penalty_Neutral>  (29) 
1.62945e-05

>  <r_epik_State_Penalty>  (29) 
-0

>  <r_epik_Charging_Adjusted_Penalty>  (29) 
0

>  <i_epik_Tot_Q>  (29) 
0

>  <i_epik_Tot_abs_Q>  (29) 
0

>  <s_epik_Chemistry_Notes>  (29) 
This compound has an ester and may undergo hydrolysis at high or low pH.

>  <s_lp_Force_Field>  (29) 
OPLS3e

>  <r_lp_Energy>  (29) 
44.629

>  <b_lp_Chiralities_Consistent>  (29) 
1

>  <s_lp_Variant>  (29) 
9:0-1

>  <s_i_glide_gridfile>  (29) 
pfpi4k_grid

>  <i_i_glide_lignum>  (29) 
12

>  <i_i_glide_rotatable_bonds>  (29) 
4

>  <r_i_docking_score>  (29) 
-2.27409

>  <r_i_glide_ligand_efficiency>  (29) 
-0.0631691

>  <r_i_glide_ligand_efficiency_sa>  (29) 
-0.20858

>  <r_i_glide_ligand_efficiency_ln>  (29) 
-0.496145

>  <r_i_glide_gscore>  (29) 
-2.27409

>  <r_i_glide_lipo>  (29) 
-0.400996

>  <r_i_glide_hbond>  (29) 
-0.0876052

>  <r_i_glide_metal>  (29) 
-0

>  <r_i_glide_rewards>  (29) 
0

>  <r_i_glide_evdw>  (29) 
-24.8966

>  <r_i_glide_ecoul>  (29) 
-4.30729

>  <r_i_glide_erotb>  (29) 
0.153605

>  <r_i_glide_esite>  (29) 
-0.0481672

>  <r_i_glide_emodel>  (29) 
-26.0373

>  <r_i_glide_energy>  (29) 
-29.2039

>  <r_i_glide_einternal>  (29) 
14.5259

>  <r_i_glide_intrahb_reward>  (29) 
-0

>  <i_i_glide_confnum>  (29) 
5

>  <i_i_glide_posenum>  (29) 
5

>  <r_i_glide_eff_state_penalty>  (29) 
0

>  <ligand_id>  (29) 
9

>  <original_smiles>  (29) 
CC(=O)OC1CC2C(C)(CCC3C4CC(Cl)C(=O)C4(O)OC(=O)C32C)C2=CCC(c3ccoc3)C21C

>  <smiles>  (29) 
[H]OC12OC(=O)C3(C([H])([H])[H])C([H])(C([H])([H])C([H])([H])C4(C([H])([H])[H])C5=C([H])C([H])([H])C([H])(c6c([H])oc([H])c6[H])C5(C([H])([H])[H])C([H])(OC(=O)C([H])([H])[H])C([H])([H])C43[H])C1([H])C([H])([H])C([H])(Cl)C2=O

$$$$
9:0:2
     RDKit          3D

 69 74  0  0  1  0  0  0  0  0999 V2000
    2.4293   -3.0308   -2.6843 C   0  0  0  0  0  0  0  0  0  0  0  0
    2.6602   -3.7405   -1.3577 C   0  0  0  0  0  0  0  0  0  0  0  0
    1.7466   -4.2892   -0.7554 O   0  0  0  0  0  0  0  0  0  0  0  0
    3.9398   -3.7180   -0.9789 O   0  0  0  0  0  0  0  0  0  0  0  0
    4.4006   -4.0413    0.3401 C   0  0  2  0  0  0  0  0  0  0  0  0
    3.8093   -5.3228    0.9407 C   0  0  0  0  0  0  0  0  0  0  0  0
    4.4928   -5.7403    2.2576 C   0  0  1  0  0  0  0  0  0  0  0  0
    4.4055   -4.5575    3.3186 C   0  0  2  0  0  0  0  0  0  0  0  0
    5.4164   -4.7648    4.4757 C   0  0  0  0  0  0  0  0  0  0  0  0
    2.9814   -4.5196    3.9255 C   0  0  0  0  0  0  0  0  0  0  0  0
    2.5014   -5.8702    4.4751 C   0  0  0  0  0  0  0  0  0  0  0  0
    2.5334   -6.9864    3.4000 C   0  0  2  0  0  0  0  0  0  0  0  0
    1.9979   -8.3552    3.8842 C   0  0  2  0  0  0  0  0  0  0  0  0
    0.7173   -8.3446    4.7553 C   0  0  0  0  0  0  0  0  0  0  0  0
    1.1743   -8.3699    6.2249 C   0  0  1  0  0  0  0  0  0  0  0  0
   -0.0229   -9.1447    7.2962 Cl  0  0  0  0  0  0  0  0  0  0  0  0
    2.4932   -9.1268    6.1557 C   0  0  0  0  0  0  0  0  0  0  0  0
    3.0462   -9.6511    7.1213 O   0  0  0  0  0  0  0  0  0  0  0  0
    3.0539   -9.1068    4.7460 C   0  0  1  0  0  0  0  0  0  0  0  0
    3.1635  -10.4405    4.3049 O   0  0  0  0  0  0  0  0  0  0  0  0
    4.3380   -8.5220    4.8010 O   0  0  0  0  0  0  0  0  0  0  0  0
    4.8841   -7.8507    3.7422 C   0  0  0  0  0  0  0  0  0  0  0  0
    6.1048   -7.7545    3.6106 O   0  0  0  0  0  0  0  0  0  0  0  0
    3.9313   -7.1550    2.7369 C   0  0  2  0  0  0  0  0  0  0  0  0
    3.8523   -8.1556    1.5460 C   0  0  0  0  0  0  0  0  0  0  0  0
    4.7027   -3.1676    2.6796 C   0  0  0  0  0  0  0  0  0  0  0  0
    5.3766   -2.1423    3.2219 C   0  0  0  0  0  0  0  0  0  0  0  0
    5.5499   -0.9782    2.2873 C   0  0  0  0  0  0  0  0  0  0  0  0
    5.2569   -1.6082    0.9031 C   0  0  1  0  0  0  0  0  0  0  0  0
    6.5466   -1.9374    0.1168 C   0  0  0  0  0  0  0  0  0  0  0  0
    6.7005   -2.6132   -1.1441 C   0  0  0  0  0  0  0  0  0  0  0  0
    8.0387   -2.7360   -1.3672 C   0  0  0  0  0  0  0  0  0  0  0  0
    8.7378   -2.1458   -0.3823 O   0  0  0  0  0  0  0  0  0  0  0  0
    7.8292   -1.6188    0.4693 C   0  0  0  0  0  0  0  0  0  0  0  0
    4.2888   -2.8079    1.2587 C   0  0  1  0  0  0  0  0  0  0  0  0
    2.8429   -2.2358    1.3031 C   0  0  0  0  0  0  0  0  0  0  0  0
    2.9861   -3.5082   -3.4897 H   0  0  0  0  0  0  0  0  0  0  0  0
    2.7178   -1.9827   -2.6054 H   0  0  0  0  0  0  0  0  0  0  0  0
    1.3715   -3.0716   -2.9171 H   0  0  0  0  0  0  0  0  0  0  0  0
    5.4596   -4.2866    0.2466 H   0  0  0  0  0  0  0  0  0  0  0  0
    2.7451   -5.2264    1.1415 H   0  0  0  0  0  0  0  0  0  0  0  0
    3.9333   -6.0832    0.1733 H   0  0  0  0  0  0  0  0  0  0  0  0
    5.5540   -5.8750    2.0210 H   0  0  0  0  0  0  0  0  0  0  0  0
    5.2331   -5.6521    5.0701 H   0  0  0  0  0  0  0  0  0  0  0  0
    5.3967   -3.9508    5.2018 H   0  0  0  0  0  0  0  0  0  0  0  0
    6.4317   -4.8514    4.0871 H   0  0  0  0  0  0  0  0  0  0  0  0
    2.9382   -3.7720    4.7212 H   0  0  0  0  0  0  0  0  0  0  0  0
    2.2550   -4.1956    3.1879 H   0  0  0  0  0  0  0  0  0  0  0  0
    3.0986   -6.1528    5.3431 H   0  0  0  0  0  0  0  0  0  0  0  0
    1.4848   -5.7323    4.8423 H   0  0  0  0  0  0  0  0  0  0  0  0
    1.8414   -6.6646    2.6210 H   0  0  0  0  0  0  0  0  0  0  0  0
    1.7765   -8.9539    3.0004 H   0  0  0  0  0  0  0  0  0  0  0  0
    0.0408   -7.5180    4.5307 H   0  0  0  0  0  0  0  0  0  0  0  0
    0.1638   -9.2703    4.5556 H   0  0  0  0  0  0  0  0  0  0  0  0
    1.3644   -7.3630    6.5994 H   0  0  0  0  0  0  0  0  0  0  0  0
    3.6256  -10.9374    4.9684 H   0  0  0  0  0  0  0  0  0  0  0  0
    2.9945   -7.9540    0.9032 H   0  0  0  0  0  0  0  0  0  0  0  0
    3.7575   -9.2029    1.8510 H   0  0  0  0  0  0  0  0  0  0  0  0
    4.7460   -8.1062    0.9227 H   0  0  0  0  0  0  0  0  0  0  0  0
    5.7866   -2.0974    4.2183 H   0  0  0  0  0  0  0  0  0  0  0  0
    4.7989   -0.2196    2.5323 H   0  0  0  0  0  0  0  0  0  0  0  0
    6.5193   -0.4955    2.3918 H   0  0  0  0  0  0  0  0  0  0  0  0
    4.7425   -0.8802    0.2818 H   0  0  0  0  0  0  0  0  0  0  0  0
    5.9589   -3.0115   -1.8198 H   0  0  0  0  0  0  0  0  0  0  0  0
    8.6200   -3.1853   -2.1626 H   0  0  0  0  0  0  0  0  0  0  0  0
    8.2832   -1.0627    1.2746 H   0  0  0  0  0  0  0  0  0  0  0  0
    2.6128   -1.7162    0.3730 H   0  0  0  0  0  0  0  0  0  0  0  0
    2.6982   -1.5129    2.1054 H   0  0  0  0  0  0  0  0  0  0  0  0
    2.1030   -3.0268    1.4224 H   0  0  0  0  0  0  0  0  0  0  0  0
  1  2  1  0
  1 37  1  0
  1 38  1  0
  1 39  1  0
  2  3  2  0
  2  4  1  0
  4  5  1  0
  5 35  1  0
  5  6  1  0
  5 40  1  6
  6  7  1  0
  6 41  1  0
  6 42  1  0
  7 24  1  0
  7  8  1  0
  7 43  1  6
  8  9  1  1
  8 10  1  0
  8 26  1  0
  9 44  1  0
  9 45  1  0
  9 46  1  0
 10 11  1  0
 10 47  1  0
 10 48  1  0
 11 12  1  0
 11 49  1  0
 11 50  1  0
 12 24  1  0
 12 13  1  0
 12 51  1  6
 13 19  1  0
 13 14  1  0
 13 52  1  6
 14 15  1  0
 14 53  1  0
 14 54  1  0
 15 16  1  0
 15 17  1  0
 15 55  1  1
 17 18  2  0
 17 19  1  0
 19 20  1  6
 19 21  1  0
 20 56  1  0
 21 22  1  0
 22 23  2  0
 22 24  1  0
 24 25  1  6
 25 57  1  0
 25 58  1  0
 25 59  1  0
 26 35  1  0
 26 27  2  0
 27 28  1  0
 27 60  1  0
 28 29  1  0
 28 61  1  0
 28 62  1  0
 29 30  1  0
 29 35  1  0
 29 63  1  6
 30 34  2  0
 30 31  1  0
 31 32  2  0
 31 64  1  0
 32 33  1  0
 32 65  1  0
 33 34  1  0
 34 66  1  0
 35 36  1  1
 36 67  1  0
 36 68  1  0
 36 69  1  0
M  END
>  <i_m_ct_stereo_status>  (30) 
1

>  <s_m_source_file>  (30) 
/var/tmp/pbs.5076255.sched01/tmprv8ptrg5/026yimkau.sdf

>  <i_m_source_file_index>  (30) 
12

>  <i_lp_mmshare_version>  (30) 
48012

>  <i_f3d_flags>  (30) 
0

>  <s_epik_input>  (30) 
W0NIMl0xW0NAQEhdKENsKUMoPU8pW0NAXShbT0hdKShPQzI9TylbQ0BASF0xW0NAQEhdKFtDSDJdW0NIMl0zKVtDQEBdMihbQ0gzXSlbQ0BIXShbQ0BdMzRbQ0gzXSlbQ0gyXVtDQEBIXShPQyg9TylbQ0gzXSlbQ0BAXTUoW0NIM10pQzQ9W0NIXVtDSDJdW0NASF01YzZbY0hdW2NIXW9bY0hdNg==

>  <s_epik_cmdline>  (30) 
J2VwaWtfcHl0aG9uJywgJy1waHQnLCAnMi4wJywgJy1waCcsICc3LjAnLCAnLXRuJywgJzgnLCAnLW1hJywgJzIwMCcsICctaW1hZScsICc8aW5maWxlLm1hZT4nLCAnLW9tYWUnLCAnPG91dGZpbGUubWFlPic=

>  <r_lp_tautomer_probability>  (30) 
1

>  <r_epik_Ionization_Penalty>  (30) 
1.62945e-05

>  <r_epik_Ionization_Penalty_Charging>  (30) 
0

>  <r_epik_Ionization_Penalty_Neutral>  (30) 
1.62945e-05

>  <r_epik_State_Penalty>  (30) 
-0

>  <r_epik_Charging_Adjusted_Penalty>  (30) 
0

>  <i_epik_Tot_Q>  (30) 
0

>  <i_epik_Tot_abs_Q>  (30) 
0

>  <s_epik_Chemistry_Notes>  (30) 
This compound has an ester and may undergo hydrolysis at high or low pH.

>  <s_lp_Force_Field>  (30) 
OPLS3e

>  <r_lp_Energy>  (30) 
44.629

>  <b_lp_Chiralities_Consistent>  (30) 
1

>  <s_lp_Variant>  (30) 
9:0-1

>  <s_i_glide_gridfile>  (30) 
pfpi4k_grid

>  <i_i_glide_lignum>  (30) 
12

>  <i_i_glide_rotatable_bonds>  (30) 
4

>  <r_i_docking_score>  (30) 
-2.07958

>  <r_i_glide_ligand_efficiency>  (30) 
-0.0577661

>  <r_i_glide_ligand_efficiency_sa>  (30) 
-0.190739

>  <r_i_glide_ligand_efficiency_ln>  (30) 
-0.453708

>  <r_i_glide_gscore>  (30) 
-2.07958

>  <r_i_glide_lipo>  (30) 
-0.384592

>  <r_i_glide_hbond>  (30) 
-0.058338

>  <r_i_glide_metal>  (30) 
-0

>  <r_i_glide_rewards>  (30) 
-0.00392577

>  <r_i_glide_evdw>  (30) 
-25.176

>  <r_i_glide_ecoul>  (30) 
-3.26008

>  <r_i_glide_erotb>  (30) 
0.153605

>  <r_i_glide_esite>  (30) 
-0.038516

>  <r_i_glide_emodel>  (30) 
-25.9226

>  <r_i_glide_energy>  (30) 
-28.4361

>  <r_i_glide_einternal>  (30) 
12.7025

>  <r_i_glide_intrahb_reward>  (30) 
-0

>  <i_i_glide_confnum>  (30) 
5

>  <i_i_glide_posenum>  (30) 
1

>  <r_i_glide_eff_state_penalty>  (30) 
0

>  <ligand_id>  (30) 
9

>  <original_smiles>  (30) 
CC(=O)OC1CC2C(C)(CCC3C4CC(Cl)C(=O)C4(O)OC(=O)C32C)C2=CCC(c3ccoc3)C21C

>  <smiles>  (30) 
[H]OC12OC(=O)C3(C([H])([H])[H])C([H])(C([H])([H])C([H])([H])C4(C([H])([H])[H])C5=C([H])C([H])([H])C([H])(c6c([H])oc([H])c6[H])C5(C([H])([H])[H])C([H])(OC(=O)C([H])([H])[H])C([H])([H])C43[H])C1([H])C([H])([H])C([H])(Cl)C2=O

$$$$
10:0:0
     RDKit          3D

100107  0  0  1  0  0  0  0  0999 V2000
    4.1546    4.6899    5.2503 C   0  0  0  0  0  0  0  0  0  0  0  0
    2.8577    4.0620    5.8074 C   0  0  0  0  0  0  0  0  0  0  0  0
    2.8034    4.3748    7.3163 C   0  0  0  0  0  0  0  0  0  0  0  0
    2.7691    2.5162    5.5133 C   0  0  2  0  0  0  0  0  0  0  0  0
    3.0824    1.9336    4.1697 C   0  0  2  0  0  0  0  0  0  0  0  0
    1.8882    2.7967    3.4581 C   0  0  1  0  0  0  0  0  0  0  0  0
    1.8171    2.4982    2.0876 O   0  0  0  0  0  0  0  0  0  0  0  0
    0.4445    2.7032    4.2230 C   0  0  1  0  0  0  0  0  0  0  0  0
   -0.6509    3.4796    3.4762 C   0  0  0  0  0  0  0  0  0  0  0  0
   -0.3518    4.8485    3.2746 O   0  0  0  0  0  0  0  0  0  0  0  0
    0.3969    1.3088    4.4008 C   0  0  2  0  0  0  0  0  0  0  0  0
   -1.0090    0.5991    4.3513 C   0  0  0  0  0  0  0  0  0  0  0  0
   -1.5665    0.4677    5.7233 C   0  0  1  0  0  0  0  0  0  0  0  0
   -1.9088   -0.8677    5.9983 O   0  0  0  0  0  0  0  0  0  0  0  0
   -0.5040    1.0550    6.6433 C   0  0  2  0  0  0  0  0  0  0  0  0
   -1.1583    1.4553    8.0152 C   0  0  0  0  0  0  0  0  0  0  0  0
   -2.3837    2.1571    7.8900 O   0  0  0  0  0  0  0  0  0  0  0  0
    0.0996    2.4043    5.8303 C   0  0  1  0  0  0  0  0  0  0  0  0
    1.3970    1.8427    5.7307 C   0  0  2  0  0  0  0  0  0  0  0  0
    1.5972    1.1624    7.0076 C   0  0  0  0  0  0  0  0  0  0  0  0
    0.7964   -0.0355    6.7994 C   0  0  1  0  0  0  0  0  0  0  0  0
    1.2990   -0.9482    8.0554 C   0  0  1  0  0  0  0  0  0  0  0  0
    0.2195   -1.6983    8.5849 O   0  0  0  0  0  0  0  0  0  0  0  0
    2.6100   -1.9372    7.7976 C   0  0  0  0  0  0  0  0  0  0  0  0
    2.9155   -2.3195    6.2408 C   0  0  2  0  0  0  0  0  0  0  0  0
    1.7389   -3.4525    6.3789 C   0  0  0  0  0  0  0  0  0  0  0  0
    3.9553   -3.2337    5.4765 C   0  0  0  0  0  0  0  0  0  0  0  0
    5.4628   -2.9197    5.5961 C   0  0  0  0  0  0  0  0  0  0  0  0
    3.9201   -4.7926    5.5817 C   0  0  0  0  0  0  0  0  0  0  0  0
    3.6107   -2.8855    4.1242 O   0  0  0  0  0  0  0  0  0  0  0  0
    2.2654   -2.7035    3.5855 C   0  0  1  0  0  0  0  0  0  0  0  0
    1.1617   -1.6908    4.2257 C   0  0  0  0  0  0  0  0  0  0  0  0
    1.5247   -0.7337    5.5210 C   0  0  1  0  0  0  0  0  0  0  0  0
    3.0657   -0.7623    5.5782 C   0  0  1  0  0  0  0  0  0  0  0  0
    4.2547   -0.1412    6.4682 C   0  0  0  0  0  0  0  0  0  0  0  0
    3.3139    0.2207    4.1673 C   0  0  2  0  0  0  0  0  0  0  0  0
    4.5529   -0.0336    3.2244 C   0  0  1  0  0  0  0  0  0  0  0  0
    5.8153    0.1219    3.8506 O   0  0  0  0  0  0  0  0  0  0  0  0
    4.6315   -1.1960    2.1894 C   0  0  0  0  0  0  0  0  0  0  0  0
    3.3644   -1.5737    1.3619 C   0  0  1  0  0  0  0  0  0  0  0  0
    2.6558   -0.4013    1.0281 O   0  0  0  0  0  0  0  0  0  0  0  0
    3.8120   -2.0651   -0.0413 C   0  0  0  0  0  0  0  0  0  0  0  0
    2.7509   -2.6543   -0.7861 O   0  0  0  0  0  0  0  0  0  0  0  0
    2.4490   -2.6368    2.0446 C   0  0  0  0  0  0  0  0  0  0  0  0
    5.0456    4.1884    5.6316 H   0  0  0  0  0  0  0  0  0  0  0  0
    4.2384    5.7446    5.5143 H   0  0  0  0  0  0  0  0  0  0  0  0
    4.1915    4.6490    4.1631 H   0  0  0  0  0  0  0  0  0  0  0  0
    2.0215    4.6087    5.3710 H   0  0  0  0  0  0  0  0  0  0  0  0
    3.6259    3.8970    7.8527 H   0  0  0  0  0  0  0  0  0  0  0  0
    1.8711    4.0454    7.7698 H   0  0  0  0  0  0  0  0  0  0  0  0
    2.8840    5.4486    7.4973 H   0  0  0  0  0  0  0  0  0  0  0  0
    3.5521    2.1919    6.1751 H   0  0  0  0  0  0  0  0  0  0  0  0
    4.0228    2.3760    3.8551 H   0  0  0  0  0  0  0  0  0  0  0  0
    2.1907    3.8404    3.3900 H   0  0  0  0  0  0  0  0  0  0  0  0
    1.2347    3.1181    1.6463 H   0  0  0  0  0  0  0  0  0  0  0  0
   -0.8933    3.0187    2.5152 H   0  0  0  0  0  0  0  0  0  0  0  0
   -1.5729    3.4481    4.0624 H   0  0  0  0  0  0  0  0  0  0  0  0
   -0.0518    4.8993    2.3644 H   0  0  0  0  0  0  0  0  0  0  0  0
    0.8840    0.8844    3.5523 H   0  0  0  0  0  0  0  0  0  0  0  0
   -1.7134    1.1386    3.7202 H   0  0  0  0  0  0  0  0  0  0  0  0
   -0.9754   -0.3686    3.8667 H   0  0  0  0  0  0  0  0  0  0  0  0
   -2.4721    1.0686    5.6985 H   0  0  0  0  0  0  0  0  0  0  0  0
   -1.1702   -1.4089    5.7797 H   0  0  0  0  0  0  0  0  0  0  0  0
   -1.3226    0.5548    8.6111 H   0  0  0  0  0  0  0  0  0  0  0  0
   -0.5731    2.1262    8.6360 H   0  0  0  0  0  0  0  0  0  0  0  0
   -2.2318    2.9744    7.4451 H   0  0  0  0  0  0  0  0  0  0  0  0
    0.1428    3.3108    6.4182 H   0  0  0  0  0  0  0  0  0  0  0  0
    2.5438    1.0735    7.4483 H   0  0  0  0  0  0  0  0  0  0  0  0
    1.2633    1.7925    7.8259 H   0  0  0  0  0  0  0  0  0  0  0  0
    1.5625   -0.3152    8.9049 H   0  0  0  0  0  0  0  0  0  0  0  0
    0.5313   -2.1345    9.3623 H   0  0  0  0  0  0  0  0  0  0  0  0
    3.4811   -1.5390    8.3077 H   0  0  0  0  0  0  0  0  0  0  0  0
    2.5115   -2.8119    8.4461 H   0  0  0  0  0  0  0  0  0  0  0  0
    1.3870   -3.9751    5.5091 H   0  0  0  0  0  0  0  0  0  0  0  0
    0.7957   -3.1864    6.8381 H   0  0  0  0  0  0  0  0  0  0  0  0
    2.0360   -4.2611    7.0475 H   0  0  0  0  0  0  0  0  0  0  0  0
    5.7972   -2.9146    6.6341 H   0  0  0  0  0  0  0  0  0  0  0  0
    5.7295   -1.9835    5.1198 H   0  0  0  0  0  0  0  0  0  0  0  0
    6.0823   -3.6451    5.0733 H   0  0  0  0  0  0  0  0  0  0  0  0
    4.0783   -5.1261    6.6073 H   0  0  0  0  0  0  0  0  0  0  0  0
    4.7083   -5.2496    4.9871 H   0  0  0  0  0  0  0  0  0  0  0  0
    3.0200   -5.2616    5.1922 H   0  0  0  0  0  0  0  0  0  0  0  0
    1.8217   -3.6955    3.6191 H   0  0  0  0  0  0  0  0  0  0  0  0
    0.8606   -1.1272    3.3517 H   0  0  0  0  0  0  0  0  0  0  0  0
    0.2555   -2.2837    4.3882 H   0  0  0  0  0  0  0  0  0  0  0  0
    0.8787   -1.4446    5.9497 H   0  0  0  0  0  0  0  0  0  0  0  0
    4.8089    0.6579    5.9866 H   0  0  0  0  0  0  0  0  0  0  0  0
    5.0471   -0.8433    6.6522 H   0  0  0  0  0  0  0  0  0  0  0  0
    4.1581    0.1531    7.5056 H   0  0  0  0  0  0  0  0  0  0  0  0
    2.6117   -0.0499    3.4206 H   0  0  0  0  0  0  0  0  0  0  0  0
    4.4792    0.7970    2.5350 H   0  0  0  0  0  0  0  0  0  0  0  0
    6.4951    0.0811    3.2022 H   0  0  0  0  0  0  0  0  0  0  0  0
    5.3797   -0.8604    1.4683 H   0  0  0  0  0  0  0  0  0  0  0  0
    5.1124   -2.0753    2.6122 H   0  0  0  0  0  0  0  0  0  0  0  0
    1.9507   -0.5994    0.4141 H   0  0  0  0  0  0  0  0  0  0  0  0
    4.2332   -1.2494   -0.6306 H   0  0  0  0  0  0  0  0  0  0  0  0
    4.6019   -2.8110    0.0470 H   0  0  0  0  0  0  0  0  0  0  0  0
    2.0370   -2.0158   -0.8964 H   0  0  0  0  0  0  0  0  0  0  0  0
    2.8598   -3.6090    1.7568 H   0  0  0  0  0  0  0  0  0  0  0  0
    1.4670   -2.6013    1.5847 H   0  0  0  0  0  0  0  0  0  0  0  0
  1  2  1  0
  1 45  1  0
  1 46  1  0
  1 47  1  0
  2  3  1  0
  2  4  1  0
  2 48  1  0
  3 49  1  0
  3 50  1  0
  3 51  1  0
  4 19  1  0
  4  5  1  0
  4 52  1  1
  5 36  1  0
  5  6  1  0
  5 53  1  6
  6  7  1  0
  6  8  1  0
  6 54  1  6
  7 55  1  0
  8 18  1  0
  8  9  1  6
  8 11  1  0
  9 10  1  0
  9 56  1  0
  9 57  1  0
 10 58  1  0
 11 19  1  0
 11 12  1  0
 11 59  1  6
 12 13  1  0
 12 60  1  0
 12 61  1  0
 13 14  1  0
 13 15  1  0
 13 62  1  6
 14 63  1  0
 15 21  1  0
 15 16  1  1
 15 18  1  0
 16 17  1  0
 16 64  1  0
 16 65  1  0
 17 66  1  0
 18 19  1  0
 18 67  1  1
 19 20  1  1
 21 20  1  1
 20 68  1  0
 20 69  1  0
 21 33  1  0
 21 22  1  0
 22 23  1  0
 22 24  1  0
 22 70  1  1
 23 71  1  0
 24 25  1  0
 24 72  1  0
 24 73  1  0
 25 34  1  0
 25 26  1  6
 25 27  1  0
 26 74  1  0
 26 75  1  0
 26 76  1  0
 27 28  1  0
 27 29  1  0
 27 30  1  0
 28 77  1  0
 28 78  1  0
 28 79  1  0
 29 80  1  0
 29 81  1  0
 29 82  1  0
 30 31  1  0
 31 44  1  0
 31 32  1  0
 31 83  1  6
 32 33  1  0
 32 84  1  0
 32 85  1  0
 33 34  1  0
 33 86  1  6
 34 35  1  1
 34 36  1  0
 35 87  1  0
 35 88  1  0
 35 89  1  0
 36 37  1  0
 36 90  1  6
 37 38  1  0
 37 39  1  0
 37 91  1  6
 38 92  1  0
 39 40  1  0
 39 93  1  0
 39 94  1  0
 40 41  1  6
 40 42  1  0
 40 44  1  0
 41 95  1  0
 42 43  1  0
 42 96  1  0
 42 97  1  0
 43 98  1  0
 44 99  1  0
 44100  1  0
M  END
>  <i_m_ct_stereo_status>  (31) 
1

>  <s_m_source_file>  (31) 
/var/tmp/pbs.5076255.sched01/tmprv8ptrg5/026yimkau.sdf

>  <i_m_source_file_index>  (31) 
13

>  <i_lp_mmshare_version>  (31) 
48012

>  <i_f3d_flags>  (31) 
0

>  <s_epik_input>  (31) 
W0NIM11bQ0hdKFtDSDNdKVtDQEBIXTFbQ0BIXShbQ0BIXTJbT0hdKVtDQEhdM1tDQEBIXShbT0hdKVtDSDJdW0NAQF0oW09IXSkoW0NIMl1bT0hdKVtDSDJdW0NASF0oW0NIMl00KU9DKFtDSDNdKShbQ0gzXSlbQ0BAXShbQ0gzXSkoW0NIMl1bQ0BASF01W09IXSlDMyhbQ0gzXSlbQ0hdNFtDQEBdNShbQ0gyXTYpW0NAQF0oW0NAQEhdKFtDSDJdNylbT0hdKShbQ0gyXVtPSF0pW0NAQEhdOFtDQEBdMihbQ0BIXTdbQ0BdMTY4KVtDSDJdW09IXQ==

>  <s_epik_cmdline>  (31) 
J2VwaWtfcHl0aG9uJywgJy1waHQnLCAnMi4wJywgJy1waCcsICc3LjAnLCAnLXRuJywgJzgnLCAnLW1hJywgJzIwMCcsICctaW1hZScsICc8aW5maWxlLm1hZT4nLCAnLW9tYWUnLCAnPG91dGZpbGUubWFlPic=

>  <r_lp_tautomer_probability>  (31) 
1

>  <r_epik_Ionization_Penalty>  (31) 
5.36524e-06

>  <r_epik_Ionization_Penalty_Charging>  (31) 
0

>  <r_epik_Ionization_Penalty_Neutral>  (31) 
5.36524e-06

>  <r_epik_State_Penalty>  (31) 
-0

>  <r_epik_Charging_Adjusted_Penalty>  (31) 
0

>  <i_epik_Tot_Q>  (31) 
0

>  <i_epik_Tot_abs_Q>  (31) 
0

>  <s_lp_Force_Field>  (31) 
OPLS3e

>  <r_lp_Energy>  (31) 
657.895

>  <b_lp_Chiralities_Consistent>  (31) 
1

>  <s_lp_Variant>  (31) 
10:0-1

>  <s_i_glide_gridfile>  (31) 
pfpi4k_grid

>  <i_i_glide_lignum>  (31) 
13

>  <i_i_glide_rotatable_bonds>  (31) 
12

>  <r_i_docking_score>  (31) 
-4.44439

>  <r_i_glide_ligand_efficiency>  (31) 
-0.101009

>  <r_i_glide_ligand_efficiency_sa>  (31) 
-0.356596

>  <r_i_glide_ligand_efficiency_ln>  (31) 
-0.928974

>  <r_i_glide_gscore>  (31) 
-4.44439

>  <r_i_glide_lipo>  (31) 
-0.126518

>  <r_i_glide_hbond>  (31) 
-0.0638104

>  <r_i_glide_metal>  (31) 
-0

>  <r_i_glide_rewards>  (31) 
0

>  <r_i_glide_evdw>  (31) 
-17.2152

>  <r_i_glide_ecoul>  (31) 
-22.8351

>  <r_i_glide_erotb>  (31) 
0.0319588

>  <r_i_glide_esite>  (31) 
0

>  <r_i_glide_emodel>  (31) 
-48.7477

>  <r_i_glide_energy>  (31) 
-40.0503

>  <r_i_glide_einternal>  (31) 
9.60501

>  <r_i_glide_intrahb_reward>  (31) 
-0

>  <i_i_glide_confnum>  (31) 
1

>  <i_i_glide_posenum>  (31) 
39

>  <r_i_glide_eff_state_penalty>  (31) 
0

>  <ligand_id>  (31) 
10

>  <original_smiles>  (31) 
CC(C)C1C2C(O)C3(CO)C4CC(O)C5(CO)C3C14CC51C(O)CC3(C)C(C)(C)OC4CC1C3(C)C2C(O)CC(O)(CO)C4

>  <smiles>  (31) 
[H]OC([H])([H])C1(O[H])C([H])([H])C2([H])OC(C([H])([H])[H])(C([H])([H])[H])C3(C([H])([H])[H])C([H])([H])C([H])(O[H])C45C([H])([H])C67C([H])(C([H])(C([H])([H])[H])C([H])([H])[H])C([H])(C([H])(O[H])C8(C([H])([H])O[H])C6([H])C([H])([H])C([H])(O[H])C4(C([H])([H])O[H])C87[H])C([H])(C([H])(O[H])C1([H])[H])C3(C([H])([H])[H])C5([H])C2([H])[H]

$$$$
10:0:1
     RDKit          3D

100107  0  0  1  0  0  0  0  0999 V2000
    4.1655    4.5652    5.4833 C   0  0  0  0  0  0  0  0  0  0  0  0
    2.7932    3.9583    5.8503 C   0  0  0  0  0  0  0  0  0  0  0  0
    2.5744    4.2279    7.3494 C   0  0  0  0  0  0  0  0  0  0  0  0
    2.7120    2.4327    5.4734 C   0  0  2  0  0  0  0  0  0  0  0  0
    3.0528    1.9109    4.1090 C   0  0  2  0  0  0  0  0  0  0  0  0
    1.8709    2.7949    3.4115 C   0  0  1  0  0  0  0  0  0  0  0  0
    1.8092    2.5355    2.0313 O   0  0  0  0  0  0  0  0  0  0  0  0
    0.4150    2.6731    4.1479 C   0  0  1  0  0  0  0  0  0  0  0  0
   -0.6818    3.4779    3.4355 C   0  0  0  0  0  0  0  0  0  0  0  0
   -0.3837    4.8594    3.2821 O   0  0  0  0  0  0  0  0  0  0  0  0
    0.3668    1.2647    4.2617 C   0  0  2  0  0  0  0  0  0  0  0  0
   -1.0314    0.5578    4.1560 C   0  0  0  0  0  0  0  0  0  0  0  0
   -1.6155    0.3556    5.5094 C   0  0  1  0  0  0  0  0  0  0  0  0
   -1.9670   -0.9926    5.7009 O   0  0  0  0  0  0  0  0  0  0  0  0
   -0.5703    0.9082    6.4735 C   0  0  2  0  0  0  0  0  0  0  0  0
   -1.2416    1.2780    7.8508 C   0  0  0  0  0  0  0  0  0  0  0  0
   -2.5352    1.8512    7.7402 O   0  0  0  0  0  0  0  0  0  0  0  0
    0.0375    2.2942    5.7343 C   0  0  1  0  0  0  0  0  0  0  0  0
    1.3377    1.7486    5.6323 C   0  0  2  0  0  0  0  0  0  0  0  0
    1.5174    1.0050    6.8841 C   0  0  0  0  0  0  0  0  0  0  0  0
    0.7276   -0.1907    6.6047 C   0  0  1  0  0  0  0  0  0  0  0  0
    1.2188   -1.1537    7.8266 C   0  0  1  0  0  0  0  0  0  0  0  0
    0.1393   -1.9298    8.3202 O   0  0  0  0  0  0  0  0  0  0  0  0
    2.5351   -2.1282    7.5414 C   0  0  0  0  0  0  0  0  0  0  0  0
    2.8573   -2.4388    5.9720 C   0  0  2  0  0  0  0  0  0  0  0  0
    1.6782   -3.5752    6.0393 C   0  0  0  0  0  0  0  0  0  0  0  0
    3.9083   -3.3170    5.1792 C   0  0  0  0  0  0  0  0  0  0  0  0
    5.4127   -3.0092    5.3394 C   0  0  0  0  0  0  0  0  0  0  0  0
    3.8729   -4.8778    5.2122 C   0  0  0  0  0  0  0  0  0  0  0  0
    3.5859   -2.9047    3.8402 O   0  0  0  0  0  0  0  0  0  0  0  0
    2.2470   -2.7004    3.2852 C   0  0  1  0  0  0  0  0  0  0  0  0
    1.1336   -1.7197    3.9575 C   0  0  0  0  0  0  0  0  0  0  0  0
    1.4794   -0.8240    5.3053 C   0  0  1  0  0  0  0  0  0  0  0  0
    3.0189   -0.8543    5.3849 C   0  0  1  0  0  0  0  0  0  0  0  0
    4.1950   -0.2718    6.3203 C   0  0  0  0  0  0  0  0  0  0  0  0
    3.2845    0.1981    4.0279 C   0  0  2  0  0  0  0  0  0  0  0  0
    4.5317   -0.0046    3.0896 C   0  0  1  0  0  0  0  0  0  0  0  0
    5.7810    0.1399    3.7305 O   0  0  0  0  0  0  0  0  0  0  0  0
    4.6424   -1.1218    2.0134 C   0  0  0  0  0  0  0  0  0  0  0  0
    3.3962   -1.4784    1.1492 C   0  0  1  0  0  0  0  0  0  0  0  0
    2.6079   -0.3398    0.8843 O   0  0  0  0  0  0  0  0  0  0  0  0
    3.8448   -1.8957   -0.2790 C   0  0  0  0  0  0  0  0  0  0  0  0
    4.7173   -3.0071   -0.2819 O   0  0  0  0  0  0  0  0  0  0  0  0
    2.4572   -2.5646    1.7484 C   0  0  0  0  0  0  0  0  0  0  0  0
    4.9975    4.0270    5.9478 H   0  0  0  0  0  0  0  0  0  0  0  0
    4.2483    5.6116    5.7910 H   0  0  0  0  0  0  0  0  0  0  0  0
    4.3162    4.5578    4.4092 H   0  0  0  0  0  0  0  0  0  0  0  0
    2.0383    4.5576    5.3452 H   0  0  0  0  0  0  0  0  0  0  0  0
    3.3116    3.7056    7.9596 H   0  0  0  0  0  0  0  0  0  0  0  0
    1.5920    3.9235    7.6931 H   0  0  0  0  0  0  0  0  0  0  0  0
    2.6559    5.2951    7.5659 H   0  0  0  0  0  0  0  0  0  0  0  0
    3.4817    2.0770    6.1330 H   0  0  0  0  0  0  0  0  0  0  0  0
    3.9942    2.3709    3.8257 H   0  0  0  0  0  0  0  0  0  0  0  0
    2.1831    3.8398    3.3704 H   0  0  0  0  0  0  0  0  0  0  0  0
    1.2296    3.1529    1.6033 H   0  0  0  0  0  0  0  0  0  0  0  0
   -0.9225    3.0457    2.4607 H   0  0  0  0  0  0  0  0  0  0  0  0
   -1.6074    3.4330    4.0146 H   0  0  0  0  0  0  0  0  0  0  0  0
   -0.1005    4.9242    2.3568 H   0  0  0  0  0  0  0  0  0  0  0  0
    0.8691    0.8686    3.3966 H   0  0  0  0  0  0  0  0  0  0  0  0
   -1.7282    1.1269    3.5383 H   0  0  0  0  0  0  0  0  0  0  0  0
   -0.9872   -0.3870    3.6310 H   0  0  0  0  0  0  0  0  0  0  0  0
   -2.5133    0.9577    5.4730 H   0  0  0  0  0  0  0  0  0  0  0  0
   -2.5299   -1.2410    4.9907 H   0  0  0  0  0  0  0  0  0  0  0  0
   -1.3087    0.3996    8.4868 H   0  0  0  0  0  0  0  0  0  0  0  0
   -0.6929    2.0098    8.4372 H   0  0  0  0  0  0  0  0  0  0  0  0
   -2.4833    2.6334    7.2144 H   0  0  0  0  0  0  0  0  0  0  0  0
    0.0166    3.1871    6.3532 H   0  0  0  0  0  0  0  0  0  0  0  0
    2.4577    0.8951    7.3280 H   0  0  0  0  0  0  0  0  0  0  0  0
    1.1702    1.5929    7.7318 H   0  0  0  0  0  0  0  0  0  0  0  0
    1.4640   -0.5529    8.7067 H   0  0  0  0  0  0  0  0  0  0  0  0
    0.1622   -2.7615    7.8757 H   0  0  0  0  0  0  0  0  0  0  0  0
    3.3973   -1.7508    8.0846 H   0  0  0  0  0  0  0  0  0  0  0  0
    2.4263   -3.0308    8.1503 H   0  0  0  0  0  0  0  0  0  0  0  0
    1.3446   -4.0575    5.1399 H   0  0  0  0  0  0  0  0  0  0  0  0
    0.7232   -3.3290    6.4847 H   0  0  0  0  0  0  0  0  0  0  0  0
    1.9648   -4.4132    6.6745 H   0  0  0  0  0  0  0  0  0  0  0  0
    5.7309   -3.0514    6.3821 H   0  0  0  0  0  0  0  0  0  0  0  0
    5.6877   -2.0570    4.9073 H   0  0  0  0  0  0  0  0  0  0  0  0
    6.0385   -3.7162    4.7985 H   0  0  0  0  0  0  0  0  0  0  0  0
    4.0165   -5.2591    6.2236 H   0  0  0  0  0  0  0  0  0  0  0  0
    4.6707   -5.3095    4.6085 H   0  0  0  0  0  0  0  0  0  0  0  0
    2.9795   -5.3299    4.7884 H   0  0  0  0  0  0  0  0  0  0  0  0
    1.8016   -3.6938    3.2708 H   0  0  0  0  0  0  0  0  0  0  0  0
    0.8457   -1.1156    3.1067 H   0  0  0  0  0  0  0  0  0  0  0  0
    0.2236   -2.3172    4.0796 H   0  0  0  0  0  0  0  0  0  0  0  0
    0.8141   -1.5495    5.6883 H   0  0  0  0  0  0  0  0  0  0  0  0
    4.7512    0.5542    5.8884 H   0  0  0  0  0  0  0  0  0  0  0  0
    4.9833   -0.9836    6.4865 H   0  0  0  0  0  0  0  0  0  0  0  0
    4.0770   -0.0247    7.3683 H   0  0  0  0  0  0  0  0  0  0  0  0
    2.5935   -0.0400    3.2609 H   0  0  0  0  0  0  0  0  0  0  0  0
    4.4560    0.8513    2.4307 H   0  0  0  0  0  0  0  0  0  0  0  0
    5.8994   -0.6016    4.2988 H   0  0  0  0  0  0  0  0  0  0  0  0
    5.4026   -0.7518    1.3227 H   0  0  0  0  0  0  0  0  0  0  0  0
    5.1216   -2.0177    2.4003 H   0  0  0  0  0  0  0  0  0  0  0  0
    1.9151   -0.5678    0.2532 H   0  0  0  0  0  0  0  0  0  0  0  0
    2.9927   -2.1254   -0.9185 H   0  0  0  0  0  0  0  0  0  0  0  0
    4.3705   -1.0708   -0.7653 H   0  0  0  0  0  0  0  0  0  0  0  0
    4.2253   -3.7820   -0.0764 H   0  0  0  0  0  0  0  0  0  0  0  0
    2.8459   -3.5319    1.4304 H   0  0  0  0  0  0  0  0  0  0  0  0
    1.4893   -2.4840    1.2633 H   0  0  0  0  0  0  0  0  0  0  0  0
  1  2  1  0
  1 45  1  0
  1 46  1  0
  1 47  1  0
  2  3  1  0
  2  4  1  0
  2 48  1  0
  3 49  1  0
  3 50  1  0
  3 51  1  0
  4 19  1  0
  4  5  1  0
  4 52  1  1
  5 36  1  0
  5  6  1  0
  5 53  1  6
  6  7  1  0
  6  8  1  0
  6 54  1  6
  7 55  1  0
  8 18  1  0
  8  9  1  6
  8 11  1  0
  9 10  1  0
  9 56  1  0
  9 57  1  0
 10 58  1  0
 11 19  1  0
 11 12  1  0
 11 59  1  6
 12 13  1  0
 12 60  1  0
 12 61  1  0
 13 14  1  0
 13 15  1  0
 13 62  1  6
 14 63  1  0
 15 21  1  0
 15 16  1  1
 15 18  1  0
 16 17  1  0
 16 64  1  0
 16 65  1  0
 17 66  1  0
 18 19  1  0
 18 67  1  1
 19 20  1  1
 21 20  1  1
 20 68  1  0
 20 69  1  0
 21 33  1  0
 21 22  1  0
 22 23  1  0
 22 24  1  0
 22 70  1  1
 23 71  1  0
 24 25  1  0
 24 72  1  0
 24 73  1  0
 25 34  1  0
 25 26  1  6
 25 27  1  0
 26 74  1  0
 26 75  1  0
 26 76  1  0
 27 28  1  0
 27 29  1  0
 27 30  1  0
 28 77  1  0
 28 78  1  0
 28 79  1  0
 29 80  1  0
 29 81  1  0
 29 82  1  0
 30 31  1  0
 31 44  1  0
 31 32  1  0
 31 83  1  6
 32 33  1  0
 32 84  1  0
 32 85  1  0
 33 34  1  0
 33 86  1  6
 34 35  1  1
 34 36  1  0
 35 87  1  0
 35 88  1  0
 35 89  1  0
 36 37  1  0
 36 90  1  6
 37 38  1  0
 37 39  1  0
 37 91  1  6
 38 92  1  0
 39 40  1  0
 39 93  1  0
 39 94  1  0
 40 41  1  6
 40 42  1  0
 40 44  1  0
 41 95  1  0
 42 43  1  0
 42 96  1  0
 42 97  1  0
 43 98  1  0
 44 99  1  0
 44100  1  0
M  END
>  <i_m_ct_stereo_status>  (32) 
1

>  <s_m_source_file>  (32) 
/var/tmp/pbs.5076255.sched01/tmprv8ptrg5/026yimkau.sdf

>  <i_m_source_file_index>  (32) 
13

>  <i_lp_mmshare_version>  (32) 
48012

>  <i_f3d_flags>  (32) 
0

>  <s_epik_input>  (32) 
W0NIM11bQ0hdKFtDSDNdKVtDQEBIXTFbQ0BIXShbQ0BIXTJbT0hdKVtDQEhdM1tDQEBIXShbT0hdKVtDSDJdW0NAQF0oW09IXSkoW0NIMl1bT0hdKVtDSDJdW0NASF0oW0NIMl00KU9DKFtDSDNdKShbQ0gzXSlbQ0BAXShbQ0gzXSkoW0NIMl1bQ0BASF01W09IXSlDMyhbQ0gzXSlbQ0hdNFtDQEBdNShbQ0gyXTYpW0NAQF0oW0NAQEhdKFtDSDJdNylbT0hdKShbQ0gyXVtPSF0pW0NAQEhdOFtDQEBdMihbQ0BIXTdbQ0BdMTY4KVtDSDJdW09IXQ==

>  <s_epik_cmdline>  (32) 
J2VwaWtfcHl0aG9uJywgJy1waHQnLCAnMi4wJywgJy1waCcsICc3LjAnLCAnLXRuJywgJzgnLCAnLW1hJywgJzIwMCcsICctaW1hZScsICc8aW5maWxlLm1hZT4nLCAnLW9tYWUnLCAnPG91dGZpbGUubWFlPic=

>  <r_lp_tautomer_probability>  (32) 
1

>  <r_epik_Ionization_Penalty>  (32) 
5.36524e-06

>  <r_epik_Ionization_Penalty_Charging>  (32) 
0

>  <r_epik_Ionization_Penalty_Neutral>  (32) 
5.36524e-06

>  <r_epik_State_Penalty>  (32) 
-0

>  <r_epik_Charging_Adjusted_Penalty>  (32) 
0

>  <i_epik_Tot_Q>  (32) 
0

>  <i_epik_Tot_abs_Q>  (32) 
0

>  <s_lp_Force_Field>  (32) 
OPLS3e

>  <r_lp_Energy>  (32) 
657.895

>  <b_lp_Chiralities_Consistent>  (32) 
1

>  <s_lp_Variant>  (32) 
10:0-1

>  <s_i_glide_gridfile>  (32) 
pfpi4k_grid

>  <i_i_glide_lignum>  (32) 
13

>  <i_i_glide_rotatable_bonds>  (32) 
12

>  <r_i_docking_score>  (32) 
-4.06003

>  <r_i_glide_ligand_efficiency>  (32) 
-0.0922735

>  <r_i_glide_ligand_efficiency_sa>  (32) 
-0.325757

>  <r_i_glide_ligand_efficiency_ln>  (32) 
-0.848635

>  <r_i_glide_gscore>  (32) 
-4.06003

>  <r_i_glide_lipo>  (32) 
-0.130383

>  <r_i_glide_hbond>  (32) 
0

>  <r_i_glide_metal>  (32) 
-0

>  <r_i_glide_rewards>  (32) 
0

>  <r_i_glide_evdw>  (32) 
-18.656

>  <r_i_glide_ecoul>  (32) 
-20.192

>  <r_i_glide_erotb>  (32) 
0.0319588

>  <r_i_glide_esite>  (32) 
0

>  <r_i_glide_emodel>  (32) 
-47.9822

>  <r_i_glide_energy>  (32) 
-38.8481

>  <r_i_glide_einternal>  (32) 
5.58017

>  <r_i_glide_intrahb_reward>  (32) 
-0

>  <i_i_glide_confnum>  (32) 
1

>  <i_i_glide_posenum>  (32) 
25

>  <r_i_glide_eff_state_penalty>  (32) 
0

>  <ligand_id>  (32) 
10

>  <original_smiles>  (32) 
CC(C)C1C2C(O)C3(CO)C4CC(O)C5(CO)C3C14CC51C(O)CC3(C)C(C)(C)OC4CC1C3(C)C2C(O)CC(O)(CO)C4

>  <smiles>  (32) 
[H]OC([H])([H])C1(O[H])C([H])([H])C2([H])OC(C([H])([H])[H])(C([H])([H])[H])C3(C([H])([H])[H])C([H])([H])C([H])(O[H])C45C([H])([H])C67C([H])(C([H])(C([H])([H])[H])C([H])([H])[H])C([H])(C([H])(O[H])C8(C([H])([H])O[H])C6([H])C([H])([H])C([H])(O[H])C4(C([H])([H])O[H])C87[H])C([H])(C([H])(O[H])C1([H])[H])C3(C([H])([H])[H])C5([H])C2([H])[H]

$$$$
10:0:2
     RDKit          3D

100107  0  0  1  0  0  0  0  0999 V2000
    4.1700    4.6011    5.5435 C   0  0  0  0  0  0  0  0  0  0  0  0
    2.7706    4.0381    5.8504 C   0  0  0  0  0  0  0  0  0  0  0  0
    2.4717    4.3522    7.3276 C   0  0  0  0  0  0  0  0  0  0  0  0
    2.6697    2.4950    5.5124 C   0  0  2  0  0  0  0  0  0  0  0  0
    3.0362    1.9393    4.1579 C   0  0  2  0  0  0  0  0  0  0  0  0
    1.8610    2.8090    3.4271 C   0  0  1  0  0  0  0  0  0  0  0  0
    1.8065    2.5256    2.0462 O   0  0  0  0  0  0  0  0  0  0  0  0
    0.3942    2.7036    4.1584 C   0  0  1  0  0  0  0  0  0  0  0  0
   -0.6978    3.4936    3.4247 C   0  0  0  0  0  0  0  0  0  0  0  0
   -0.3886    4.8615    3.3243 O   0  0  0  0  0  0  0  0  0  0  0  0
    0.3472    1.2914    4.2875 C   0  0  2  0  0  0  0  0  0  0  0  0
   -1.0564    0.5961    4.1968 C   0  0  0  0  0  0  0  0  0  0  0  0
   -1.6654    0.4356    5.5585 C   0  0  1  0  0  0  0  0  0  0  0  0
   -2.0325   -0.9106    5.7781 O   0  0  0  0  0  0  0  0  0  0  0  0
   -0.6127    1.0035    6.5168 C   0  0  2  0  0  0  0  0  0  0  0  0
   -1.3012    1.4060    7.8762 C   0  0  0  0  0  0  0  0  0  0  0  0
   -2.5387    2.0800    7.7179 O   0  0  0  0  0  0  0  0  0  0  0  0
    0.0043    2.3705    5.7547 C   0  0  1  0  0  0  0  0  0  0  0  0
    1.2989    1.8101    5.6587 C   0  0  2  0  0  0  0  0  0  0  0  0
    1.4582    1.1057    6.9488 C   0  0  0  0  0  0  0  0  0  0  0  0
    0.6862   -0.0934    6.6929 C   0  0  1  0  0  0  0  0  0  0  0  0
    1.1564   -1.0341    7.9378 C   0  0  1  0  0  0  0  0  0  0  0  0
    0.0683   -1.8021    8.4292 O   0  0  0  0  0  0  0  0  0  0  0  0
    2.4757   -2.0142    7.6926 C   0  0  0  0  0  0  0  0  0  0  0  0
    2.8109   -2.3671    6.1343 C   0  0  2  0  0  0  0  0  0  0  0  0
    1.6202   -3.4983    6.2181 C   0  0  0  0  0  0  0  0  0  0  0  0
    3.8666   -3.2650    5.3683 C   0  0  0  0  0  0  0  0  0  0  0  0
    5.3703   -2.9550    5.5316 C   0  0  0  0  0  0  0  0  0  0  0  0
    3.8250   -4.8255    5.4435 C   0  0  0  0  0  0  0  0  0  0  0  0
    3.5505   -2.8921    4.0123 O   0  0  0  0  0  0  0  0  0  0  0  0
    2.2181   -2.6943    3.4449 C   0  0  1  0  0  0  0  0  0  0  0  0
    1.1015   -1.6928    4.0803 C   0  0  0  0  0  0  0  0  0  0  0  0
    1.4387   -0.7732    5.4123 C   0  0  1  0  0  0  0  0  0  0  0  0
    2.9804   -0.7923    5.5050 C   0  0  1  0  0  0  0  0  0  0  0  0
    4.1486   -0.1921    6.4415 C   0  0  0  0  0  0  0  0  0  0  0  0
    3.2580    0.2215    4.1207 C   0  0  2  0  0  0  0  0  0  0  0  0
    4.5149   -0.0096    3.2066 C   0  0  1  0  0  0  0  0  0  0  0  0
    5.7589    0.1455    3.8631 O   0  0  0  0  0  0  0  0  0  0  0  0
    4.6293   -1.1502    2.1566 C   0  0  0  0  0  0  0  0  0  0  0  0
    3.3875   -1.5274    1.2862 C   0  0  1  0  0  0  0  0  0  0  0  0
    2.6225   -0.3879    0.9567 O   0  0  0  0  0  0  0  0  0  0  0  0
    3.8522   -1.9844   -0.1230 C   0  0  0  0  0  0  0  0  0  0  0  0
    4.7209   -3.1019   -0.0827 O   0  0  0  0  0  0  0  0  0  0  0  0
    2.4392   -2.5946    1.9085 C   0  0  0  0  0  0  0  0  0  0  0  0
    4.9557    4.0709    6.0806 H   0  0  0  0  0  0  0  0  0  0  0  0
    4.2480    5.6519    5.8181 H   0  0  0  0  0  0  0  0  0  0  0  0
    4.4080    4.5494    4.4831 H   0  0  0  0  0  0  0  0  0  0  0  0
    2.0492    4.6291    5.2939 H   0  0  0  0  0  0  0  0  0  0  0  0
    3.1652    3.8392    7.9932 H   0  0  0  0  0  0  0  0  0  0  0  0
    1.4666    4.0825    7.6353 H   0  0  0  0  0  0  0  0  0  0  0  0
    2.5623    5.4241    7.5113 H   0  0  0  0  0  0  0  0  0  0  0  0
    3.4405    2.1556    6.1842 H   0  0  0  0  0  0  0  0  0  0  0  0
    3.9769    2.3940    3.8722 H   0  0  0  0  0  0  0  0  0  0  0  0
    2.1723    3.8520    3.3686 H   0  0  0  0  0  0  0  0  0  0  0  0
    1.2250    3.1451    1.6165 H   0  0  0  0  0  0  0  0  0  0  0  0
   -0.8981    3.0733    2.4435 H   0  0  0  0  0  0  0  0  0  0  0  0
   -1.6361    3.4339    3.9772 H   0  0  0  0  0  0  0  0  0  0  0  0
   -0.0632    4.9674    2.4083 H   0  0  0  0  0  0  0  0  0  0  0  0
    0.8531    0.8714    3.4371 H   0  0  0  0  0  0  0  0  0  0  0  0
   -1.7534    1.1520    3.5643 H   0  0  0  0  0  0  0  0  0  0  0  0
   -1.0259   -0.3637    3.6931 H   0  0  0  0  0  0  0  0  0  0  0  0
   -2.5612    1.0500    5.5345 H   0  0  0  0  0  0  0  0  0  0  0  0
   -1.2673   -1.4435    5.6552 H   0  0  0  0  0  0  0  0  0  0  0  0
   -1.4548    0.5465    8.4932 H   0  0  0  0  0  0  0  0  0  0  0  0
   -0.7184    2.0827    8.4999 H   0  0  0  0  0  0  0  0  0  0  0  0
   -2.3937    2.8981    7.2785 H   0  0  0  0  0  0  0  0  0  0  0  0
   -0.0563    3.2851    6.3413 H   0  0  0  0  0  0  0  0  0  0  0  0
    2.4044    1.0016    7.3960 H   0  0  0  0  0  0  0  0  0  0  0  0
    1.1274    1.7244    7.7744 H   0  0  0  0  0  0  0  0  0  0  0  0
    1.3948   -0.4166    8.8071 H   0  0  0  0  0  0  0  0  0  0  0  0
    0.3817   -2.3011    9.1649 H   0  0  0  0  0  0  0  0  0  0  0  0
    3.3319   -1.6274    8.2311 H   0  0  0  0  0  0  0  0  0  0  0  0
    2.3568   -2.9009    8.3177 H   0  0  0  0  0  0  0  0  0  0  0  0
    1.2930   -4.0004    5.3278 H   0  0  0  0  0  0  0  0  0  0  0  0
    0.6665   -3.2397    6.6569 H   0  0  0  0  0  0  0  0  0  0  0  0
    1.9027   -4.3200    6.8751 H   0  0  0  0  0  0  0  0  0  0  0  0
    5.6787   -2.9728    6.5777 H   0  0  0  0  0  0  0  0  0  0  0  0
    5.6506   -2.0112    5.0797 H   0  0  0  0  0  0  0  0  0  0  0  0
    6.0007   -3.6719    5.0081 H   0  0  0  0  0  0  0  0  0  0  0  0
    3.9547   -5.1797    6.4670 H   0  0  0  0  0  0  0  0  0  0  0  0
    4.6250   -5.2748    4.8587 H   0  0  0  0  0  0  0  0  0  0  0  0
    2.9317   -5.2842    5.0247 H   0  0  0  0  0  0  0  0  0  0  0  0
    1.7683   -3.6843    3.4555 H   0  0  0  0  0  0  0  0  0  0  0  0
    0.8227   -1.1067    3.2174 H   0  0  0  0  0  0  0  0  0  0  0  0
    0.1907   -2.2844    4.2097 H   0  0  0  0  0  0  0  0  0  0  0  0
    0.7664   -1.4814    5.8104 H   0  0  0  0  0  0  0  0  0  0  0  0
    4.7075    0.6213    5.9974 H   0  0  0  0  0  0  0  0  0  0  0  0
    4.9330   -0.9020    6.6242 H   0  0  0  0  0  0  0  0  0  0  0  0
    4.0216    0.0774    7.4804 H   0  0  0  0  0  0  0  0  0  0  0  0
    2.5764   -0.0365    3.3509 H   0  0  0  0  0  0  0  0  0  0  0  0
    4.4643    0.8342    2.5302 H   0  0  0  0  0  0  0  0  0  0  0  0
    5.7293    0.9300    4.3770 H   0  0  0  0  0  0  0  0  0  0  0  0
    5.4003   -0.8041    1.4653 H   0  0  0  0  0  0  0  0  0  0  0  0
    5.1009   -2.0381    2.5743 H   0  0  0  0  0  0  0  0  0  0  0  0
    1.9406   -0.6294    0.3228 H   0  0  0  0  0  0  0  0  0  0  0  0
    3.0017   -2.2298   -0.7620 H   0  0  0  0  0  0  0  0  0  0  0  0
    4.3858   -1.1771   -0.6263 H   0  0  0  0  0  0  0  0  0  0  0  0
    4.2330   -3.8566    0.1929 H   0  0  0  0  0  0  0  0  0  0  0  0
    2.8317   -3.5720    1.6214 H   0  0  0  0  0  0  0  0  0  0  0  0
    1.4739   -2.5339    1.4136 H   0  0  0  0  0  0  0  0  0  0  0  0
  1  2  1  0
  1 45  1  0
  1 46  1  0
  1 47  1  0
  2  3  1  0
  2  4  1  0
  2 48  1  0
  3 49  1  0
  3 50  1  0
  3 51  1  0
  4 19  1  0
  4  5  1  0
  4 52  1  1
  5 36  1  0
  5  6  1  0
  5 53  1  6
  6  7  1  0
  6  8  1  0
  6 54  1  6
  7 55  1  0
  8 18  1  0
  8  9  1  6
  8 11  1  0
  9 10  1  0
  9 56  1  0
  9 57  1  0
 10 58  1  0
 11 19  1  0
 11 12  1  0
 11 59  1  6
 12 13  1  0
 12 60  1  0
 12 61  1  0
 13 14  1  0
 13 15  1  0
 13 62  1  6
 14 63  1  0
 15 21  1  0
 15 16  1  1
 15 18  1  0
 16 17  1  0
 16 64  1  0
 16 65  1  0
 17 66  1  0
 18 19  1  0
 18 67  1  1
 19 20  1  1
 21 20  1  1
 20 68  1  0
 20 69  1  0
 21 33  1  0
 21 22  1  0
 22 23  1  0
 22 24  1  0
 22 70  1  1
 23 71  1  0
 24 25  1  0
 24 72  1  0
 24 73  1  0
 25 34  1  0
 25 26  1  6
 25 27  1  0
 26 74  1  0
 26 75  1  0
 26 76  1  0
 27 28  1  0
 27 29  1  0
 27 30  1  0
 28 77  1  0
 28 78  1  0
 28 79  1  0
 29 80  1  0
 29 81  1  0
 29 82  1  0
 30 31  1  0
 31 44  1  0
 31 32  1  0
 31 83  1  6
 32 33  1  0
 32 84  1  0
 32 85  1  0
 33 34  1  0
 33 86  1  6
 34 35  1  1
 34 36  1  0
 35 87  1  0
 35 88  1  0
 35 89  1  0
 36 37  1  0
 36 90  1  6
 37 38  1  0
 37 39  1  0
 37 91  1  6
 38 92  1  0
 39 40  1  0
 39 93  1  0
 39 94  1  0
 40 41  1  6
 40 42  1  0
 40 44  1  0
 41 95  1  0
 42 43  1  0
 42 96  1  0
 42 97  1  0
 43 98  1  0
 44 99  1  0
 44100  1  0
M  END
>  <i_m_ct_stereo_status>  (33) 
1

>  <s_m_source_file>  (33) 
/var/tmp/pbs.5076255.sched01/tmprv8ptrg5/026yimkau.sdf

>  <i_m_source_file_index>  (33) 
13

>  <i_lp_mmshare_version>  (33) 
48012

>  <i_f3d_flags>  (33) 
0

>  <s_epik_input>  (33) 
W0NIM11bQ0hdKFtDSDNdKVtDQEBIXTFbQ0BIXShbQ0BIXTJbT0hdKVtDQEhdM1tDQEBIXShbT0hdKVtDSDJdW0NAQF0oW09IXSkoW0NIMl1bT0hdKVtDSDJdW0NASF0oW0NIMl00KU9DKFtDSDNdKShbQ0gzXSlbQ0BAXShbQ0gzXSkoW0NIMl1bQ0BASF01W09IXSlDMyhbQ0gzXSlbQ0hdNFtDQEBdNShbQ0gyXTYpW0NAQF0oW0NAQEhdKFtDSDJdNylbT0hdKShbQ0gyXVtPSF0pW0NAQEhdOFtDQEBdMihbQ0BIXTdbQ0BdMTY4KVtDSDJdW09IXQ==

>  <s_epik_cmdline>  (33) 
J2VwaWtfcHl0aG9uJywgJy1waHQnLCAnMi4wJywgJy1waCcsICc3LjAnLCAnLXRuJywgJzgnLCAnLW1hJywgJzIwMCcsICctaW1hZScsICc8aW5maWxlLm1hZT4nLCAnLW9tYWUnLCAnPG91dGZpbGUubWFlPic=

>  <r_lp_tautomer_probability>  (33) 
1

>  <r_epik_Ionization_Penalty>  (33) 
5.36524e-06

>  <r_epik_Ionization_Penalty_Charging>  (33) 
0

>  <r_epik_Ionization_Penalty_Neutral>  (33) 
5.36524e-06

>  <r_epik_State_Penalty>  (33) 
-0

>  <r_epik_Charging_Adjusted_Penalty>  (33) 
0

>  <i_epik_Tot_Q>  (33) 
0

>  <i_epik_Tot_abs_Q>  (33) 
0

>  <s_lp_Force_Field>  (33) 
OPLS3e

>  <r_lp_Energy>  (33) 
657.895

>  <b_lp_Chiralities_Consistent>  (33) 
1

>  <s_lp_Variant>  (33) 
10:0-1

>  <s_i_glide_gridfile>  (33) 
pfpi4k_grid

>  <i_i_glide_lignum>  (33) 
13

>  <i_i_glide_rotatable_bonds>  (33) 
12

>  <r_i_docking_score>  (33) 
-4.02844

>  <r_i_glide_ligand_efficiency>  (33) 
-0.0915555

>  <r_i_glide_ligand_efficiency_sa>  (33) 
-0.323223

>  <r_i_glide_ligand_efficiency_ln>  (33) 
-0.842032

>  <r_i_glide_gscore>  (33) 
-4.02844

>  <r_i_glide_lipo>  (33) 
-0.125098

>  <r_i_glide_hbond>  (33) 
0

>  <r_i_glide_metal>  (33) 
-0

>  <r_i_glide_rewards>  (33) 
0

>  <r_i_glide_evdw>  (33) 
-18.6506

>  <r_i_glide_ecoul>  (33) 
-20.0185

>  <r_i_glide_erotb>  (33) 
0.0319588

>  <r_i_glide_esite>  (33) 
0

>  <r_i_glide_emodel>  (33) 
-48.5878

>  <r_i_glide_energy>  (33) 
-38.6691

>  <r_i_glide_einternal>  (33) 
4.26279

>  <r_i_glide_intrahb_reward>  (33) 
-0

>  <i_i_glide_confnum>  (33) 
4

>  <i_i_glide_posenum>  (33) 
5

>  <r_i_glide_eff_state_penalty>  (33) 
0

>  <ligand_id>  (33) 
10

>  <original_smiles>  (33) 
CC(C)C1C2C(O)C3(CO)C4CC(O)C5(CO)C3C14CC51C(O)CC3(C)C(C)(C)OC4CC1C3(C)C2C(O)CC(O)(CO)C4

>  <smiles>  (33) 
[H]OC([H])([H])C1(O[H])C([H])([H])C2([H])OC(C([H])([H])[H])(C([H])([H])[H])C3(C([H])([H])[H])C([H])([H])C([H])(O[H])C45C([H])([H])C67C([H])(C([H])(C([H])([H])[H])C([H])([H])[H])C([H])(C([H])(O[H])C8(C([H])([H])O[H])C6([H])C([H])([H])C([H])(O[H])C4(C([H])([H])O[H])C87[H])C([H])(C([H])(O[H])C1([H])[H])C3(C([H])([H])[H])C5([H])C2([H])[H]

$$$$
10:1:0
     RDKit          3D

100107  0  0  1  0  0  0  0  0999 V2000
    1.8656   -5.8712    0.2079 C   0  0  0  0  0  0  0  0  0  0  0  0
    1.5181   -6.9307    1.2664 C   0  0  0  0  0  0  0  0  0  0  0  0
   -0.0096   -7.1516    1.2632 C   0  0  0  0  0  0  0  0  0  0  0  0
    2.0580   -6.5421    2.6867 C   0  0  2  0  0  0  0  0  0  0  0  0
    3.5051   -6.0175    2.8939 C   0  0  2  0  0  0  0  0  0  0  0  0
    4.1417   -7.3883    2.3094 C   0  0  1  0  0  0  0  0  0  0  0  0
    5.5542   -7.2901    2.3489 O   0  0  0  0  0  0  0  0  0  0  0  0
    3.5675   -8.7310    3.0194 C   0  0  1  0  0  0  0  0  0  0  0  0
    4.3445   -9.9622    2.4891 C   0  0  0  0  0  0  0  0  0  0  0  0
    3.7476  -11.2009    2.8900 O   0  0  0  0  0  0  0  0  0  0  0  0
    3.5581   -8.2335    4.3645 C   0  0  2  0  0  0  0  0  0  0  0  0
    4.0032   -9.3027    5.4352 C   0  0  0  0  0  0  0  0  0  0  0  0
    2.8051   -9.8970    6.0507 C   0  0  1  0  0  0  0  0  0  0  0  0
    2.7777   -9.8719    7.4641 O   0  0  0  0  0  0  0  0  0  0  0  0
    1.6363   -9.2207    5.3318 C   0  0  2  0  0  0  0  0  0  0  0  0
    0.4689  -10.2260    5.5470 C   0  0  0  0  0  0  0  0  0  0  0  0
    0.6588  -11.4246    4.8239 O   0  0  0  0  0  0  0  0  0  0  0  0
    2.0866   -9.0893    3.7030 C   0  0  1  0  0  0  0  0  0  0  0  0
    2.0103   -7.6786    3.7498 C   0  0  2  0  0  0  0  0  0  0  0  0
    0.6873   -7.4822    4.5282 C   0  0  0  0  0  0  0  0  0  0  0  0
    1.3129   -7.6272    5.8893 C   0  0  1  0  0  0  0  0  0  0  0  0
    0.8107   -7.3048    7.3369 C   0  0  1  0  0  0  0  0  0  0  0  0
    0.5338   -8.4558    8.0961 O   0  0  0  0  0  0  0  0  0  0  0  0
    1.8429   -6.3964    8.2023 C   0  0  0  0  0  0  0  0  0  0  0  0
    2.8090   -5.1637    7.5950 C   0  0  2  0  0  0  0  0  0  0  0  0
    3.8916   -5.2104    8.7622 C   0  0  0  0  0  0  0  0  0  0  0  0
    2.3099   -3.6136    7.8657 C   0  0  0  0  0  0  0  0  0  0  0  0
    1.6250   -3.3179    9.2216 C   0  0  0  0  0  0  0  0  0  0  0  0
    3.4776   -2.5978    7.7298 C   0  0  0  0  0  0  0  0  0  0  0  0
    1.2661   -3.0616    7.0645 O   0  0  0  0  0  0  0  0  0  0  0  0
    1.2893   -3.5251    5.7600 C   0  0  1  0  0  0  0  0  0  0  0  0
    0.7224   -4.9349    5.8804 C   0  0  0  0  0  0  0  0  0  0  0  0
    1.8479   -6.0881    5.6970 C   0  0  1  0  0  0  0  0  0  0  0  0
    3.3006   -5.6778    6.0243 C   0  0  2  0  0  0  0  0  0  0  0  0
    4.4945   -6.5469    6.5456 C   0  0  0  0  0  0  0  0  0  0  0  0
    3.8713   -5.2075    4.4077 C   0  0  2  0  0  0  0  0  0  0  0  0
    4.0024   -3.6746    4.0456 C   0  0  1  0  0  0  0  0  0  0  0  0
    5.1820   -3.5220    3.2850 O   0  0  0  0  0  0  0  0  0  0  0  0
    2.8743   -2.9887    3.1952 C   0  0  0  0  0  0  0  0  0  0  0  0
    1.9307   -1.9130    3.8516 C   0  0  1  0  0  0  0  0  0  0  0  0
    2.6579   -1.0439    4.6979 O   0  0  0  0  0  0  0  0  0  0  0  0
    1.2981   -0.9670    2.7945 C   0  0  0  0  0  0  0  0  0  0  0  0
    2.2656   -0.3461    1.9775 O   0  0  0  0  0  0  0  0  0  0  0  0
    0.7749   -2.5674    4.6671 C   0  0  0  0  0  0  0  0  0  0  0  0
    1.5434   -4.8782    0.5033 H   0  0  0  0  0  0  0  0  0  0  0  0
    1.3974   -6.0886   -0.7449 H   0  0  0  0  0  0  0  0  0  0  0  0
    2.9337   -5.8020    0.0168 H   0  0  0  0  0  0  0  0  0  0  0  0
    1.9275   -7.8976    0.9751 H   0  0  0  0  0  0  0  0  0  0  0  0
   -0.5453   -6.2647    1.5951 H   0  0  0  0  0  0  0  0  0  0  0  0
   -0.2962   -7.9850    1.9010 H   0  0  0  0  0  0  0  0  0  0  0  0
   -0.3732   -7.3935    0.2634 H   0  0  0  0  0  0  0  0  0  0  0  0
    1.3881   -5.7055    2.8793 H   0  0  0  0  0  0  0  0  0  0  0  0
    3.7253   -5.2880    2.1245 H   0  0  0  0  0  0  0  0  0  0  0  0
    3.9813   -7.4530    1.2399 H   0  0  0  0  0  0  0  0  0  0  0  0
    5.8131   -6.5156    1.8885 H   0  0  0  0  0  0  0  0  0  0  0  0
    4.3722   -9.9501    1.3984 H   0  0  0  0  0  0  0  0  0  0  0  0
    5.3859   -9.9671    2.8137 H   0  0  0  0  0  0  0  0  0  0  0  0
    3.8348  -11.8042    2.1442 H   0  0  0  0  0  0  0  0  0  0  0  0
    4.3600   -7.5786    4.3623 H   0  0  0  0  0  0  0  0  0  0  0  0
    4.5822  -10.1127    4.9883 H   0  0  0  0  0  0  0  0  0  0  0  0
    4.7315   -8.9686    6.1698 H   0  0  0  0  0  0  0  0  0  0  0  0
    2.8817  -10.9573    5.7976 H   0  0  0  0  0  0  0  0  0  0  0  0
    2.4098  -10.7189    7.7340 H   0  0  0  0  0  0  0  0  0  0  0  0
    0.3875  -10.5248    6.5899 H   0  0  0  0  0  0  0  0  0  0  0  0
   -0.5058   -9.8151    5.3240 H   0  0  0  0  0  0  0  0  0  0  0  0
    1.1050  -12.0361    5.3945 H   0  0  0  0  0  0  0  0  0  0  0  0
    1.3871   -9.4935    2.9805 H   0  0  0  0  0  0  0  0  0  0  0  0
    0.0913   -6.6341    4.2348 H   0  0  0  0  0  0  0  0  0  0  0  0
   -0.0606   -8.2030    4.2181 H   0  0  0  0  0  0  0  0  0  0  0  0
   -0.1811   -6.8592    7.2843 H   0  0  0  0  0  0  0  0  0  0  0  0
    1.3094   -8.9969    8.0279 H   0  0  0  0  0  0  0  0  0  0  0  0
    1.2404   -5.9793    9.0008 H   0  0  0  0  0  0  0  0  0  0  0  0
    2.4745   -7.1302    8.7078 H   0  0  0  0  0  0  0  0  0  0  0  0
    4.7495   -4.5543    8.6154 H   0  0  0  0  0  0  0  0  0  0  0  0
    4.3160   -6.1891    8.9842 H   0  0  0  0  0  0  0  0  0  0  0  0
    3.4744   -4.9819    9.7355 H   0  0  0  0  0  0  0  0  0  0  0  0
    2.2509   -3.4319   10.0990 H   0  0  0  0  0  0  0  0  0  0  0  0
    0.7191   -3.9025    9.3678 H   0  0  0  0  0  0  0  0  0  0  0  0
    1.3257   -2.2724    9.2561 H   0  0  0  0  0  0  0  0  0  0  0  0
    3.9961   -2.4556    8.6755 H   0  0  0  0  0  0  0  0  0  0  0  0
    3.1271   -1.6155    7.4208 H   0  0  0  0  0  0  0  0  0  0  0  0
    4.2304   -2.9244    7.0193 H   0  0  0  0  0  0  0  0  0  0  0  0
    2.3266   -3.5548    5.5949 H   0  0  0  0  0  0  0  0  0  0  0  0
    0.1789   -4.9515    6.8239 H   0  0  0  0  0  0  0  0  0  0  0  0
   -0.1127   -4.9599    5.1879 H   0  0  0  0  0  0  0  0  0  0  0  0
    1.8232   -5.6289    4.7559 H   0  0  0  0  0  0  0  0  0  0  0  0
    5.2532   -6.9394    5.8902 H   0  0  0  0  0  0  0  0  0  0  0  0
    4.1851   -7.3326    7.2300 H   0  0  0  0  0  0  0  0  0  0  0  0
    5.2539   -5.9266    7.0066 H   0  0  0  0  0  0  0  0  0  0  0  0
    4.9340   -5.4256    4.4932 H   0  0  0  0  0  0  0  0  0  0  0  0
    4.2280   -3.0858    4.9280 H   0  0  0  0  0  0  0  0  0  0  0  0
    5.3308   -2.6066    3.1543 H   0  0  0  0  0  0  0  0  0  0  0  0
    3.3727   -2.5072    2.3570 H   0  0  0  0  0  0  0  0  0  0  0  0
    2.2294   -3.7096    2.6951 H   0  0  0  0  0  0  0  0  0  0  0  0
    3.2275   -0.5392    4.1412 H   0  0  0  0  0  0  0  0  0  0  0  0
    0.6356   -1.5303    2.1365 H   0  0  0  0  0  0  0  0  0  0  0  0
    0.6881   -0.1825    3.2520 H   0  0  0  0  0  0  0  0  0  0  0  0
    1.8817   -0.1910    1.1271 H   0  0  0  0  0  0  0  0  0  0  0  0
    0.1295   -3.1125    3.9695 H   0  0  0  0  0  0  0  0  0  0  0  0
    0.1380   -1.8029    5.1218 H   0  0  0  0  0  0  0  0  0  0  0  0
  1  2  1  0
  1 45  1  0
  1 46  1  0
  1 47  1  0
  2  3  1  0
  2  4  1  0
  2 48  1  0
  3 49  1  0
  3 50  1  0
  3 51  1  0
  4 19  1  0
  4  5  1  0
  4 52  1  1
  5 36  1  0
  5  6  1  0
  5 53  1  6
  6  7  1  0
  6  8  1  0
  6 54  1  6
  7 55  1  0
  8 18  1  0
  8  9  1  1
  8 11  1  0
  9 10  1  0
  9 56  1  0
  9 57  1  0
 10 58  1  0
 11 19  1  0
 11 12  1  0
 11 59  1  6
 12 13  1  0
 12 60  1  0
 12 61  1  0
 13 14  1  0
 13 15  1  0
 13 62  1  1
 14 63  1  0
 15 21  1  0
 15 16  1  6
 15 18  1  0
 16 17  1  0
 16 64  1  0
 16 65  1  0
 17 66  1  0
 18 19  1  0
 18 67  1  6
 19 20  1  1
 21 20  1  6
 20 68  1  0
 20 69  1  0
 21 33  1  0
 21 22  1  0
 22 23  1  0
 22 24  1  0
 22 70  1  6
 23 71  1  0
 24 25  1  0
 24 72  1  0
 24 73  1  0
 25 34  1  0
 25 26  1  1
 25 27  1  0
 26 74  1  0
 26 75  1  0
 26 76  1  0
 27 28  1  0
 27 29  1  0
 27 30  1  0
 28 77  1  0
 28 78  1  0
 28 79  1  0
 29 80  1  0
 29 81  1  0
 29 82  1  0
 30 31  1  0
 31 44  1  0
 31 32  1  0
 31 83  1  6
 32 33  1  0
 32 84  1  0
 32 85  1  0
 33 34  1  0
 33 86  1  6
 34 35  1  1
 34 36  1  0
 35 87  1  0
 35 88  1  0
 35 89  1  0
 36 37  1  0
 36 90  1  1
 37 38  1  0
 37 39  1  0
 37 91  1  1
 38 92  1  0
 39 40  1  0
 39 93  1  0
 39 94  1  0
 40 41  1  1
 40 42  1  0
 40 44  1  0
 41 95  1  0
 42 43  1  0
 42 96  1  0
 42 97  1  0
 43 98  1  0
 44 99  1  0
 44100  1  0
M  END
>  <i_m_ct_stereo_status>  (34) 
1

>  <s_m_source_file>  (34) 
/var/tmp/pbs.5076255.sched01/tmprv8ptrg5/026yimkau.sdf

>  <i_m_source_file_index>  (34) 
14

>  <i_lp_mmshare_version>  (34) 
48012

>  <i_f3d_flags>  (34) 
0

>  <s_epik_input>  (34) 
W0NIM11bQ0hdKFtDSDNdKVtDQEBIXTFbQ0BIXShbQ0BIXTJbT0hdKVtDQEhdM1tDQEBIXShbT0hdKVtDSDJdW0NAQF0oW09IXSkoW0NIMl1bT0hdKVtDSDJdW0NASF0oW0NIMl00KU9DKFtDSDNdKShbQ0gzXSlbQ0BAXShbQ0gzXSkoW0NIMl1bQ0BASF01W09IXSlDMyhbQ0gzXSlbQ0hdNFtDQEBdNShbQ0gyXTYpW0NAQF0oW0NAQEhdKFtDSDJdNylbT0hdKShbQ0gyXVtPSF0pW0NAQEhdOFtDQEBdMihbQ0BIXTdbQ0BdMTY4KVtDSDJdW09IXQ==

>  <s_epik_cmdline>  (34) 
J2VwaWtfcHl0aG9uJywgJy1waHQnLCAnMi4wJywgJy1waCcsICc3LjAnLCAnLXRuJywgJzgnLCAnLW1hJywgJzIwMCcsICctaW1hZScsICc8aW5maWxlLm1hZT4nLCAnLW9tYWUnLCAnPG91dGZpbGUubWFlPic=

>  <r_lp_tautomer_probability>  (34) 
1

>  <r_epik_Ionization_Penalty>  (34) 
5.36524e-06

>  <r_epik_Ionization_Penalty_Charging>  (34) 
0

>  <r_epik_Ionization_Penalty_Neutral>  (34) 
5.36524e-06

>  <r_epik_State_Penalty>  (34) 
-0

>  <r_epik_Charging_Adjusted_Penalty>  (34) 
0

>  <i_epik_Tot_Q>  (34) 
0

>  <i_epik_Tot_abs_Q>  (34) 
0

>  <s_lp_Force_Field>  (34) 
OPLS3e

>  <r_lp_Energy>  (34) 
624.5

>  <b_lp_Chiralities_Consistent>  (34) 
1

>  <s_lp_Variant>  (34) 
10:0-2

>  <s_i_glide_gridfile>  (34) 
pfpi4k_grid

>  <i_i_glide_lignum>  (34) 
14

>  <i_i_glide_rotatable_bonds>  (34) 
12

>  <r_i_docking_score>  (34) 
-3.43769

>  <r_i_glide_ligand_efficiency>  (34) 
-0.0781293

>  <r_i_glide_ligand_efficiency_sa>  (34) 
-0.275824

>  <r_i_glide_ligand_efficiency_ln>  (34) 
-0.718552

>  <r_i_glide_gscore>  (34) 
-3.43769

>  <r_i_glide_lipo>  (34) 
-0.025765

>  <r_i_glide_hbond>  (34) 
-0.197124

>  <r_i_glide_metal>  (34) 
-0

>  <r_i_glide_rewards>  (34) 
-0.5

>  <r_i_glide_evdw>  (34) 
-22.4095

>  <r_i_glide_ecoul>  (34) 
-10.8419

>  <r_i_glide_erotb>  (34) 
0.0319588

>  <r_i_glide_esite>  (34) 
0

>  <r_i_glide_emodel>  (34) 
-38.5913

>  <r_i_glide_energy>  (34) 
-33.2514

>  <r_i_glide_einternal>  (34) 
13.1365

>  <r_i_glide_intrahb_reward>  (34) 
-0.5

>  <i_i_glide_confnum>  (34) 
2

>  <i_i_glide_posenum>  (34) 
1

>  <r_i_glide_eff_state_penalty>  (34) 
0

>  <ligand_id>  (34) 
10

>  <original_smiles>  (34) 
CC(C)C1C2C(O)C3(CO)C4CC(O)C5(CO)C3C14CC51C(O)CC3(C)C(C)(C)OC4CC1C3(C)C2C(O)CC(O)(CO)C4

>  <smiles>  (34) 
[H]OC([H])([H])C1(O[H])C([H])([H])C2([H])OC(C([H])([H])[H])(C([H])([H])[H])C3(C([H])([H])[H])C([H])([H])C([H])(O[H])C45C([H])([H])C67C([H])(C([H])(C([H])([H])[H])C([H])([H])[H])C([H])(C([H])(O[H])C8(C([H])([H])O[H])C6([H])C([H])([H])C([H])(O[H])C4(C([H])([H])O[H])C87[H])C([H])(C([H])(O[H])C1([H])[H])C3(C([H])([H])[H])C5([H])C2([H])[H]

$$$$
10:1:1
     RDKit          3D

100107  0  0  1  0  0  0  0  0999 V2000
    1.9215   -5.8679    0.2437 C   0  0  0  0  0  0  0  0  0  0  0  0
    1.5728   -6.9435    1.2829 C   0  0  0  0  0  0  0  0  0  0  0  0
    0.0465   -7.1653    1.2611 C   0  0  0  0  0  0  0  0  0  0  0  0
    2.0921   -6.5577    2.7147 C   0  0  2  0  0  0  0  0  0  0  0  0
    3.5316   -6.0258    2.9458 C   0  0  2  0  0  0  0  0  0  0  0  0
    4.1820   -7.3922    2.3761 C   0  0  1  0  0  0  0  0  0  0  0  0
    5.5873   -7.2641    2.4571 O   0  0  0  0  0  0  0  0  0  0  0  0
    3.6062   -8.7433    3.0739 C   0  0  1  0  0  0  0  0  0  0  0  0
    4.3899   -9.9736    2.5481 C   0  0  0  0  0  0  0  0  0  0  0  0
    3.7589  -11.2000    2.8842 O   0  0  0  0  0  0  0  0  0  0  0  0
    3.5651   -8.2411    4.4220 C   0  0  2  0  0  0  0  0  0  0  0  0
    4.0017   -9.3046    5.4986 C   0  0  0  0  0  0  0  0  0  0  0  0
    2.7905   -9.8993    6.0983 C   0  0  1  0  0  0  0  0  0  0  0  0
    2.7414   -9.8609    7.5105 O   0  0  0  0  0  0  0  0  0  0  0  0
    1.6388   -9.2252    5.3580 C   0  0  2  0  0  0  0  0  0  0  0  0
    0.4627  -10.2295    5.5705 C   0  0  0  0  0  0  0  0  0  0  0  0
    0.6522  -11.4284    4.8470 O   0  0  0  0  0  0  0  0  0  0  0  0
    2.1114   -9.0987    3.7371 C   0  0  1  0  0  0  0  0  0  0  0  0
    2.0293   -7.6916    3.7780 C   0  0  2  0  0  0  0  0  0  0  0  0
    0.6940   -7.4960    4.5385 C   0  0  0  0  0  0  0  0  0  0  0  0
    1.2981   -7.6336    5.9098 C   0  0  1  0  0  0  0  0  0  0  0  0
    0.7702   -7.3102    7.3487 C   0  0  1  0  0  0  0  0  0  0  0  0
    0.4786   -8.4634    8.1000 O   0  0  0  0  0  0  0  0  0  0  0  0
    1.7865   -6.3959    8.2292 C   0  0  0  0  0  0  0  0  0  0  0  0
    2.7541   -5.1607    7.6349 C   0  0  2  0  0  0  0  0  0  0  0  0
    3.8213   -5.2013    8.8204 C   0  0  0  0  0  0  0  0  0  0  0  0
    2.2496   -3.6102    7.8926 C   0  0  0  0  0  0  0  0  0  0  0  0
    1.5398   -3.3166    9.2367 C   0  0  0  0  0  0  0  0  0  0  0  0
    3.4157   -2.5918    7.7763 C   0  0  0  0  0  0  0  0  0  0  0  0
    1.2272   -3.0572    7.0675 O   0  0  0  0  0  0  0  0  0  0  0  0
    1.2584   -3.5357    5.7687 C   0  0  1  0  0  0  0  0  0  0  0  0
    0.6947   -4.9447    5.8892 C   0  0  0  0  0  0  0  0  0  0  0  0
    1.8281   -6.0940    5.7210 C   0  0  1  0  0  0  0  0  0  0  0  0
    3.2740   -5.6775    6.0722 C   0  0  2  0  0  0  0  0  0  0  0  0
    4.4640   -6.5420    6.6158 C   0  0  0  0  0  0  0  0  0  0  0  0
    3.8688   -5.2087    4.4624 C   0  0  2  0  0  0  0  0  0  0  0  0
    4.0066   -3.6773    4.1018 C   0  0  1  0  0  0  0  0  0  0  0  0
    5.2146   -3.5135    3.3900 O   0  0  0  0  0  0  0  0  0  0  0  0
    2.8885   -2.9897    3.2359 C   0  0  0  0  0  0  0  0  0  0  0  0
    1.9257   -1.9180    3.8770 C   0  0  1  0  0  0  0  0  0  0  0  0
    2.5881   -1.0478    4.7774 O   0  0  0  0  0  0  0  0  0  0  0  0
    1.3068   -0.9745    2.8015 C   0  0  0  0  0  0  0  0  0  0  0  0
    2.2640   -0.3626    1.9602 O   0  0  0  0  0  0  0  0  0  0  0  0
    0.7538   -2.5843    4.6630 C   0  0  0  0  0  0  0  0  0  0  0  0
    1.6127   -4.8745    0.5549 H   0  0  0  0  0  0  0  0  0  0  0  0
    1.4354   -6.0790   -0.7078 H   0  0  0  0  0  0  0  0  0  0  0  0
    2.9920   -5.8106    0.0496 H   0  0  0  0  0  0  0  0  0  0  0  0
    1.9918   -7.8949    0.9614 H   0  0  0  0  0  0  0  0  0  0  0  0
   -0.4941   -6.2768    1.5847 H   0  0  0  0  0  0  0  0  0  0  0  0
   -0.2479   -7.9978    1.8981 H   0  0  0  0  0  0  0  0  0  0  0  0
   -0.3044   -7.4092    0.2569 H   0  0  0  0  0  0  0  0  0  0  0  0
    1.4149   -5.7224    2.8984 H   0  0  0  0  0  0  0  0  0  0  0  0
    3.7567   -5.3002    2.1759 H   0  0  0  0  0  0  0  0  0  0  0  0
    4.0410   -7.4626    1.3036 H   0  0  0  0  0  0  0  0  0  0  0  0
    5.9895   -8.0304    2.0905 H   0  0  0  0  0  0  0  0  0  0  0  0
    4.4715   -9.9372    1.4654 H   0  0  0  0  0  0  0  0  0  0  0  0
    5.4133   -9.9980    2.9247 H   0  0  0  0  0  0  0  0  0  0  0  0
    3.8384  -11.7950    2.1233 H   0  0  0  0  0  0  0  0  0  0  0  0
    4.3666   -7.5788    4.4325 H   0  0  0  0  0  0  0  0  0  0  0  0
    4.5823  -10.1219    5.0619 H   0  0  0  0  0  0  0  0  0  0  0  0
    4.7148   -8.9660    6.2454 H   0  0  0  0  0  0  0  0  0  0  0  0
    2.8695  -10.9590    5.8499 H   0  0  0  0  0  0  0  0  0  0  0  0
    2.3730  -10.7080    7.7799 H   0  0  0  0  0  0  0  0  0  0  0  0
    0.3791  -10.5356    6.6106 H   0  0  0  0  0  0  0  0  0  0  0  0
   -0.5077   -9.8087    5.3495 H   0  0  0  0  0  0  0  0  0  0  0  0
    1.0751  -12.0488    5.4200 H   0  0  0  0  0  0  0  0  0  0  0  0
    1.4191   -9.5057    3.0067 H   0  0  0  0  0  0  0  0  0  0  0  0
    0.1005   -6.6507    4.2340 H   0  0  0  0  0  0  0  0  0  0  0  0
   -0.0492   -8.2203    4.2169 H   0  0  0  0  0  0  0  0  0  0  0  0
   -0.2149   -6.8645    7.2806 H   0  0  0  0  0  0  0  0  0  0  0  0
    1.2536   -9.0082    8.0390 H   0  0  0  0  0  0  0  0  0  0  0  0
    1.1703   -5.9809    9.0196 H   0  0  0  0  0  0  0  0  0  0  0  0
    2.4112   -7.1276    8.7460 H   0  0  0  0  0  0  0  0  0  0  0  0
    4.6791   -4.5420    8.6866 H   0  0  0  0  0  0  0  0  0  0  0  0
    4.2463   -6.1783    9.0513 H   0  0  0  0  0  0  0  0  0  0  0  0
    3.3873   -4.9726    9.7864 H   0  0  0  0  0  0  0  0  0  0  0  0
    2.1512   -3.4269   10.1256 H   0  0  0  0  0  0  0  0  0  0  0  0
    0.6345   -3.9050    9.3708 H   0  0  0  0  0  0  0  0  0  0  0  0
    1.2348   -2.2729    9.2679 H   0  0  0  0  0  0  0  0  0  0  0  0
    3.9182   -2.4509    8.7313 H   0  0  0  0  0  0  0  0  0  0  0  0
    3.0671   -1.6070    7.4743 H   0  0  0  0  0  0  0  0  0  0  0  0
    4.1814   -2.9146    7.0778 H   0  0  0  0  0  0  0  0  0  0  0  0
    2.2957   -3.5681    5.6159 H   0  0  0  0  0  0  0  0  0  0  0  0
    0.1397   -4.9554    6.8246 H   0  0  0  0  0  0  0  0  0  0  0  0
   -0.1300   -4.9752    5.1843 H   0  0  0  0  0  0  0  0  0  0  0  0
    1.8144   -5.6372    4.7812 H   0  0  0  0  0  0  0  0  0  0  0  0
    5.2358   -6.9320    5.9752 H   0  0  0  0  0  0  0  0  0  0  0  0
    4.1479   -7.3272    7.2979 H   0  0  0  0  0  0  0  0  0  0  0  0
    5.2130   -5.9154    7.0874 H   0  0  0  0  0  0  0  0  0  0  0  0
    4.9292   -5.4289    4.5664 H   0  0  0  0  0  0  0  0  0  0  0  0
    4.2094   -3.0956    4.9922 H   0  0  0  0  0  0  0  0  0  0  0  0
    5.1416   -3.9298    2.5529 H   0  0  0  0  0  0  0  0  0  0  0  0
    3.4063   -2.4974    2.4165 H   0  0  0  0  0  0  0  0  0  0  0  0
    2.2550   -3.7066    2.7170 H   0  0  0  0  0  0  0  0  0  0  0  0
    3.0023   -1.5550    5.4495 H   0  0  0  0  0  0  0  0  0  0  0  0
    0.6498   -1.5409    2.1453 H   0  0  0  0  0  0  0  0  0  0  0  0
    0.6946   -0.1871    3.2481 H   0  0  0  0  0  0  0  0  0  0  0  0
    1.8681   -0.1765    1.1248 H   0  0  0  0  0  0  0  0  0  0  0  0
    0.1233   -3.1315    3.9544 H   0  0  0  0  0  0  0  0  0  0  0  0
    0.1060   -1.8214    5.1080 H   0  0  0  0  0  0  0  0  0  0  0  0
  1  2  1  0
  1 45  1  0
  1 46  1  0
  1 47  1  0
  2  3  1  0
  2  4  1  0
  2 48  1  0
  3 49  1  0
  3 50  1  0
  3 51  1  0
  4 19  1  0
  4  5  1  0
  4 52  1  1
  5 36  1  0
  5  6  1  0
  5 53  1  6
  6  7  1  0
  6  8  1  0
  6 54  1  6
  7 55  1  0
  8 18  1  0
  8  9  1  1
  8 11  1  0
  9 10  1  0
  9 56  1  0
  9 57  1  0
 10 58  1  0
 11 19  1  0
 11 12  1  0
 11 59  1  6
 12 13  1  0
 12 60  1  0
 12 61  1  0
 13 14  1  0
 13 15  1  0
 13 62  1  1
 14 63  1  0
 15 21  1  0
 15 16  1  6
 15 18  1  0
 16 17  1  0
 16 64  1  0
 16 65  1  0
 17 66  1  0
 18 19  1  0
 18 67  1  6
 19 20  1  1
 21 20  1  6
 20 68  1  0
 20 69  1  0
 21 33  1  0
 21 22  1  0
 22 23  1  0
 22 24  1  0
 22 70  1  6
 23 71  1  0
 24 25  1  0
 24 72  1  0
 24 73  1  0
 25 34  1  0
 25 26  1  1
 25 27  1  0
 26 74  1  0
 26 75  1  0
 26 76  1  0
 27 28  1  0
 27 29  1  0
 27 30  1  0
 28 77  1  0
 28 78  1  0
 28 79  1  0
 29 80  1  0
 29 81  1  0
 29 82  1  0
 30 31  1  0
 31 44  1  0
 31 32  1  0
 31 83  1  6
 32 33  1  0
 32 84  1  0
 32 85  1  0
 33 34  1  0
 33 86  1  6
 34 35  1  1
 34 36  1  0
 35 87  1  0
 35 88  1  0
 35 89  1  0
 36 37  1  0
 36 90  1  1
 37 38  1  0
 37 39  1  0
 37 91  1  1
 38 92  1  0
 39 40  1  0
 39 93  1  0
 39 94  1  0
 40 41  1  1
 40 42  1  0
 40 44  1  0
 41 95  1  0
 42 43  1  0
 42 96  1  0
 42 97  1  0
 43 98  1  0
 44 99  1  0
 44100  1  0
M  END
>  <i_m_ct_stereo_status>  (35) 
1

>  <s_m_source_file>  (35) 
/var/tmp/pbs.5076255.sched01/tmprv8ptrg5/026yimkau.sdf

>  <i_m_source_file_index>  (35) 
14

>  <i_lp_mmshare_version>  (35) 
48012

>  <i_f3d_flags>  (35) 
0

>  <s_epik_input>  (35) 
W0NIM11bQ0hdKFtDSDNdKVtDQEBIXTFbQ0BIXShbQ0BIXTJbT0hdKVtDQEhdM1tDQEBIXShbT0hdKVtDSDJdW0NAQF0oW09IXSkoW0NIMl1bT0hdKVtDSDJdW0NASF0oW0NIMl00KU9DKFtDSDNdKShbQ0gzXSlbQ0BAXShbQ0gzXSkoW0NIMl1bQ0BASF01W09IXSlDMyhbQ0gzXSlbQ0hdNFtDQEBdNShbQ0gyXTYpW0NAQF0oW0NAQEhdKFtDSDJdNylbT0hdKShbQ0gyXVtPSF0pW0NAQEhdOFtDQEBdMihbQ0BIXTdbQ0BdMTY4KVtDSDJdW09IXQ==

>  <s_epik_cmdline>  (35) 
J2VwaWtfcHl0aG9uJywgJy1waHQnLCAnMi4wJywgJy1waCcsICc3LjAnLCAnLXRuJywgJzgnLCAnLW1hJywgJzIwMCcsICctaW1hZScsICc8aW5maWxlLm1hZT4nLCAnLW9tYWUnLCAnPG91dGZpbGUubWFlPic=

>  <r_lp_tautomer_probability>  (35) 
1

>  <r_epik_Ionization_Penalty>  (35) 
5.36524e-06

>  <r_epik_Ionization_Penalty_Charging>  (35) 
0

>  <r_epik_Ionization_Penalty_Neutral>  (35) 
5.36524e-06

>  <r_epik_State_Penalty>  (35) 
-0

>  <r_epik_Charging_Adjusted_Penalty>  (35) 
0

>  <i_epik_Tot_Q>  (35) 
0

>  <i_epik_Tot_abs_Q>  (35) 
0

>  <s_lp_Force_Field>  (35) 
OPLS3e

>  <r_lp_Energy>  (35) 
624.5

>  <b_lp_Chiralities_Consistent>  (35) 
1

>  <s_lp_Variant>  (35) 
10:0-2

>  <s_i_glide_gridfile>  (35) 
pfpi4k_grid

>  <i_i_glide_lignum>  (35) 
14

>  <i_i_glide_rotatable_bonds>  (35) 
12

>  <r_i_docking_score>  (35) 
-3.39217

>  <r_i_glide_ligand_efficiency>  (35) 
-0.0770949

>  <r_i_glide_ligand_efficiency_sa>  (35) 
-0.272172

>  <r_i_glide_ligand_efficiency_ln>  (35) 
-0.709038

>  <r_i_glide_gscore>  (35) 
-3.39217

>  <r_i_glide_lipo>  (35) 
-0.0214211

>  <r_i_glide_hbond>  (35) 
-0.204171

>  <r_i_glide_metal>  (35) 
-0

>  <r_i_glide_rewards>  (35) 
-0.5

>  <r_i_glide_evdw>  (35) 
-22.2482

>  <r_i_glide_ecoul>  (35) 
-10.5742

>  <r_i_glide_erotb>  (35) 
0.0319588

>  <r_i_glide_esite>  (35) 
0

>  <r_i_glide_emodel>  (35) 
-38.512

>  <r_i_glide_energy>  (35) 
-32.8224

>  <r_i_glide_einternal>  (35) 
12.9574

>  <r_i_glide_intrahb_reward>  (35) 
-0.5

>  <i_i_glide_confnum>  (35) 
2

>  <i_i_glide_posenum>  (35) 
6

>  <r_i_glide_eff_state_penalty>  (35) 
0

>  <ligand_id>  (35) 
10

>  <original_smiles>  (35) 
CC(C)C1C2C(O)C3(CO)C4CC(O)C5(CO)C3C14CC51C(O)CC3(C)C(C)(C)OC4CC1C3(C)C2C(O)CC(O)(CO)C4

>  <smiles>  (35) 
[H]OC([H])([H])C1(O[H])C([H])([H])C2([H])OC(C([H])([H])[H])(C([H])([H])[H])C3(C([H])([H])[H])C([H])([H])C([H])(O[H])C45C([H])([H])C67C([H])(C([H])(C([H])([H])[H])C([H])([H])[H])C([H])(C([H])(O[H])C8(C([H])([H])O[H])C6([H])C([H])([H])C([H])(O[H])C4(C([H])([H])O[H])C87[H])C([H])(C([H])(O[H])C1([H])[H])C3(C([H])([H])[H])C5([H])C2([H])[H]

$$$$
10:1:2
     RDKit          3D

100107  0  0  1  0  0  0  0  0999 V2000
    1.8666   -5.7935    0.0985 C   0  0  0  0  0  0  0  0  0  0  0  0
    1.5088   -6.7967    1.2061 C   0  0  0  0  0  0  0  0  0  0  0  0
   -0.0223   -6.9956    1.2226 C   0  0  0  0  0  0  0  0  0  0  0  0
    2.0630   -6.3469    2.6060 C   0  0  2  0  0  0  0  0  0  0  0  0
    3.5038   -5.7968    2.7769 C   0  0  2  0  0  0  0  0  0  0  0  0
    4.1496   -7.1803    2.2372 C   0  0  1  0  0  0  0  0  0  0  0  0
    5.5563   -7.0450    2.2442 O   0  0  0  0  0  0  0  0  0  0  0  0
    3.6093   -8.5042    2.9985 C   0  0  1  0  0  0  0  0  0  0  0  0
    4.3913   -9.7425    2.4870 C   0  0  0  0  0  0  0  0  0  0  0  0
    3.7960  -10.9734    2.8759 O   0  0  0  0  0  0  0  0  0  0  0  0
    3.6022   -7.9581    4.3255 C   0  0  2  0  0  0  0  0  0  0  0  0
    4.0823   -8.9831    5.4253 C   0  0  0  0  0  0  0  0  0  0  0  0
    2.8926   -9.5595    6.0831 C   0  0  1  0  0  0  0  0  0  0  0  0
    2.9046   -9.4567    7.4964 O   0  0  0  0  0  0  0  0  0  0  0  0
    1.7172   -8.9137    5.3600 C   0  0  2  0  0  0  0  0  0  0  0  0
    0.5579   -9.9137    5.6554 C   0  0  0  0  0  0  0  0  0  0  0  0
    0.6087  -11.0329    4.8102 O   0  0  0  0  0  0  0  0  0  0  0  0
    2.1394   -8.8469    3.7192 C   0  0  1  0  0  0  0  0  0  0  0  0
    2.0404   -7.4405    3.7120 C   0  0  2  0  0  0  0  0  0  0  0  0
    0.7288   -7.2340    4.5075 C   0  0  0  0  0  0  0  0  0  0  0  0
    1.3806   -7.3092    5.8656 C   0  0  1  0  0  0  0  0  0  0  0  0
    0.8840   -6.9390    7.3066 C   0  0  1  0  0  0  0  0  0  0  0  0
    0.6544   -8.0642    8.1183 O   0  0  0  0  0  0  0  0  0  0  0  0
    1.9266   -5.9890    8.1168 C   0  0  0  0  0  0  0  0  0  0  0  0
    2.8625   -4.7674    7.4484 C   0  0  2  0  0  0  0  0  0  0  0  0
    3.9686   -4.7529    8.5970 C   0  0  0  0  0  0  0  0  0  0  0  0
    2.3515   -3.2145    7.6681 C   0  0  0  0  0  0  0  0  0  0  0  0
    1.6844   -2.8767    9.0212 C   0  0  0  0  0  0  0  0  0  0  0  0
    3.5012   -2.1900    7.4730 C   0  0  0  0  0  0  0  0  0  0  0  0
    1.2867   -2.7111    6.8651 O   0  0  0  0  0  0  0  0  0  0  0  0
    1.2989   -3.2214    5.5767 C   0  0  1  0  0  0  0  0  0  0  0  0
    0.7519   -4.6335    5.7615 C   0  0  0  0  0  0  0  0  0  0  0  0
    1.8896   -5.7776    5.6006 C   0  0  1  0  0  0  0  0  0  0  0  0
    3.3400   -5.3343    5.8921 C   0  0  2  0  0  0  0  0  0  0  0  0
    4.5571   -6.1679    6.4262 C   0  0  0  0  0  0  0  0  0  0  0  0
    3.8774   -4.9197    4.2481 C   0  0  2  0  0  0  0  0  0  0  0  0
    3.9913   -3.3995    3.8256 C   0  0  1  0  0  0  0  0  0  0  0  0
    5.1758   -3.2605    3.0688 O   0  0  0  0  0  0  0  0  0  0  0  0
    2.8403   -2.7595    2.9686 C   0  0  0  0  0  0  0  0  0  0  0  0
    1.8970   -1.6742    3.6032 C   0  0  1  0  0  0  0  0  0  0  0  0
    2.6091   -0.7597    4.4048 O   0  0  0  0  0  0  0  0  0  0  0  0
    1.2422   -0.7839    2.5142 C   0  0  0  0  0  0  0  0  0  0  0  0
    2.1887   -0.1401    1.6852 O   0  0  0  0  0  0  0  0  0  0  0  0
    0.7545   -2.3129    4.4534 C   0  0  0  0  0  0  0  0  0  0  0  0
    1.5827   -4.7761    0.3399 H   0  0  0  0  0  0  0  0  0  0  0  0
    1.3846   -6.0434   -0.8408 H   0  0  0  0  0  0  0  0  0  0  0  0
    2.9338   -5.7636   -0.1107 H   0  0  0  0  0  0  0  0  0  0  0  0
    1.9109   -7.7712    0.9300 H   0  0  0  0  0  0  0  0  0  0  0  0
   -0.5370   -6.0877    1.5168 H   0  0  0  0  0  0  0  0  0  0  0  0
   -0.3224   -7.7832    1.9112 H   0  0  0  0  0  0  0  0  0  0  0  0
   -0.4030   -7.2739    0.2390 H   0  0  0  0  0  0  0  0  0  0  0  0
    1.3838   -5.5113    2.7800 H   0  0  0  0  0  0  0  0  0  0  0  0
    3.6988   -5.0971    1.9728 H   0  0  0  0  0  0  0  0  0  0  0  0
    3.9699   -7.2959    1.1746 H   0  0  0  0  0  0  0  0  0  0  0  0
    5.8563   -7.0019    3.1343 H   0  0  0  0  0  0  0  0  0  0  0  0
    4.4384   -9.7411    1.4013 H   0  0  0  0  0  0  0  0  0  0  0  0
    5.4262   -9.7464    2.8244 H   0  0  0  0  0  0  0  0  0  0  0  0
    3.8436  -11.5716    2.1437 H   0  0  0  0  0  0  0  0  0  0  0  0
    4.3901   -7.2799    4.2931 H   0  0  0  0  0  0  0  0  0  0  0  0
    4.6496   -9.8154    5.0003 H   0  0  0  0  0  0  0  0  0  0  0  0
    4.8100   -8.6084    6.1383 H   0  0  0  0  0  0  0  0  0  0  0  0
    2.9433  -10.6306    5.8676 H   0  0  0  0  0  0  0  0  0  0  0  0
    2.5546  -10.2800    7.8225 H   0  0  0  0  0  0  0  0  0  0  0  0
    0.5976  -10.2608    6.6936 H   0  0  0  0  0  0  0  0  0  0  0  0
   -0.4288   -9.4820    5.5517 H   0  0  0  0  0  0  0  0  0  0  0  0
   -0.2543  -11.4442    4.8802 H   0  0  0  0  0  0  0  0  0  0  0  0
    1.4307   -9.2824    3.0211 H   0  0  0  0  0  0  0  0  0  0  0  0
    0.1151   -6.4115    4.1927 H   0  0  0  0  0  0  0  0  0  0  0  0
   -0.0190   -7.9858    4.2462 H   0  0  0  0  0  0  0  0  0  0  0  0
   -0.1178   -6.5209    7.2526 H   0  0  0  0  0  0  0  0  0  0  0  0
    1.4660   -8.5580    8.0967 H   0  0  0  0  0  0  0  0  0  0  0  0
    1.3305   -5.5481    8.9109 H   0  0  0  0  0  0  0  0  0  0  0  0
    2.5744   -6.6933    8.6394 H   0  0  0  0  0  0  0  0  0  0  0  0
    4.8139   -4.0893    8.4092 H   0  0  0  0  0  0  0  0  0  0  0  0
    4.4124   -5.7167    8.8505 H   0  0  0  0  0  0  0  0  0  0  0  0
    3.5626   -4.4919    9.5671 H   0  0  0  0  0  0  0  0  0  0  0  0
    2.3258   -2.9462    9.8922 H   0  0  0  0  0  0  0  0  0  0  0  0
    0.7898   -3.4678    9.2065 H   0  0  0  0  0  0  0  0  0  0  0  0
    1.3717   -1.8350    9.0199 H   0  0  0  0  0  0  0  0  0  0  0  0
    4.0330   -2.0046    8.4033 H   0  0  0  0  0  0  0  0  0  0  0  0
    3.1312   -1.2247    7.1344 H   0  0  0  0  0  0  0  0  0  0  0  0
    4.2465   -2.5310    6.7617 H   0  0  0  0  0  0  0  0  0  0  0  0
    2.3334   -3.2426    5.3986 H   0  0  0  0  0  0  0  0  0  0  0  0
    0.2246   -4.6226    6.7134 H   0  0  0  0  0  0  0  0  0  0  0  0
   -0.0932   -4.6969    5.0824 H   0  0  0  0  0  0  0  0  0  0  0  0
    1.8387   -5.3577    4.6454 H   0  0  0  0  0  0  0  0  0  0  0  0
    5.3123   -6.5763    5.7773 H   0  0  0  0  0  0  0  0  0  0  0  0
    4.2716   -6.9303    7.1461 H   0  0  0  0  0  0  0  0  0  0  0  0
    5.3153   -5.5174    6.8474 H   0  0  0  0  0  0  0  0  0  0  0  0
    4.9442   -5.1209    4.3321 H   0  0  0  0  0  0  0  0  0  0  0  0
    4.2085   -2.7758    4.6859 H   0  0  0  0  0  0  0  0  0  0  0  0
    5.0867   -3.7301    2.2605 H   0  0  0  0  0  0  0  0  0  0  0  0
    3.3253   -2.2908    2.1153 H   0  0  0  0  0  0  0  0  0  0  0  0
    2.1951   -3.4996    2.4993 H   0  0  0  0  0  0  0  0  0  0  0  0
    3.1722   -0.2808    3.8185 H   0  0  0  0  0  0  0  0  0  0  0  0
    0.6465   -1.4042    1.8520 H   0  0  0  0  0  0  0  0  0  0  0  0
    0.5760   -0.0260    2.9358 H   0  0  0  0  0  0  0  0  0  0  0  0
    1.8200   -0.0942    0.8165 H   0  0  0  0  0  0  0  0  0  0  0  0
    0.1087   -2.8944    3.7861 H   0  0  0  0  0  0  0  0  0  0  0  0
    0.1126   -1.5426    4.8919 H   0  0  0  0  0  0  0  0  0  0  0  0
  1  2  1  0
  1 45  1  0
  1 46  1  0
  1 47  1  0
  2  3  1  0
  2  4  1  0
  2 48  1  0
  3 49  1  0
  3 50  1  0
  3 51  1  0
  4 19  1  0
  4  5  1  0
  4 52  1  1
  5 36  1  0
  5  6  1  0
  5 53  1  6
  6  7  1  0
  6  8  1  0
  6 54  1  6
  7 55  1  0
  8 18  1  0
  8  9  1  1
  8 11  1  0
  9 10  1  0
  9 56  1  0
  9 57  1  0
 10 58  1  0
 11 19  1  0
 11 12  1  0
 11 59  1  6
 12 13  1  0
 12 60  1  0
 12 61  1  0
 13 14  1  0
 13 15  1  0
 13 62  1  1
 14 63  1  0
 15 21  1  0
 15 16  1  6
 15 18  1  0
 16 17  1  0
 16 64  1  0
 16 65  1  0
 17 66  1  0
 18 19  1  0
 18 67  1  6
 19 20  1  1
 21 20  1  6
 20 68  1  0
 20 69  1  0
 21 33  1  0
 21 22  1  0
 22 23  1  0
 22 24  1  0
 22 70  1  6
 23 71  1  0
 24 25  1  0
 24 72  1  0
 24 73  1  0
 25 34  1  0
 25 26  1  1
 25 27  1  0
 26 74  1  0
 26 75  1  0
 26 76  1  0
 27 28  1  0
 27 29  1  0
 27 30  1  0
 28 77  1  0
 28 78  1  0
 28 79  1  0
 29 80  1  0
 29 81  1  0
 29 82  1  0
 30 31  1  0
 31 44  1  0
 31 32  1  0
 31 83  1  6
 32 33  1  0
 32 84  1  0
 32 85  1  0
 33 34  1  0
 33 86  1  6
 34 35  1  1
 34 36  1  0
 35 87  1  0
 35 88  1  0
 35 89  1  0
 36 37  1  0
 36 90  1  1
 37 38  1  0
 37 39  1  0
 37 91  1  1
 38 92  1  0
 39 40  1  0
 39 93  1  0
 39 94  1  0
 40 41  1  1
 40 42  1  0
 40 44  1  0
 41 95  1  0
 42 43  1  0
 42 96  1  0
 42 97  1  0
 43 98  1  0
 44 99  1  0
 44100  1  0
M  END
>  <i_m_ct_stereo_status>  (36) 
1

>  <s_m_source_file>  (36) 
/var/tmp/pbs.5076255.sched01/tmprv8ptrg5/026yimkau.sdf

>  <i_m_source_file_index>  (36) 
14

>  <i_lp_mmshare_version>  (36) 
48012

>  <i_f3d_flags>  (36) 
0

>  <s_epik_input>  (36) 
W0NIM11bQ0hdKFtDSDNdKVtDQEBIXTFbQ0BIXShbQ0BIXTJbT0hdKVtDQEhdM1tDQEBIXShbT0hdKVtDSDJdW0NAQF0oW09IXSkoW0NIMl1bT0hdKVtDSDJdW0NASF0oW0NIMl00KU9DKFtDSDNdKShbQ0gzXSlbQ0BAXShbQ0gzXSkoW0NIMl1bQ0BASF01W09IXSlDMyhbQ0gzXSlbQ0hdNFtDQEBdNShbQ0gyXTYpW0NAQF0oW0NAQEhdKFtDSDJdNylbT0hdKShbQ0gyXVtPSF0pW0NAQEhdOFtDQEBdMihbQ0BIXTdbQ0BdMTY4KVtDSDJdW09IXQ==

>  <s_epik_cmdline>  (36) 
J2VwaWtfcHl0aG9uJywgJy1waHQnLCAnMi4wJywgJy1waCcsICc3LjAnLCAnLXRuJywgJzgnLCAnLW1hJywgJzIwMCcsICctaW1hZScsICc8aW5maWxlLm1hZT4nLCAnLW9tYWUnLCAnPG91dGZpbGUubWFlPic=

>  <r_lp_tautomer_probability>  (36) 
1

>  <r_epik_Ionization_Penalty>  (36) 
5.36524e-06

>  <r_epik_Ionization_Penalty_Charging>  (36) 
0

>  <r_epik_Ionization_Penalty_Neutral>  (36) 
5.36524e-06

>  <r_epik_State_Penalty>  (36) 
-0

>  <r_epik_Charging_Adjusted_Penalty>  (36) 
0

>  <i_epik_Tot_Q>  (36) 
0

>  <i_epik_Tot_abs_Q>  (36) 
0

>  <s_lp_Force_Field>  (36) 
OPLS3e

>  <r_lp_Energy>  (36) 
624.5

>  <b_lp_Chiralities_Consistent>  (36) 
1

>  <s_lp_Variant>  (36) 
10:0-2

>  <s_i_glide_gridfile>  (36) 
pfpi4k_grid

>  <i_i_glide_lignum>  (36) 
14

>  <i_i_glide_rotatable_bonds>  (36) 
12

>  <r_i_docking_score>  (36) 
-3.36472

>  <r_i_glide_ligand_efficiency>  (36) 
-0.076471

>  <r_i_glide_ligand_efficiency_sa>  (36) 
-0.269969

>  <r_i_glide_ligand_efficiency_ln>  (36) 
-0.703301

>  <r_i_glide_gscore>  (36) 
-3.36472

>  <r_i_glide_lipo>  (36) 
-0.0397993

>  <r_i_glide_hbond>  (36) 
-0.276827

>  <r_i_glide_metal>  (36) 
-0

>  <r_i_glide_rewards>  (36) 
-0.5

>  <r_i_glide_evdw>  (36) 
-23.5797

>  <r_i_glide_ecoul>  (36) 
-9.34046

>  <r_i_glide_erotb>  (36) 
0.0319588

>  <r_i_glide_esite>  (36) 
0

>  <r_i_glide_emodel>  (36) 
-38.7177

>  <r_i_glide_energy>  (36) 
-32.9202

>  <r_i_glide_einternal>  (36) 
12.695

>  <r_i_glide_intrahb_reward>  (36) 
-0.5

>  <i_i_glide_confnum>  (36) 
2

>  <i_i_glide_posenum>  (36) 
17

>  <r_i_glide_eff_state_penalty>  (36) 
0

>  <ligand_id>  (36) 
10

>  <original_smiles>  (36) 
CC(C)C1C2C(O)C3(CO)C4CC(O)C5(CO)C3C14CC51C(O)CC3(C)C(C)(C)OC4CC1C3(C)C2C(O)CC(O)(CO)C4

>  <smiles>  (36) 
[H]OC([H])([H])C1(O[H])C([H])([H])C2([H])OC(C([H])([H])[H])(C([H])([H])[H])C3(C([H])([H])[H])C([H])([H])C([H])(O[H])C45C([H])([H])C67C([H])(C([H])(C([H])([H])[H])C([H])([H])[H])C([H])(C([H])(O[H])C8(C([H])([H])O[H])C6([H])C([H])([H])C([H])(O[H])C4(C([H])([H])O[H])C87[H])C([H])(C([H])(O[H])C1([H])[H])C3(C([H])([H])[H])C5([H])C2([H])[H]

$$$$
11:0:0
     RDKit          3D

 44 47  0  0  1  0  0  0  0  0999 V2000
    7.1594   -2.9943   -2.0569 C   0  0  0  0  0  0  0  0  0  0  0  0
    6.1811   -3.1114   -1.1564 C   0  0  0  0  0  0  0  0  0  0  0  0
    5.5208   -4.2426   -0.6199 C   0  0  2  0  0  0  0  0  0  0  0  0
    4.1531   -3.5800   -1.2460 C   0  0  0  0  0  0  0  0  0  0  0  0
    4.0962   -1.9311   -0.9208 C   0  0  1  0  0  0  0  0  0  0  0  0
    3.9947   -1.0301   -2.1546 C   0  0  0  0  0  0  0  0  0  0  0  0
    3.3242   -1.2412   -3.3128 C   0  0  0  0  0  0  0  0  0  0  0  0
    2.4724   -2.4637   -3.6328 C   0  0  0  0  0  0  0  0  0  0  0  0
    3.3808   -0.2265   -4.4372 C   0  0  0  0  0  0  0  0  0  0  0  0
    4.0537   -1.0729    0.5639 C   0  0  1  0  0  0  0  0  0  0  0  0
    3.1808   -1.9073    1.2963 C   0  0  0  0  0  0  0  0  0  0  0  0
    4.4468   -2.6892    0.9724 C   0  0  2  0  0  0  0  0  0  0  0  0
    5.4639   -2.8406    1.9146 C   0  0  2  0  0  0  0  0  0  0  0  0
    5.2615   -1.2352    1.7592 C   0  0  0  0  0  0  0  0  0  0  0  0
    6.0284   -4.1056    0.9787 C   0  0  0  0  0  0  0  0  0  0  0  0
    5.6302   -5.4475    1.6382 C   0  0  0  0  0  0  0  0  0  0  0  0
    7.5758   -4.0863    1.0499 C   0  0  0  0  0  0  0  0  0  0  0  0
    5.3538   -2.1157   -0.4483 C   0  0  1  0  0  0  0  0  0  0  0  0
    7.5094   -2.0339   -2.3824 H   0  0  0  0  0  0  0  0  0  0  0  0
    7.5797   -3.8491   -2.5458 H   0  0  0  0  0  0  0  0  0  0  0  0
    5.7835   -5.1886   -1.0740 H   0  0  0  0  0  0  0  0  0  0  0  0
    4.1889   -3.7626   -2.3321 H   0  0  0  0  0  0  0  0  0  0  0  0
    3.2494   -4.1045   -0.9370 H   0  0  0  0  0  0  0  0  0  0  0  0
    4.5465   -0.1036   -2.0552 H   0  0  0  0  0  0  0  0  0  0  0  0
    2.9040   -2.9932   -4.4753 H   0  0  0  0  0  0  0  0  0  0  0  0
    1.4726   -2.1877   -3.9629 H   0  0  0  0  0  0  0  0  0  0  0  0
    2.3543   -3.1736   -2.8053 H   0  0  0  0  0  0  0  0  0  0  0  0
    3.8128   -0.6663   -5.3316 H   0  0  0  0  0  0  0  0  0  0  0  0
    3.9531    0.6646   -4.1909 H   0  0  0  0  0  0  0  0  0  0  0  0
    2.3714    0.0913   -4.6876 H   0  0  0  0  0  0  0  0  0  0  0  0
    3.6636   -0.0587    0.4762 H   0  0  0  0  0  0  0  0  0  0  0  0
    2.9841   -1.6753    2.3486 H   0  0  0  0  0  0  0  0  0  0  0  0
    2.2675   -2.1799    0.7441 H   0  0  0  0  0  0  0  0  0  0  0  0
    3.8782   -3.6366    1.0450 H   0  0  0  0  0  0  0  0  0  0  0  0
    5.0813   -3.1900    2.8819 H   0  0  0  0  0  0  0  0  0  0  0  0
    6.2037   -0.7283    1.5256 H   0  0  0  0  0  0  0  0  0  0  0  0
    4.9451   -0.8119    2.7132 H   0  0  0  0  0  0  0  0  0  0  0  0
    5.9355   -5.4839    2.6929 H   0  0  0  0  0  0  0  0  0  0  0  0
    6.1064   -6.2919    1.1274 H   0  0  0  0  0  0  0  0  0  0  0  0
    4.5491   -5.6320    1.5998 H   0  0  0  0  0  0  0  0  0  0  0  0
    7.9266   -4.2709    2.0717 H   0  0  0  0  0  0  0  0  0  0  0  0
    7.9824   -3.1136    0.7362 H   0  0  0  0  0  0  0  0  0  0  0  0
    8.0220   -4.8570    0.4099 H   0  0  0  0  0  0  0  0  0  0  0  0
    5.9678   -1.2004   -0.4949 H   0  0  0  0  0  0  0  0  0  0  0  0
  1  2  2  0
  1 19  1  0
  1 20  1  0
  2 18  1  0
  2  3  1  0
  3 15  1  0
  3  4  1  0
  3 21  1  6
  5  4  1  1
  4 22  1  0
  4 23  1  0
  5 18  1  0
  5  6  1  0
  5 10  1  0
  6  7  2  3
  6 24  1  0
  7  8  1  0
  7  9  1  0
  8 25  1  0
  8 26  1  0
  8 27  1  0
  9 28  1  0
  9 29  1  0
  9 30  1  0
 10 14  1  0
 10 11  1  0
 10 31  1  6
 11 12  1  0
 11 32  1  0
 11 33  1  0
 12 13  1  0
 12 18  1  0
 12 34  1  6
 13 14  1  0
 13 15  1  0
 13 35  1  1
 14 36  1  0
 14 37  1  0
 15 16  1  0
 15 17  1  0
 16 38  1  0
 16 39  1  0
 16 40  1  0
 17 41  1  0
 17 42  1  0
 17 43  1  0
 18 44  1  1
M  END
>  <i_m_ct_stereo_status>  (37) 
1

>  <s_m_source_file>  (37) 
/var/tmp/pbs.5076255.sched01/tmprv8ptrg5/026yimkau.sdf

>  <i_m_source_file_index>  (37) 
15

>  <i_lp_mmshare_version>  (37) 
48012

>  <i_f3d_flags>  (37) 
0

>  <s_epik_input>  (37) 
W0NIMl09QyhbQ0BASF0xMilbQ0BIXShbQ0gyXTMpQyhbQ0gzXSkoW0NIM10pW0NAQEhdKFtDSDJdNClbQ0BIXTJbQ0gyXVtDQEBIXTRbQ0BAXTEzW0NIXT1DKFtDSDNdKVtDSDNd

>  <s_epik_cmdline>  (37) 
J2VwaWtfcHl0aG9uJywgJy1waHQnLCAnMi4wJywgJy1waCcsICc3LjAnLCAnLXRuJywgJzgnLCAnLW1hJywgJzIwMCcsICctaW1hZScsICc8aW5maWxlLm1hZT4nLCAnLW9tYWUnLCAnPG91dGZpbGUubWFlPic=

>  <r_lp_tautomer_probability>  (37) 
1

>  <r_epik_Ionization_Penalty>  (37) 
0

>  <r_epik_Ionization_Penalty_Charging>  (37) 
0

>  <r_epik_Ionization_Penalty_Neutral>  (37) 
0

>  <r_epik_State_Penalty>  (37) 
-0

>  <r_epik_Charging_Adjusted_Penalty>  (37) 
0

>  <i_epik_Tot_Q>  (37) 
0

>  <i_epik_Tot_abs_Q>  (37) 
0

>  <s_lp_Force_Field>  (37) 
OPLS3e

>  <r_lp_Energy>  (37) 
366.165

>  <b_lp_Chiralities_Consistent>  (37) 
1

>  <s_lp_Variant>  (37) 
11:0-1

>  <s_i_glide_gridfile>  (37) 
pfpi4k_grid

>  <i_i_glide_lignum>  (37) 
15

>  <i_i_glide_rotatable_bonds>  (37) 
1

>  <r_i_docking_score>  (37) 
-3.81248

>  <r_i_glide_ligand_efficiency>  (37) 
-0.211805

>  <r_i_glide_ligand_efficiency_sa>  (37) 
-0.555085

>  <r_i_glide_ligand_efficiency_ln>  (37) 
-0.979979

>  <r_i_glide_gscore>  (37) 
-3.81248

>  <r_i_glide_lipo>  (37) 
-1.22688

>  <r_i_glide_hbond>  (37) 
0

>  <r_i_glide_metal>  (37) 
-0

>  <r_i_glide_rewards>  (37) 
-1.75637

>  <r_i_glide_evdw>  (37) 
-23.1829

>  <r_i_glide_ecoul>  (37) 
0.231463

>  <r_i_glide_erotb>  (37) 
0.295191

>  <r_i_glide_esite>  (37) 
0

>  <r_i_glide_emodel>  (37) 
-26.2342

>  <r_i_glide_energy>  (37) 
-22.9514

>  <r_i_glide_einternal>  (37) 
2.4762

>  <r_i_glide_intrahb_reward>  (37) 
-0

>  <i_i_glide_confnum>  (37) 
5

>  <i_i_glide_posenum>  (37) 
2

>  <r_i_glide_eff_state_penalty>  (37) 
0

>  <ligand_id>  (37) 
11

>  <original_smiles>  (37) 
C=C1C2CC3(C=C(C)C)C4CC(C(C4)C2(C)C)C13

>  <smiles>  (37) 
[H]C([H])=C1C2([H])C3([H])C([H])([H])C4([H])C([H])([H])C3([H])C(C([H])([H])[H])(C([H])([H])[H])C1([H])C([H])([H])C24C([H])=C(C([H])([H])[H])C([H])([H])[H]

$$$$
11:0:1
     RDKit          3D

 44 47  0  0  1  0  0  0  0  0999 V2000
    2.6683    0.0342    1.3040 C   0  0  0  0  0  0  0  0  0  0  0  0
    3.5510   -0.9808    1.3626 C   0  0  0  0  0  0  0  0  0  0  0  0
    4.5720   -1.3013    2.2835 C   0  0  2  0  0  0  0  0  0  0  0  0
    5.6009   -1.2272    0.9593 C   0  0  0  0  0  0  0  0  0  0  0  0
    4.9094   -2.0495   -0.3457 C   0  0  1  0  0  0  0  0  0  0  0  0
    4.6356   -1.1852   -1.5900 C   0  0  0  0  0  0  0  0  0  0  0  0
    3.7386   -1.3972   -2.5864 C   0  0  0  0  0  0  0  0  0  0  0  0
    2.7536   -2.5622   -2.6970 C   0  0  0  0  0  0  0  0  0  0  0  0
    3.6406   -0.4086   -3.7435 C   0  0  0  0  0  0  0  0  0  0  0  0
    4.5643   -3.6928   -0.5284 C   0  0  1  0  0  0  0  0  0  0  0  0
    5.6054   -4.2853    0.1418 C   0  0  0  0  0  0  0  0  0  0  0  0
    4.7997   -3.4872    1.1631 C   0  0  2  0  0  0  0  0  0  0  0  0
    3.8350   -4.1115    1.9591 C   0  0  2  0  0  0  0  0  0  0  0  0
    3.4045   -4.4788    0.4388 C   0  0  0  0  0  0  0  0  0  0  0  0
    3.9093   -2.7450    2.9241 C   0  0  0  0  0  0  0  0  0  0  0  0
    4.7623   -3.0866    4.1718 C   0  0  0  0  0  0  0  0  0  0  0  0
    2.4707   -2.5366    3.4720 C   0  0  0  0  0  0  0  0  0  0  0  0
    3.8444   -2.1459    0.4848 C   0  0  1  0  0  0  0  0  0  0  0  0
    1.9710    0.1394    0.4821 H   0  0  0  0  0  0  0  0  0  0  0  0
    2.6508    0.7953    2.0692 H   0  0  0  0  0  0  0  0  0  0  0  0
    4.7283   -0.5162    3.0185 H   0  0  0  0  0  0  0  0  0  0  0  0
    5.7490   -0.1725    0.6862 H   0  0  0  0  0  0  0  0  0  0  0  0
    6.6127   -1.5747    1.1946 H   0  0  0  0  0  0  0  0  0  0  0  0
    5.2668   -0.3082   -1.6344 H   0  0  0  0  0  0  0  0  0  0  0  0
    2.9350   -3.0935   -3.6287 H   0  0  0  0  0  0  0  0  0  0  0  0
    1.7563   -2.1338   -2.7751 H   0  0  0  0  0  0  0  0  0  0  0  0
    2.7895   -3.2855   -1.9136 H   0  0  0  0  0  0  0  0  0  0  0  0
    3.8468   -0.9190   -4.6853 H   0  0  0  0  0  0  0  0  0  0  0  0
    4.3095    0.4501   -3.6574 H   0  0  0  0  0  0  0  0  0  0  0  0
    2.6241   -0.0197   -3.7933 H   0  0  0  0  0  0  0  0  0  0  0  0
    4.5366   -4.0163   -1.5935 H   0  0  0  0  0  0  0  0  0  0  0  0
    5.6088   -5.3724    0.2224 H   0  0  0  0  0  0  0  0  0  0  0  0
    6.5852   -3.8960   -0.1426 H   0  0  0  0  0  0  0  0  0  0  0  0
    5.6864   -3.3711    1.8125 H   0  0  0  0  0  0  0  0  0  0  0  0
    4.2429   -4.9939    2.4578 H   0  0  0  0  0  0  0  0  0  0  0  0
    2.3668   -4.2034    0.2284 H   0  0  0  0  0  0  0  0  0  0  0  0
    3.4259   -5.5657    0.2830 H   0  0  0  0  0  0  0  0  0  0  0  0
    4.4123   -4.0046    4.6534 H   0  0  0  0  0  0  0  0  0  0  0  0
    4.7125   -2.2812    4.9077 H   0  0  0  0  0  0  0  0  0  0  0  0
    5.8143   -3.2318    3.9271 H   0  0  0  0  0  0  0  0  0  0  0  0
    2.1505   -3.3974    4.0630 H   0  0  0  0  0  0  0  0  0  0  0  0
    1.7388   -2.4237    2.6671 H   0  0  0  0  0  0  0  0  0  0  0  0
    2.4158   -1.6507    4.1073 H   0  0  0  0  0  0  0  0  0  0  0  0
    2.8903   -2.2459   -0.0462 H   0  0  0  0  0  0  0  0  0  0  0  0
  1  2  2  0
  1 19  1  0
  1 20  1  0
  2 18  1  0
  2  3  1  0
  3 15  1  0
  3  4  1  0
  3 21  1  1
  5  4  1  1
  4 22  1  0
  4 23  1  0
  5 18  1  0
  5  6  1  0
  5 10  1  0
  6  7  2  3
  6 24  1  0
  7  8  1  0
  7  9  1  0
  8 25  1  0
  8 26  1  0
  8 27  1  0
  9 28  1  0
  9 29  1  0
  9 30  1  0
 10 14  1  0
 10 11  1  0
 10 31  1  6
 11 12  1  0
 11 32  1  0
 11 33  1  0
 12 13  1  0
 12 18  1  0
 12 34  1  1
 13 14  1  0
 13 15  1  0
 13 35  1  1
 14 36  1  0
 14 37  1  0
 15 16  1  0
 15 17  1  0
 16 38  1  0
 16 39  1  0
 16 40  1  0
 17 41  1  0
 17 42  1  0
 17 43  1  0
 18 44  1  6
M  END
>  <i_m_ct_stereo_status>  (38) 
1

>  <s_m_source_file>  (38) 
/var/tmp/pbs.5076255.sched01/tmprv8ptrg5/026yimkau.sdf

>  <i_m_source_file_index>  (38) 
15

>  <i_lp_mmshare_version>  (38) 
48012

>  <i_f3d_flags>  (38) 
0

>  <s_epik_input>  (38) 
W0NIMl09QyhbQ0BASF0xMilbQ0BIXShbQ0gyXTMpQyhbQ0gzXSkoW0NIM10pW0NAQEhdKFtDSDJdNClbQ0BIXTJbQ0gyXVtDQEBIXTRbQ0BAXTEzW0NIXT1DKFtDSDNdKVtDSDNd

>  <s_epik_cmdline>  (38) 
J2VwaWtfcHl0aG9uJywgJy1waHQnLCAnMi4wJywgJy1waCcsICc3LjAnLCAnLXRuJywgJzgnLCAnLW1hJywgJzIwMCcsICctaW1hZScsICc8aW5maWxlLm1hZT4nLCAnLW9tYWUnLCAnPG91dGZpbGUubWFlPic=

>  <r_lp_tautomer_probability>  (38) 
1

>  <r_epik_Ionization_Penalty>  (38) 
0

>  <r_epik_Ionization_Penalty_Charging>  (38) 
0

>  <r_epik_Ionization_Penalty_Neutral>  (38) 
0

>  <r_epik_State_Penalty>  (38) 
-0

>  <r_epik_Charging_Adjusted_Penalty>  (38) 
0

>  <i_epik_Tot_Q>  (38) 
0

>  <i_epik_Tot_abs_Q>  (38) 
0

>  <s_lp_Force_Field>  (38) 
OPLS3e

>  <r_lp_Energy>  (38) 
366.165

>  <b_lp_Chiralities_Consistent>  (38) 
1

>  <s_lp_Variant>  (38) 
11:0-1

>  <s_i_glide_gridfile>  (38) 
pfpi4k_grid

>  <i_i_glide_lignum>  (38) 
15

>  <i_i_glide_rotatable_bonds>  (38) 
1

>  <r_i_docking_score>  (38) 
-3.2368

>  <r_i_glide_ligand_efficiency>  (38) 
-0.179822

>  <r_i_glide_ligand_efficiency_sa>  (38) 
-0.471267

>  <r_i_glide_ligand_efficiency_ln>  (38) 
-0.832002

>  <r_i_glide_gscore>  (38) 
-3.2368

>  <r_i_glide_lipo>  (38) 
-0.591094

>  <r_i_glide_hbond>  (38) 
0

>  <r_i_glide_metal>  (38) 
-0

>  <r_i_glide_rewards>  (38) 
-1.75637

>  <r_i_glide_evdw>  (38) 
-22.3361

>  <r_i_glide_ecoul>  (38) 
-0.451445

>  <r_i_glide_erotb>  (38) 
0.295191

>  <r_i_glide_esite>  (38) 
0

>  <r_i_glide_emodel>  (38) 
-24.4378

>  <r_i_glide_energy>  (38) 
-22.7876

>  <r_i_glide_einternal>  (38) 
4.02443

>  <r_i_glide_intrahb_reward>  (38) 
-0

>  <i_i_glide_confnum>  (38) 
2

>  <i_i_glide_posenum>  (38) 
32

>  <r_i_glide_eff_state_penalty>  (38) 
0

>  <ligand_id>  (38) 
11

>  <original_smiles>  (38) 
C=C1C2CC3(C=C(C)C)C4CC(C(C4)C2(C)C)C13

>  <smiles>  (38) 
[H]C([H])=C1C2([H])C3([H])C([H])([H])C4([H])C([H])([H])C3([H])C(C([H])([H])[H])(C([H])([H])[H])C1([H])C([H])([H])C24C([H])=C(C([H])([H])[H])C([H])([H])[H]

$$$$
12:0:0
     RDKit          3D

 54 57  0  0  1  0  0  0  0  0999 V2000
    2.3030   -5.4127    7.7997 C   0  0  0  0  0  0  0  0  0  0  0  0
    2.9215   -4.2184    7.8234 C   0  0  0  0  0  0  0  0  0  0  0  0
    2.4344   -2.9503    8.5453 C   0  0  0  0  0  0  0  0  0  0  0  0
    2.1676   -1.6581    7.6860 C   0  0  1  0  0  0  0  0  0  0  0  0
    2.1607   -0.4604    8.6803 C   0  0  0  0  0  0  0  0  0  0  0  0
    3.3141   -1.3343    6.6640 C   0  0  0  0  0  0  0  0  0  0  0  0
    4.4497   -1.7552    6.8830 O   0  0  0  0  0  0  0  0  0  0  0  0
    3.0529   -0.4933    5.6084 N   0  0  0  0  0  0  0  0  0  0  0  0
    1.8875   -0.0573    5.3501 C   0  0  0  0  0  0  0  0  0  0  0  0
    1.7445    1.0110    4.2809 C   0  0  0  0  0  0  0  0  0  0  0  0
    0.6331    0.7116    3.2551 C   0  0  0  0  0  0  0  0  0  0  0  0
    0.5158    1.9102    2.3017 C   0  0  0  0  0  0  0  0  0  0  0  0
    0.9779   -0.5436    2.4245 C   0  0  0  0  0  0  0  0  0  0  0  0
   -0.7052    0.5395    4.0006 C   0  0  0  0  0  0  0  0  0  0  0  0
   -0.6351   -0.4927    5.1287 C   0  0  0  0  0  0  0  0  0  0  0  0
   -1.5876   -1.2492    5.3242 O   0  0  0  0  0  0  0  0  0  0  0  0
    0.5856   -0.4632    6.0699 C   0  0  1  0  0  0  0  0  0  0  0  0
    0.7809   -1.7300    6.9559 C   0  0  1  0  0  0  0  0  0  0  0  0
    0.5148   -3.0718    6.2387 C   0  0  0  0  0  0  0  0  0  0  0  0
    1.1356   -3.4343    5.1000 C   0  0  0  0  0  0  0  0  0  0  0  0
    0.9160   -4.7301    4.4679 C   0  0  0  0  0  0  0  0  0  0  0  0
    1.5540   -5.1231    3.2754 C   0  0  0  0  0  0  0  0  0  0  0  0
    1.2859   -6.3911    2.7137 C   0  0  0  0  0  0  0  0  0  0  0  0
    0.3875   -7.2631    3.3624 C   0  0  0  0  0  0  0  0  0  0  0  0
   -0.2378   -6.8706    4.5607 C   0  0  0  0  0  0  0  0  0  0  0  0
    0.0152   -5.5987    5.1150 C   0  0  0  0  0  0  0  0  0  0  0  0
   -0.6379   -5.2194    6.2702 O   0  0  0  0  0  0  0  0  0  0  0  0
   -0.4633   -3.9956    6.8779 C   0  0  0  0  0  0  0  0  0  0  0  0
   -1.0447   -3.7284    7.9182 O   0  0  0  0  0  0  0  0  0  0  0  0
    1.3827   -5.6020    8.3345 H   0  0  0  0  0  0  0  0  0  0  0  0
    2.7142   -6.2224    7.2095 H   0  0  0  0  0  0  0  0  0  0  0  0
    3.8509   -4.1604    7.2724 H   0  0  0  0  0  0  0  0  0  0  0  0
    1.5209   -3.1864    9.0989 H   0  0  0  0  0  0  0  0  0  0  0  0
    3.1665   -2.7476    9.3316 H   0  0  0  0  0  0  0  0  0  0  0  0
    1.3652   -0.5306    9.4280 H   0  0  0  0  0  0  0  0  0  0  0  0
    2.0387    0.4960    8.1782 H   0  0  0  0  0  0  0  0  0  0  0  0
    3.1077   -0.3877    9.2184 H   0  0  0  0  0  0  0  0  0  0  0  0
    1.5443    1.9570    4.7896 H   0  0  0  0  0  0  0  0  0  0  0  0
    2.7035    1.1327    3.7654 H   0  0  0  0  0  0  0  0  0  0  0  0
   -0.2703    1.7523    1.5649 H   0  0  0  0  0  0  0  0  0  0  0  0
    1.4483    2.0863    1.7616 H   0  0  0  0  0  0  0  0  0  0  0  0
    0.2794    2.8204    2.8507 H   0  0  0  0  0  0  0  0  0  0  0  0
    0.2225   -0.6927    1.6558 H   0  0  0  0  0  0  0  0  0  0  0  0
    1.0114   -1.4515    3.0276 H   0  0  0  0  0  0  0  0  0  0  0  0
    1.9467   -0.4481    1.9246 H   0  0  0  0  0  0  0  0  0  0  0  0
   -1.0008    1.4859    4.4491 H   0  0  0  0  0  0  0  0  0  0  0  0
   -1.4879    0.2663    3.2977 H   0  0  0  0  0  0  0  0  0  0  0  0
    0.3676    0.3626    6.7533 H   0  0  0  0  0  0  0  0  0  0  0  0
    0.0253   -1.6183    7.7310 H   0  0  0  0  0  0  0  0  0  0  0  0
    1.8731   -2.7988    4.6280 H   0  0  0  0  0  0  0  0  0  0  0  0
    2.2490   -4.4544    2.7817 H   0  0  0  0  0  0  0  0  0  0  0  0
    1.7758   -6.6982    1.7952 H   0  0  0  0  0  0  0  0  0  0  0  0
    0.1830   -8.2404    2.9392 H   0  0  0  0  0  0  0  0  0  0  0  0
   -0.9214   -7.5525    5.0551 H   0  0  0  0  0  0  0  0  0  0  0  0
  1  2  2  0
  1 30  1  0
  1 31  1  0
  2  3  1  0
  2 32  1  0
  4  3  1  1
  3 33  1  0
  3 34  1  0
  4 18  1  0
  4  5  1  0
  4  6  1  0
  5 35  1  0
  5 36  1  0
  5 37  1  0
  6  7  2  0
  6  8  1  0
  8  9  2  0
  9 17  1  0
  9 10  1  0
 10 11  1  0
 10 38  1  0
 10 39  1  0
 11 12  1  0
 11 13  1  0
 11 14  1  0
 12 40  1  0
 12 41  1  0
 12 42  1  0
 13 43  1  0
 13 44  1  0
 13 45  1  0
 14 15  1  0
 14 46  1  0
 14 47  1  0
 15 16  2  0
 15 17  1  0
 17 18  1  0
 17 48  1  1
 18 19  1  0
 18 49  1  1
 19 28  1  0
 19 20  2  0
 20 21  1  0
 20 50  1  0
 21 26  2  0
 21 22  1  0
 22 23  2  0
 22 51  1  0
 23 24  1  0
 23 52  1  0
 24 25  2  0
 24 53  1  0
 25 26  1  0
 25 54  1  0
 26 27  1  0
 27 28  1  0
 28 29  2  0
M  END
>  <i_m_ct_stereo_status>  (39) 
1

>  <s_m_source_file>  (39) 
/var/tmp/pbs.5076255.sched01/tmprv8ptrg5/026yimkau.sdf

>  <i_m_source_file_index>  (39) 
16

>  <i_lp_mmshare_version>  (39) 
48012

>  <i_f3d_flags>  (39) 
0

>  <s_epik_input>  (39) 
W0NIMl0xQyhbQ0gzXSkoW0NIM10pW0NIMl1DKD1PKVtDQEhdKEMxMilbQ0BIXShbQ0BdKFtDSDNdKShDKD1PKU49MilbQ0gyXVtDSF09W0NIMl0pYyhbY0hdMyljKD1PKW9jKGMzNClbY0hdW2NIXVtjSF1bY0hdNA==

>  <s_epik_cmdline>  (39) 
J2VwaWtfcHl0aG9uJywgJy1waHQnLCAnMi4wJywgJy1waCcsICc3LjAnLCAnLXRuJywgJzgnLCAnLW1hJywgJzIwMCcsICctaW1hZScsICc8aW5maWxlLm1hZT4nLCAnLW9tYWUnLCAnPG91dGZpbGUubWFlPic=

>  <r_lp_tautomer_probability>  (39) 
1

>  <r_epik_Ionization_Penalty>  (39) 
4.20047e-09

>  <r_epik_Ionization_Penalty_Charging>  (39) 
0

>  <r_epik_Ionization_Penalty_Neutral>  (39) 
4.20047e-09

>  <r_epik_State_Penalty>  (39) 
-0

>  <r_epik_Charging_Adjusted_Penalty>  (39) 
0

>  <i_epik_Tot_Q>  (39) 
0

>  <i_epik_Tot_abs_Q>  (39) 
0

>  <s_epik_Chemistry_Notes>  (39) 
This compound has an imine and may undergo hydrolysis.

>  <s_lp_Force_Field>  (39) 
OPLS3e

>  <r_lp_Energy>  (39) 
43.6313

>  <b_lp_Chiralities_Consistent>  (39) 
1

>  <s_lp_Variant>  (39) 
12:0-1

>  <s_i_glide_gridfile>  (39) 
pfpi4k_grid

>  <i_i_glide_lignum>  (39) 
16

>  <i_i_glide_rotatable_bonds>  (39) 
3

>  <r_i_docking_score>  (39) 
-1.90148

>  <r_i_glide_ligand_efficiency>  (39) 
-0.0655681

>  <r_i_glide_ligand_efficiency_sa>  (39) 
-0.201446

>  <r_i_glide_ligand_efficiency_ln>  (39) 
-0.43539

>  <r_i_glide_gscore>  (39) 
-1.90148

>  <r_i_glide_lipo>  (39) 
-0.00653711

>  <r_i_glide_hbond>  (39) 
-0.0321755

>  <r_i_glide_metal>  (39) 
-0

>  <r_i_glide_rewards>  (39) 
-0.740048

>  <r_i_glide_evdw>  (39) 
-20.1176

>  <r_i_glide_ecoul>  (39) 
-3.14923

>  <r_i_glide_erotb>  (39) 
0.382043

>  <r_i_glide_esite>  (39) 
-0.0264934

>  <r_i_glide_emodel>  (39) 
-24.9047

>  <r_i_glide_energy>  (39) 
-23.2668

>  <r_i_glide_einternal>  (39) 
2.28777

>  <r_i_glide_intrahb_reward>  (39) 
-0

>  <i_i_glide_confnum>  (39) 
3

>  <i_i_glide_posenum>  (39) 
32

>  <r_i_glide_eff_state_penalty>  (39) 
0

>  <ligand_id>  (39) 
12

>  <original_smiles>  (39) 
C=CCC1(C)C(=O)N=C2CC(C)(C)CC(=O)C2C1c1cc2ccccc2oc1=O

>  <smiles>  (39) 
[H]C([H])=C([H])C([H])([H])C1(C([H])([H])[H])C(=O)N=C2C([H])([H])C(C([H])([H])[H])(C([H])([H])[H])C([H])([H])C(=O)C2([H])C1([H])c1c([H])c2c([H])c([H])c([H])c([H])c2oc1=O

$$$$
12:0:1
     RDKit          3D

 54 57  0  0  1  0  0  0  0  0999 V2000
    4.9311   -4.7308    9.0981 C   0  0  0  0  0  0  0  0  0  0  0  0
    4.8326   -4.1584    7.8889 C   0  0  0  0  0  0  0  0  0  0  0  0
    3.5274   -3.9636    7.1322 C   0  0  0  0  0  0  0  0  0  0  0  0
    3.1439   -2.5040    6.7030 C   0  0  1  0  0  0  0  0  0  0  0  0
    3.2184   -1.5864    7.9643 C   0  0  0  0  0  0  0  0  0  0  0  0
    4.1164   -1.8716    5.6777 C   0  0  0  0  0  0  0  0  0  0  0  0
    5.2123   -2.3798    5.4534 O   0  0  0  0  0  0  0  0  0  0  0  0
    3.6948   -0.7154    5.0020 N   0  0  0  0  0  0  0  0  0  0  0  0
    2.4634   -0.3508    4.9324 C   0  0  0  0  0  0  0  0  0  0  0  0
    2.1069    0.8947    4.1431 C   0  0  0  0  0  0  0  0  0  0  0  0
    0.8668    0.7605    3.2293 C   0  0  0  0  0  0  0  0  0  0  0  0
    0.5482    2.1464    2.6446 C   0  0  0  0  0  0  0  0  0  0  0  0
    1.0836   -0.2248    2.0507 C   0  0  0  0  0  0  0  0  0  0  0  0
   -0.3355    0.3065    4.0815 C   0  0  0  0  0  0  0  0  0  0  0  0
   -0.0534   -0.9698    4.8844 C   0  0  0  0  0  0  0  0  0  0  0  0
   -0.9153   -1.8376    5.0017 O   0  0  0  0  0  0  0  0  0  0  0  0
    1.2969   -1.0903    5.6194 C   0  0  1  0  0  0  0  0  0  0  0  0
    1.7026   -2.5282    6.0712 C   0  0  1  0  0  0  0  0  0  0  0  0
    1.4601   -3.6795    5.0451 C   0  0  0  0  0  0  0  0  0  0  0  0
    0.6828   -4.7484    5.3745 C   0  0  0  0  0  0  0  0  0  0  0  0
    0.4239   -5.8452    4.4287 C   0  0  0  0  0  0  0  0  0  0  0  0
   -0.3624   -6.9904    4.7266 C   0  0  0  0  0  0  0  0  0  0  0  0
   -0.5448   -7.9792    3.7313 C   0  0  0  0  0  0  0  0  0  0  0  0
    0.0352   -7.8359    2.4524 C   0  0  0  0  0  0  0  0  0  0  0  0
    0.8104   -6.6936    2.1769 C   0  0  0  0  0  0  0  0  0  0  0  0
    1.0081   -5.7107    3.1590 C   0  0  0  0  0  0  0  0  0  0  0  0
    1.7689   -4.6171    2.8203 O   0  0  0  0  0  0  0  0  0  0  0  0
    2.0672   -3.6218    3.6703 C   0  0  0  0  0  0  0  0  0  0  0  0
    2.8099   -2.7253    3.2790 O   0  0  0  0  0  0  0  0  0  0  0  0
    4.0602   -5.0915    9.6274 H   0  0  0  0  0  0  0  0  0  0  0  0
    5.8959   -4.8474    9.5710 H   0  0  0  0  0  0  0  0  0  0  0  0
    5.7365   -3.8206    7.4035 H   0  0  0  0  0  0  0  0  0  0  0  0
    3.6032   -4.5995    6.2476 H   0  0  0  0  0  0  0  0  0  0  0  0
    2.7195   -4.3843    7.7302 H   0  0  0  0  0  0  0  0  0  0  0  0
    2.5472   -1.9132    8.7579 H   0  0  0  0  0  0  0  0  0  0  0  0
    2.9832   -0.5449    7.7308 H   0  0  0  0  0  0  0  0  0  0  0  0
    4.2360   -1.5694    8.3608 H   0  0  0  0  0  0  0  0  0  0  0  0
    1.9483    1.6972    4.8820 H   0  0  0  0  0  0  0  0  0  0  0  0
    2.9791    1.1977    3.5417 H   0  0  0  0  0  0  0  0  0  0  0  0
   -0.3323    2.1139    2.0056 H   0  0  0  0  0  0  0  0  0  0  0  0
    1.3812    2.5106    2.0408 H   0  0  0  0  0  0  0  0  0  0  0  0
    0.3629    2.8805    3.4373 H   0  0  0  0  0  0  0  0  0  0  0  0
    0.2348   -0.1733    1.3614 H   0  0  0  0  0  0  0  0  0  0  0  0
    1.1900   -1.2517    2.3929 H   0  0  0  0  0  0  0  0  0  0  0  0
    1.9728    0.0492    1.4790 H   0  0  0  0  0  0  0  0  0  0  0  0
   -0.6085    1.0777    4.7986 H   0  0  0  0  0  0  0  0  0  0  0  0
   -1.2031    0.1441    3.4513 H   0  0  0  0  0  0  0  0  0  0  0  0
    1.1204   -0.5167    6.5264 H   0  0  0  0  0  0  0  0  0  0  0  0
    1.0330   -2.7499    6.9026 H   0  0  0  0  0  0  0  0  0  0  0  0
    0.2380   -4.8150    6.3693 H   0  0  0  0  0  0  0  0  0  0  0  0
   -0.8087   -7.1091    5.7014 H   0  0  0  0  0  0  0  0  0  0  0  0
   -1.1212   -8.8580    3.9510 H   0  0  0  0  0  0  0  0  0  0  0  0
   -0.0857   -8.5795    1.6804 H   0  0  0  0  0  0  0  0  0  0  0  0
    1.2795   -6.5508    1.2223 H   0  0  0  0  0  0  0  0  0  0  0  0
  1  2  2  0
  1 30  1  0
  1 31  1  0
  2  3  1  0
  2 32  1  0
  4  3  1  1
  3 33  1  0
  3 34  1  0
  4 18  1  0
  4  5  1  0
  4  6  1  0
  5 35  1  0
  5 36  1  0
  5 37  1  0
  6  7  2  0
  6  8  1  0
  8  9  2  0
  9 17  1  0
  9 10  1  0
 10 11  1  0
 10 38  1  0
 10 39  1  0
 11 12  1  0
 11 13  1  0
 11 14  1  0
 12 40  1  0
 12 41  1  0
 12 42  1  0
 13 43  1  0
 13 44  1  0
 13 45  1  0
 14 15  1  0
 14 46  1  0
 14 47  1  0
 15 16  2  0
 15 17  1  0
 17 18  1  0
 17 48  1  1
 18 19  1  0
 18 49  1  1
 19 28  1  0
 19 20  2  0
 20 21  1  0
 20 50  1  0
 21 26  2  0
 21 22  1  0
 22 23  2  0
 22 51  1  0
 23 24  1  0
 23 52  1  0
 24 25  2  0
 24 53  1  0
 25 26  1  0
 25 54  1  0
 26 27  1  0
 27 28  1  0
 28 29  2  0
M  END
>  <i_m_ct_stereo_status>  (40) 
1

>  <s_m_source_file>  (40) 
/var/tmp/pbs.5076255.sched01/tmprv8ptrg5/026yimkau.sdf

>  <i_m_source_file_index>  (40) 
16

>  <i_lp_mmshare_version>  (40) 
48012

>  <i_f3d_flags>  (40) 
0

>  <s_epik_input>  (40) 
W0NIMl0xQyhbQ0gzXSkoW0NIM10pW0NIMl1DKD1PKVtDQEhdKEMxMilbQ0BIXShbQ0BdKFtDSDNdKShDKD1PKU49MilbQ0gyXVtDSF09W0NIMl0pYyhbY0hdMyljKD1PKW9jKGMzNClbY0hdW2NIXVtjSF1bY0hdNA==

>  <s_epik_cmdline>  (40) 
J2VwaWtfcHl0aG9uJywgJy1waHQnLCAnMi4wJywgJy1waCcsICc3LjAnLCAnLXRuJywgJzgnLCAnLW1hJywgJzIwMCcsICctaW1hZScsICc8aW5maWxlLm1hZT4nLCAnLW9tYWUnLCAnPG91dGZpbGUubWFlPic=

>  <r_lp_tautomer_probability>  (40) 
1

>  <r_epik_Ionization_Penalty>  (40) 
4.20047e-09

>  <r_epik_Ionization_Penalty_Charging>  (40) 
0

>  <r_epik_Ionization_Penalty_Neutral>  (40) 
4.20047e-09

>  <r_epik_State_Penalty>  (40) 
-0

>  <r_epik_Charging_Adjusted_Penalty>  (40) 
0

>  <i_epik_Tot_Q>  (40) 
0

>  <i_epik_Tot_abs_Q>  (40) 
0

>  <s_epik_Chemistry_Notes>  (40) 
This compound has an imine and may undergo hydrolysis.

>  <s_lp_Force_Field>  (40) 
OPLS3e

>  <r_lp_Energy>  (40) 
43.6313

>  <b_lp_Chiralities_Consistent>  (40) 
1

>  <s_lp_Variant>  (40) 
12:0-1

>  <s_i_glide_gridfile>  (40) 
pfpi4k_grid

>  <i_i_glide_lignum>  (40) 
16

>  <i_i_glide_rotatable_bonds>  (40) 
3

>  <r_i_docking_score>  (40) 
-1.54114

>  <r_i_glide_ligand_efficiency>  (40) 
-0.0531428

>  <r_i_glide_ligand_efficiency_sa>  (40) 
-0.163272

>  <r_i_glide_ligand_efficiency_ln>  (40) 
-0.352882

>  <r_i_glide_gscore>  (40) 
-1.54114

>  <r_i_glide_lipo>  (40) 
-0.00750547

>  <r_i_glide_hbond>  (40) 
0

>  <r_i_glide_metal>  (40) 
-0

>  <r_i_glide_rewards>  (40) 
-0.740104

>  <r_i_glide_evdw>  (40) 
-20.4753

>  <r_i_glide_ecoul>  (40) 
-0.910038

>  <r_i_glide_erotb>  (40) 
0.382043

>  <r_i_glide_esite>  (40) 
-0.0153028

>  <r_i_glide_emodel>  (40) 
-19.482

>  <r_i_glide_energy>  (40) 
-21.3854

>  <r_i_glide_einternal>  (40) 
6.43504

>  <r_i_glide_intrahb_reward>  (40) 
-0

>  <i_i_glide_confnum>  (40) 
3

>  <i_i_glide_posenum>  (40) 
8

>  <r_i_glide_eff_state_penalty>  (40) 
0

>  <ligand_id>  (40) 
12

>  <original_smiles>  (40) 
C=CCC1(C)C(=O)N=C2CC(C)(C)CC(=O)C2C1c1cc2ccccc2oc1=O

>  <smiles>  (40) 
[H]C([H])=C([H])C([H])([H])C1(C([H])([H])[H])C(=O)N=C2C([H])([H])C(C([H])([H])[H])(C([H])([H])[H])C([H])([H])C(=O)C2([H])C1([H])c1c([H])c2c([H])c([H])c([H])c([H])c2oc1=O

$$$$
13:0:0
     RDKit          3D

 85 89  0  0  1  0  0  0  0  0999 V2000
    1.9255    1.4869    3.5147 C   0  0  0  0  0  0  0  0  0  0  0  0
    2.1257    0.3045    2.5404 C   0  0  2  0  0  0  0  0  0  0  0  0
    0.7500   -0.3109    2.1984 C   0  0  0  0  0  0  0  0  0  0  0  0
   -0.1618    0.6379    1.6829 O   0  0  0  0  0  0  0  0  0  0  0  0
    3.0842   -0.7864    3.1151 C   0  0  2  0  0  0  0  0  0  0  0  0
    4.3909   -0.2443    3.7415 C   0  0  0  0  0  0  0  0  0  0  0  0
    5.5403   -1.1040    3.2095 C   0  0  0  0  0  0  0  0  0  0  0  0
    5.0658   -1.6085    1.8406 C   0  0  1  0  0  0  0  0  0  0  0  0
    5.2277   -0.4687    0.7982 C   0  0  0  0  0  0  0  0  0  0  0  0
    6.5805   -0.3417    0.4137 O   0  0  0  0  0  0  0  0  0  0  0  0
    5.8555   -2.8329    1.2915 C   0  0  0  0  0  0  0  0  0  0  0  0
    5.3497   -4.2422    1.6149 C   0  0  0  0  0  0  0  0  0  0  0  0
    3.8025   -4.4109    1.4910 C   0  0  2  0  0  0  0  0  0  0  0  0
    3.3566   -4.0358    0.0404 C   0  0  0  0  0  0  0  0  0  0  0  0
    3.1816   -3.3531    2.4667 C   0  0  1  0  0  0  0  0  0  0  0  0
    3.4723   -3.7627    3.9288 C   0  0  0  0  0  0  0  0  0  0  0  0
    2.9281   -5.1566    4.2301 C   0  0  0  0  0  0  0  0  0  0  0  0
    3.5334   -6.2985    3.3463 C   0  0  1  0  0  0  0  0  0  0  0  0
    2.9807   -7.7233    3.8183 C   0  0  2  0  0  0  0  0  0  0  0  0
    3.2209   -7.7814    5.3593 C   0  0  0  0  0  0  0  0  0  0  0  0
    3.7571   -8.9527    3.2419 C   0  0  0  0  0  0  0  0  0  0  0  0
    3.1650  -10.3304    3.6104 C   0  0  0  0  0  0  0  0  0  0  0  0
    1.6780  -10.4323    3.2425 C   0  0  1  0  0  0  0  0  0  0  0  0
    1.1598  -11.6719    3.6748 O   0  0  0  0  0  0  0  0  0  0  0  0
    0.8181   -9.2628    3.7898 C   0  0  0  0  0  0  0  0  0  0  0  0
   -0.5850   -9.3606    3.1537 C   0  0  0  0  0  0  0  0  0  0  0  0
    0.5957   -9.4118    5.3254 C   0  0  0  0  0  0  0  0  0  0  0  0
    1.4693   -7.8739    3.4219 C   0  0  2  0  0  0  0  0  0  0  0  0
    1.2927   -7.5212    1.9134 C   0  0  0  0  0  0  0  0  0  0  0  0
    1.8554   -6.1528    1.4904 C   0  0  0  0  0  0  0  0  0  0  0  0
    3.3577   -5.9220    1.8192 C   0  0  1  0  0  0  0  0  0  0  0  0
    4.2195   -6.8638    0.9186 C   0  0  0  0  0  0  0  0  0  0  0  0
    3.5526   -1.8693    2.0879 C   0  0  1  0  0  0  0  0  0  0  0  0
    1.4954    1.1501    4.4575 H   0  0  0  0  0  0  0  0  0  0  0  0
    1.2497    2.2313    3.0915 H   0  0  0  0  0  0  0  0  0  0  0  0
    2.8489    2.0205    3.7342 H   0  0  0  0  0  0  0  0  0  0  0  0
    2.5559    0.7041    1.6219 H   0  0  0  0  0  0  0  0  0  0  0  0
    0.8530   -1.1217    1.4815 H   0  0  0  0  0  0  0  0  0  0  0  0
    0.3033   -0.7457    3.0882 H   0  0  0  0  0  0  0  0  0  0  0  0
   -0.2038    0.5649    0.7199 H   0  0  0  0  0  0  0  0  0  0  0  0
    2.5146   -1.2478    3.9160 H   0  0  0  0  0  0  0  0  0  0  0  0
    4.5867    0.7826    3.4402 H   0  0  0  0  0  0  0  0  0  0  0  0
    4.3549   -0.2571    4.8315 H   0  0  0  0  0  0  0  0  0  0  0  0
    6.4601   -0.5249    3.1466 H   0  0  0  0  0  0  0  0  0  0  0  0
    5.7347   -1.9315    3.8852 H   0  0  0  0  0  0  0  0  0  0  0  0
    4.6528   -0.6927   -0.1014 H   0  0  0  0  0  0  0  0  0  0  0  0
    4.8596    0.4932    1.1499 H   0  0  0  0  0  0  0  0  0  0  0  0
    7.0525    0.2182    1.0278 H   0  0  0  0  0  0  0  0  0  0  0  0
    5.9267   -2.7740    0.2085 H   0  0  0  0  0  0  0  0  0  0  0  0
    6.8911   -2.7647    1.6345 H   0  0  0  0  0  0  0  0  0  0  0  0
    5.8874   -4.9121    0.9489 H   0  0  0  0  0  0  0  0  0  0  0  0
    5.7105   -4.5229    2.6001 H   0  0  0  0  0  0  0  0  0  0  0  0
    2.2809   -3.8795   -0.0152 H   0  0  0  0  0  0  0  0  0  0  0  0
    3.6067   -4.7739   -0.7156 H   0  0  0  0  0  0  0  0  0  0  0  0
    3.8051   -3.1133   -0.3208 H   0  0  0  0  0  0  0  0  0  0  0  0
    2.0950   -3.3917    2.3612 H   0  0  0  0  0  0  0  0  0  0  0  0
    4.5333   -3.7409    4.1747 H   0  0  0  0  0  0  0  0  0  0  0  0
    3.0027   -3.0952    4.6445 H   0  0  0  0  0  0  0  0  0  0  0  0
    3.1296   -5.3036    5.2874 H   0  0  0  0  0  0  0  0  0  0  0  0
    1.8424   -5.1229    4.1366 H   0  0  0  0  0  0  0  0  0  0  0  0
    4.6049   -6.3026    3.5567 H   0  0  0  0  0  0  0  0  0  0  0  0
    3.3166   -8.7838    5.7649 H   0  0  0  0  0  0  0  0  0  0  0  0
    2.4220   -7.2929    5.9188 H   0  0  0  0  0  0  0  0  0  0  0  0
    4.1638   -7.3009    5.6297 H   0  0  0  0  0  0  0  0  0  0  0  0
    3.7341   -8.9601    2.1624 H   0  0  0  0  0  0  0  0  0  0  0  0
    4.8093   -8.9070    3.5168 H   0  0  0  0  0  0  0  0  0  0  0  0
    3.7064  -11.1007    3.0612 H   0  0  0  0  0  0  0  0  0  0  0  0
    3.3239  -10.5756    4.6566 H   0  0  0  0  0  0  0  0  0  0  0  0
    1.6077  -10.4299    2.1555 H   0  0  0  0  0  0  0  0  0  0  0  0
    1.2895  -11.7560    4.6084 H   0  0  0  0  0  0  0  0  0  0  0  0
   -1.2112   -8.5030    3.3993 H   0  0  0  0  0  0  0  0  0  0  0  0
   -1.0830  -10.2578    3.4908 H   0  0  0  0  0  0  0  0  0  0  0  0
   -0.5468   -9.4682    2.0699 H   0  0  0  0  0  0  0  0  0  0  0  0
    0.2950   -8.4725    5.7887 H   0  0  0  0  0  0  0  0  0  0  0  0
    1.4712   -9.7874    5.8476 H   0  0  0  0  0  0  0  0  0  0  0  0
   -0.1855  -10.1386    5.5546 H   0  0  0  0  0  0  0  0  0  0  0  0
    0.8970   -7.1234    3.9693 H   0  0  0  0  0  0  0  0  0  0  0  0
    1.7109   -8.3068    1.2885 H   0  0  0  0  0  0  0  0  0  0  0  0
    0.2397   -7.4883    1.6511 H   0  0  0  0  0  0  0  0  0  0  0  0
    1.6836   -6.0470    0.4201 H   0  0  0  0  0  0  0  0  0  0  0  0
    1.2465   -5.3903    1.9701 H   0  0  0  0  0  0  0  0  0  0  0  0
    3.6620   -7.7043    0.5180 H   0  0  0  0  0  0  0  0  0  0  0  0
    5.0857   -7.2486    1.4562 H   0  0  0  0  0  0  0  0  0  0  0  0
    4.6244   -6.3993    0.0265 H   0  0  0  0  0  0  0  0  0  0  0  0
    3.0256   -1.6646    1.1581 H   0  0  0  0  0  0  0  0  0  0  0  0
  1  2  1  0
  1 34  1  0
  1 35  1  0
  1 36  1  0
  2  3  1  0
  2  5  1  0
  2 37  1  6
  3  4  1  0
  3 38  1  0
  3 39  1  0
  4 40  1  0
  5 33  1  0
  5  6  1  0
  5 41  1  1
  6  7  1  0
  6 42  1  0
  6 43  1  0
  7  8  1  0
  7 44  1  0
  7 45  1  0
  8 33  1  0
  8  9  1  6
  8 11  1  0
  9 10  1  0
  9 46  1  0
  9 47  1  0
 10 48  1  0
 11 12  1  0
 11 49  1  0
 11 50  1  0
 12 13  1  0
 12 51  1  0
 12 52  1  0
 13 31  1  0
 13 14  1  6
 13 15  1  0
 14 53  1  0
 14 54  1  0
 14 55  1  0
 15 16  1  0
 15 33  1  0
 15 56  1  1
 16 17  1  0
 16 57  1  0
 16 58  1  0
 17 18  1  0
 17 59  1  0
 17 60  1  0
 18 31  1  0
 18 19  1  0
 18 61  1  1
 19 28  1  0
 19 20  1  1
 19 21  1  0
 20 62  1  0
 20 63  1  0
 20 64  1  0
 21 22  1  0
 21 65  1  0
 21 66  1  0
 22 23  1  0
 22 67  1  0
 22 68  1  0
 23 24  1  0
 23 25  1  0
 23 69  1  6
 24 70  1  0
 25 26  1  0
 25 27  1  0
 25 28  1  0
 26 71  1  0
 26 72  1  0
 26 73  1  0
 27 74  1  0
 27 75  1  0
 27 76  1  0
 28 29  1  0
 28 77  1  1
 29 30  1  0
 29 78  1  0
 29 79  1  0
 30 31  1  0
 30 80  1  0
 30 81  1  0
 31 32  1  6
 32 82  1  0
 32 83  1  0
 32 84  1  0
 33 85  1  6
M  END
>  <i_m_ct_stereo_status>  (41) 
1

>  <s_m_source_file>  (41) 
/var/tmp/pbs.5076255.sched01/tmprv8ptrg5/026yimkau.sdf

>  <i_m_source_file_index>  (41) 
17

>  <i_lp_mmshare_version>  (41) 
48012

>  <i_f3d_flags>  (41) 
0

>  <s_epik_input>  (41) 
W09IXVtDSDJdW0NAQEhdKFtDSDNdKVtDQEhdKFtDSDJdW0NIMl0xKVtDQEBIXShbQ0BAXTEyW0NIMl1bT0hdKVtDQEhdM1tDQEBdKFtDSDNdKShbQ0gyXVtDSDJdMilbQ0BAXTQoW0NIM10pW0NAQEhdKFtDSDJdW0NIMl0zKVtDQEBdNShbQ0gzXSlbQ0BASF0oW0NIMl1bQ0gyXTQpQyhbQ0gzXSkoW0NIM10pW0NASF0oW09IXSlbQ0gyXVtDSDJdNQ==

>  <s_epik_cmdline>  (41) 
J2VwaWtfcHl0aG9uJywgJy1waHQnLCAnMi4wJywgJy1waCcsICc3LjAnLCAnLXRuJywgJzgnLCAnLW1hJywgJzIwMCcsICctaW1hZScsICc8aW5maWxlLm1hZT4nLCAnLW9tYWUnLCAnPG91dGZpbGUubWFlPic=

>  <r_lp_tautomer_probability>  (41) 
1

>  <r_epik_Ionization_Penalty>  (41) 
5.7604e-06

>  <r_epik_Ionization_Penalty_Charging>  (41) 
0

>  <r_epik_Ionization_Penalty_Neutral>  (41) 
5.7604e-06

>  <r_epik_State_Penalty>  (41) 
-0

>  <r_epik_Charging_Adjusted_Penalty>  (41) 
0

>  <i_epik_Tot_Q>  (41) 
0

>  <i_epik_Tot_abs_Q>  (41) 
0

>  <s_lp_Force_Field>  (41) 
OPLS3e

>  <r_lp_Energy>  (41) 
102.936

>  <b_lp_Chiralities_Consistent>  (41) 
1

>  <s_lp_Variant>  (41) 
13:0-1

>  <s_i_glide_gridfile>  (41) 
pfpi4k_grid

>  <i_i_glide_lignum>  (41) 
17

>  <i_i_glide_rotatable_bonds>  (41) 
6

>  <r_i_docking_score>  (41) 
-3.51241

>  <r_i_glide_ligand_efficiency>  (41) 
-0.106437

>  <r_i_glide_ligand_efficiency_sa>  (41) 
-0.341399

>  <r_i_glide_ligand_efficiency_ln>  (41) 
-0.781142

>  <r_i_glide_gscore>  (41) 
-3.51241

>  <r_i_glide_lipo>  (41) 
-0.746169

>  <r_i_glide_hbond>  (41) 
-0.504216

>  <r_i_glide_metal>  (41) 
-0

>  <r_i_glide_rewards>  (41) 
-0.267736

>  <r_i_glide_evdw>  (41) 
-18.1905

>  <r_i_glide_ecoul>  (41) 
-8.55942

>  <r_i_glide_erotb>  (41) 
0.199151

>  <r_i_glide_esite>  (41) 
0

>  <r_i_glide_emodel>  (41) 
-31.2204

>  <r_i_glide_energy>  (41) 
-26.7499

>  <r_i_glide_einternal>  (41) 
2.84355

>  <r_i_glide_intrahb_reward>  (41) 
-0

>  <i_i_glide_confnum>  (41) 
5

>  <i_i_glide_posenum>  (41) 
31

>  <r_i_glide_eff_state_penalty>  (41) 
0

>  <ligand_id>  (41) 
13

>  <original_smiles>  (41) 
CC(CO)C1CCC2(CO)CCC3(C)C(CCC4C5(C)CCC(O)C(C)(C)C5CCC43C)C12

>  <smiles>  (41) 
[H]OC([H])([H])C([H])(C([H])([H])[H])C1([H])C([H])([H])C([H])([H])C2(C([H])([H])O[H])C([H])([H])C([H])([H])C3(C([H])([H])[H])C([H])(C([H])([H])C([H])([H])C4([H])C5(C([H])([H])[H])C([H])([H])C([H])([H])C([H])(O[H])C(C([H])([H])[H])(C([H])([H])[H])C5([H])C([H])([H])C([H])([H])C43C([H])([H])[H])C12[H]

$$$$
13:0:1
     RDKit          3D

 85 89  0  0  1  0  0  0  0  0999 V2000
    2.0176    1.7223    3.3168 C   0  0  0  0  0  0  0  0  0  0  0  0
    2.1539    0.4928    2.3887 C   0  0  2  0  0  0  0  0  0  0  0  0
    0.7514   -0.0991    2.1000 C   0  0  0  0  0  0  0  0  0  0  0  0
   -0.1907    0.8655    1.6807 O   0  0  0  0  0  0  0  0  0  0  0  0
    3.0982   -0.6147    2.9726 C   0  0  2  0  0  0  0  0  0  0  0  0
    4.4023   -0.0977    3.6238 C   0  0  0  0  0  0  0  0  0  0  0  0
    5.5441   -0.9709    3.1056 C   0  0  0  0  0  0  0  0  0  0  0  0
    5.0856   -1.4620    1.7207 C   0  0  1  0  0  0  0  0  0  0  0  0
    5.2998   -0.3068    0.7039 C   0  0  0  0  0  0  0  0  0  0  0  0
    4.9164   -0.6529   -0.6173 O   0  0  0  0  0  0  0  0  0  0  0  0
    5.9126   -2.6893    1.2176 C   0  0  0  0  0  0  0  0  0  0  0  0
    5.3728   -4.0895    1.5337 C   0  0  0  0  0  0  0  0  0  0  0  0
    3.8234   -4.2468    1.3726 C   0  0  2  0  0  0  0  0  0  0  0  0
    3.4074   -3.8771   -0.0886 C   0  0  0  0  0  0  0  0  0  0  0  0
    3.1823   -3.1837    2.3280 C   0  0  1  0  0  0  0  0  0  0  0  0
    3.4354   -3.5960    3.7988 C   0  0  0  0  0  0  0  0  0  0  0  0
    2.8728   -4.9819    4.0879 C   0  0  0  0  0  0  0  0  0  0  0  0
    3.4858   -6.1286    3.2214 C   0  0  1  0  0  0  0  0  0  0  0  0
    2.9072   -7.5515    3.6770 C   0  0  2  0  0  0  0  0  0  0  0  0
    3.1124   -7.6101    5.2213 C   0  0  0  0  0  0  0  0  0  0  0  0
    3.6854   -8.7893    3.1203 C   0  0  0  0  0  0  0  0  0  0  0  0
    3.0685  -10.1599    3.4721 C   0  0  0  0  0  0  0  0  0  0  0  0
    1.5881  -10.2419    3.0644 C   0  0  1  0  0  0  0  0  0  0  0  0
    1.0472  -11.4815    3.4800 O   0  0  0  0  0  0  0  0  0  0  0  0
    0.7237   -9.0715    3.6004 C   0  0  0  0  0  0  0  0  0  0  0  0
   -0.6829   -9.1670    2.9470 C   0  0  0  0  0  0  0  0  0  0  0  0
    0.4821   -9.2007    5.1298 C   0  0  0  0  0  0  0  0  0  0  0  0
    1.3988   -7.6886    3.2414 C   0  0  2  0  0  0  0  0  0  0  0  0
    1.2626   -7.3351    1.7322 C   0  0  0  0  0  0  0  0  0  0  0  0
    1.8582   -5.9744    1.3238 C   0  0  0  0  0  0  0  0  0  0  0  0
    3.3556   -5.7540    1.6928 C   0  0  1  0  0  0  0  0  0  0  0  0
    4.2384   -6.6998    0.8223 C   0  0  0  0  0  0  0  0  0  0  0  0
    3.5642   -1.7062    1.9525 C   0  0  1  0  0  0  0  0  0  0  0  0
    1.6027    1.4371    4.2820 H   0  0  0  0  0  0  0  0  0  0  0  0
    1.3575    2.4686    2.8754 H   0  0  0  0  0  0  0  0  0  0  0  0
    2.9594    2.2412    3.4842 H   0  0  0  0  0  0  0  0  0  0  0  0
    2.5585    0.8506    1.4428 H   0  0  0  0  0  0  0  0  0  0  0  0
    0.8238   -0.8716    1.3386 H   0  0  0  0  0  0  0  0  0  0  0  0
    0.3487   -0.5736    2.9950 H   0  0  0  0  0  0  0  0  0  0  0  0
   -0.2864    0.8327    0.7216 H   0  0  0  0  0  0  0  0  0  0  0  0
    2.5142   -1.0702    3.7630 H   0  0  0  0  0  0  0  0  0  0  0  0
    4.6292    0.9245    3.3262 H   0  0  0  0  0  0  0  0  0  0  0  0
    4.3417   -0.1114    4.7142 H   0  0  0  0  0  0  0  0  0  0  0  0
    6.4687   -0.3940    3.0659 H   0  0  0  0  0  0  0  0  0  0  0  0
    5.7164   -1.7989    3.7912 H   0  0  0  0  0  0  0  0  0  0  0  0
    4.7311    0.5770    0.9762 H   0  0  0  0  0  0  0  0  0  0  0  0
    6.3440   -0.0107    0.6790 H   0  0  0  0  0  0  0  0  0  0  0  0
    4.8595    0.1533   -1.1100 H   0  0  0  0  0  0  0  0  0  0  0  0
    6.0601   -2.6583    0.1358 H   0  0  0  0  0  0  0  0  0  0  0  0
    6.9234   -2.6139    1.6116 H   0  0  0  0  0  0  0  0  0  0  0  0
    5.9156   -4.7675    0.8780 H   0  0  0  0  0  0  0  0  0  0  0  0
    5.7041   -4.3778    2.5255 H   0  0  0  0  0  0  0  0  0  0  0  0
    2.3347   -3.7054   -0.1695 H   0  0  0  0  0  0  0  0  0  0  0  0
    3.6664   -4.6232   -0.8334 H   0  0  0  0  0  0  0  0  0  0  0  0
    3.8778   -2.9678   -0.4421 H   0  0  0  0  0  0  0  0  0  0  0  0
    2.1018   -3.2137    2.1987 H   0  0  0  0  0  0  0  0  0  0  0  0
    4.4912   -3.5868    4.0661 H   0  0  0  0  0  0  0  0  0  0  0  0
    2.9548   -2.9221    4.5031 H   0  0  0  0  0  0  0  0  0  0  0  0
    3.0487   -5.1324    5.1506 H   0  0  0  0  0  0  0  0  0  0  0  0
    1.7900   -4.9376    3.9667 H   0  0  0  0  0  0  0  0  0  0  0  0
    4.5502   -6.1495    3.4572 H   0  0  0  0  0  0  0  0  0  0  0  0
    3.1906   -8.6131    5.6256 H   0  0  0  0  0  0  0  0  0  0  0  0
    2.3046   -7.1139    5.7623 H   0  0  0  0  0  0  0  0  0  0  0  0
    4.0530   -7.1387    5.5097 H   0  0  0  0  0  0  0  0  0  0  0  0
    3.6840   -8.8013    2.0426 H   0  0  0  0  0  0  0  0  0  0  0  0
    4.7331   -8.7505    3.4189 H   0  0  0  0  0  0  0  0  0  0  0  0
    3.6159  -10.9337    2.9344 H   0  0  0  0  0  0  0  0  0  0  0  0
    3.2020  -10.4052    4.5223 H   0  0  0  0  0  0  0  0  0  0  0  0
    1.5487  -10.2350    1.9769 H   0  0  0  0  0  0  0  0  0  0  0  0
    1.1245  -11.5522    4.4147 H   0  0  0  0  0  0  0  0  0  0  0  0
   -1.2926   -8.2905    3.1693 H   0  0  0  0  0  0  0  0  0  0  0  0
   -1.2316  -10.0466    3.2775 H   0  0  0  0  0  0  0  0  0  0  0  0
   -0.6212   -9.2835    1.8652 H   0  0  0  0  0  0  0  0  0  0  0  0
    0.1881   -8.2529    5.5801 H   0  0  0  0  0  0  0  0  0  0  0  0
    1.3439   -9.5928    5.6656 H   0  0  0  0  0  0  0  0  0  0  0  0
   -0.3113   -9.9027    5.3582 H   0  0  0  0  0  0  0  0  0  0  0  0
    0.8201   -6.9346    3.7758 H   0  0  0  0  0  0  0  0  0  0  0  0
    1.6911   -8.1245    1.1213 H   0  0  0  0  0  0  0  0  0  0  0  0
    0.2156   -7.2944    1.4479 H   0  0  0  0  0  0  0  0  0  0  0  0
    1.7114   -5.8621    0.2498 H   0  0  0  0  0  0  0  0  0  0  0  0
    1.2540   -5.2047    1.7983 H   0  0  0  0  0  0  0  0  0  0  0  0
    3.6838   -7.5463    0.4474 H   0  0  0  0  0  0  0  0  0  0  0  0
    5.0938   -7.0763    1.3805 H   0  0  0  0  0  0  0  0  0  0  0  0
    4.6506   -6.2471   -0.0743 H   0  0  0  0  0  0  0  0  0  0  0  0
    3.0462   -1.4959    1.0183 H   0  0  0  0  0  0  0  0  0  0  0  0
  1  2  1  0
  1 34  1  0
  1 35  1  0
  1 36  1  0
  2  3  1  0
  2  5  1  0
  2 37  1  6
  3  4  1  0
  3 38  1  0
  3 39  1  0
  4 40  1  0
  5 33  1  0
  5  6  1  0
  5 41  1  1
  6  7  1  0
  6 42  1  0
  6 43  1  0
  7  8  1  0
  7 44  1  0
  7 45  1  0
  8 33  1  0
  8  9  1  6
  8 11  1  0
  9 10  1  0
  9 46  1  0
  9 47  1  0
 10 48  1  0
 11 12  1  0
 11 49  1  0
 11 50  1  0
 12 13  1  0
 12 51  1  0
 12 52  1  0
 13 31  1  0
 13 14  1  6
 13 15  1  0
 14 53  1  0
 14 54  1  0
 14 55  1  0
 15 16  1  0
 15 33  1  0
 15 56  1  1
 16 17  1  0
 16 57  1  0
 16 58  1  0
 17 18  1  0
 17 59  1  0
 17 60  1  0
 18 31  1  0
 18 19  1  0
 18 61  1  1
 19 28  1  0
 19 20  1  1
 19 21  1  0
 20 62  1  0
 20 63  1  0
 20 64  1  0
 21 22  1  0
 21 65  1  0
 21 66  1  0
 22 23  1  0
 22 67  1  0
 22 68  1  0
 23 24  1  0
 23 25  1  0
 23 69  1  6
 24 70  1  0
 25 26  1  0
 25 27  1  0
 25 28  1  0
 26 71  1  0
 26 72  1  0
 26 73  1  0
 27 74  1  0
 27 75  1  0
 27 76  1  0
 28 29  1  0
 28 77  1  1
 29 30  1  0
 29 78  1  0
 29 79  1  0
 30 31  1  0
 30 80  1  0
 30 81  1  0
 31 32  1  6
 32 82  1  0
 32 83  1  0
 32 84  1  0
 33 85  1  6
M  END
>  <i_m_ct_stereo_status>  (42) 
1

>  <s_m_source_file>  (42) 
/var/tmp/pbs.5076255.sched01/tmprv8ptrg5/026yimkau.sdf

>  <i_m_source_file_index>  (42) 
17

>  <i_lp_mmshare_version>  (42) 
48012

>  <i_f3d_flags>  (42) 
0

>  <s_epik_input>  (42) 
W09IXVtDSDJdW0NAQEhdKFtDSDNdKVtDQEhdKFtDSDJdW0NIMl0xKVtDQEBIXShbQ0BAXTEyW0NIMl1bT0hdKVtDQEhdM1tDQEBdKFtDSDNdKShbQ0gyXVtDSDJdMilbQ0BAXTQoW0NIM10pW0NAQEhdKFtDSDJdW0NIMl0zKVtDQEBdNShbQ0gzXSlbQ0BASF0oW0NIMl1bQ0gyXTQpQyhbQ0gzXSkoW0NIM10pW0NASF0oW09IXSlbQ0gyXVtDSDJdNQ==

>  <s_epik_cmdline>  (42) 
J2VwaWtfcHl0aG9uJywgJy1waHQnLCAnMi4wJywgJy1waCcsICc3LjAnLCAnLXRuJywgJzgnLCAnLW1hJywgJzIwMCcsICctaW1hZScsICc8aW5maWxlLm1hZT4nLCAnLW9tYWUnLCAnPG91dGZpbGUubWFlPic=

>  <r_lp_tautomer_probability>  (42) 
1

>  <r_epik_Ionization_Penalty>  (42) 
5.7604e-06

>  <r_epik_Ionization_Penalty_Charging>  (42) 
0

>  <r_epik_Ionization_Penalty_Neutral>  (42) 
5.7604e-06

>  <r_epik_State_Penalty>  (42) 
-0

>  <r_epik_Charging_Adjusted_Penalty>  (42) 
0

>  <i_epik_Tot_Q>  (42) 
0

>  <i_epik_Tot_abs_Q>  (42) 
0

>  <s_lp_Force_Field>  (42) 
OPLS3e

>  <r_lp_Energy>  (42) 
102.936

>  <b_lp_Chiralities_Consistent>  (42) 
1

>  <s_lp_Variant>  (42) 
13:0-1

>  <s_i_glide_gridfile>  (42) 
pfpi4k_grid

>  <i_i_glide_lignum>  (42) 
17

>  <i_i_glide_rotatable_bonds>  (42) 
6

>  <r_i_docking_score>  (42) 
-3.20069

>  <r_i_glide_ligand_efficiency>  (42) 
-0.0969908

>  <r_i_glide_ligand_efficiency_sa>  (42) 
-0.311101

>  <r_i_glide_ligand_efficiency_ln>  (42) 
-0.711818

>  <r_i_glide_gscore>  (42) 
-3.20069

>  <r_i_glide_lipo>  (42) 
-0.763896

>  <r_i_glide_hbond>  (42) 
-0.409295

>  <r_i_glide_metal>  (42) 
-0

>  <r_i_glide_rewards>  (42) 
-0.267736

>  <r_i_glide_evdw>  (42) 
-25.4603

>  <r_i_glide_ecoul>  (42) 
-5.1417

>  <r_i_glide_erotb>  (42) 
0.284501

>  <r_i_glide_esite>  (42) 
0

>  <r_i_glide_emodel>  (42) 
-34.3726

>  <r_i_glide_energy>  (42) 
-30.602

>  <r_i_glide_einternal>  (42) 
3.62755

>  <r_i_glide_intrahb_reward>  (42) 
-0

>  <i_i_glide_confnum>  (42) 
4

>  <i_i_glide_posenum>  (42) 
1

>  <r_i_glide_eff_state_penalty>  (42) 
0

>  <ligand_id>  (42) 
13

>  <original_smiles>  (42) 
CC(CO)C1CCC2(CO)CCC3(C)C(CCC4C5(C)CCC(O)C(C)(C)C5CCC43C)C12

>  <smiles>  (42) 
[H]OC([H])([H])C([H])(C([H])([H])[H])C1([H])C([H])([H])C([H])([H])C2(C([H])([H])O[H])C([H])([H])C([H])([H])C3(C([H])([H])[H])C([H])(C([H])([H])C([H])([H])C4([H])C5(C([H])([H])[H])C([H])([H])C([H])([H])C([H])(O[H])C(C([H])([H])[H])(C([H])([H])[H])C5([H])C([H])([H])C([H])([H])C43C([H])([H])[H])C12[H]

$$$$
13:0:2
     RDKit          3D

 85 89  0  0  1  0  0  0  0  0999 V2000
    2.0090    1.7090    3.1597 C   0  0  0  0  0  0  0  0  0  0  0  0
    2.0942    0.4234    2.3091 C   0  0  2  0  0  0  0  0  0  0  0  0
    0.6803   -0.1775    2.1384 C   0  0  0  0  0  0  0  0  0  0  0  0
   -0.2761    0.7619    1.6891 O   0  0  0  0  0  0  0  0  0  0  0  0
    3.0674   -0.6569    2.9020 C   0  0  2  0  0  0  0  0  0  0  0  0
    4.3660   -0.1140    3.5447 C   0  0  0  0  0  0  0  0  0  0  0  0
    5.5173   -0.9722    3.0194 C   0  0  0  0  0  0  0  0  0  0  0  0
    5.0575   -1.4703    1.6371 C   0  0  1  0  0  0  0  0  0  0  0  0
    5.2403   -0.3089    0.6135 C   0  0  0  0  0  0  0  0  0  0  0  0
    4.8205   -0.6677   -0.6897 O   0  0  0  0  0  0  0  0  0  0  0  0
    5.9108   -2.6771    1.1361 C   0  0  0  0  0  0  0  0  0  0  0  0
    5.4080   -4.0929    1.4654 C   0  0  0  0  0  0  0  0  0  0  0  0
    3.8621   -4.2930    1.3202 C   0  0  2  0  0  0  0  0  0  0  0  0
    3.4327   -3.9397   -0.1386 C   0  0  0  0  0  0  0  0  0  0  0  0
    3.2010   -3.2397    2.2766 C   0  0  1  0  0  0  0  0  0  0  0  0
    3.4781   -3.6318    3.7459 C   0  0  0  0  0  0  0  0  0  0  0  0
    2.9466   -5.0280    4.0491 C   0  0  0  0  0  0  0  0  0  0  0  0
    3.5843   -6.1690    3.1891 C   0  0  1  0  0  0  0  0  0  0  0  0
    3.0427   -7.5990    3.6638 C   0  0  2  0  0  0  0  0  0  0  0  0
    3.2556   -7.6401    5.2069 C   0  0  0  0  0  0  0  0  0  0  0  0
    3.8491   -8.8176    3.1077 C   0  0  0  0  0  0  0  0  0  0  0  0
    3.2710  -10.2023    3.4756 C   0  0  0  0  0  0  0  0  0  0  0  0
    1.7933  -10.3284    3.0737 C   0  0  1  0  0  0  0  0  0  0  0  0
    1.2957  -11.5819    3.5147 O   0  0  0  0  0  0  0  0  0  0  0  0
    0.8947   -9.1773    3.6067 C   0  0  0  0  0  0  0  0  0  0  0  0
   -0.5075   -9.3149    2.9616 C   0  0  0  0  0  0  0  0  0  0  0  0
    0.6521   -9.3148    5.1380 C   0  0  0  0  0  0  0  0  0  0  0  0
    1.5363   -7.7766    3.2400 C   0  0  2  0  0  0  0  0  0  0  0  0
    1.3834   -7.4395    1.7263 C   0  0  0  0  0  0  0  0  0  0  0  0
    1.9424   -6.0679    1.3010 C   0  0  0  0  0  0  0  0  0  0  0  0
    3.4367   -5.8124    1.6541 C   0  0  1  0  0  0  0  0  0  0  0  0
    4.3398   -6.7450    0.7827 C   0  0  0  0  0  0  0  0  0  0  0  0
    3.5427   -1.7500    1.8860 C   0  0  1  0  0  0  0  0  0  0  0  0
    1.6601    1.4852    4.1660 H   0  0  0  0  0  0  0  0  0  0  0  0
    1.2992    2.4152    2.7221 H   0  0  0  0  0  0  0  0  0  0  0  0
    2.9585    2.2391    3.2275 H   0  0  0  0  0  0  0  0  0  0  0  0
    2.4477    0.7171    1.3232 H   0  0  0  0  0  0  0  0  0  0  0  0
    0.7005   -1.0262    1.4599 H   0  0  0  0  0  0  0  0  0  0  0  0
    0.3171   -0.5585    3.0901 H   0  0  0  0  0  0  0  0  0  0  0  0
   -0.3293    0.7264    0.7309 H   0  0  0  0  0  0  0  0  0  0  0  0
    2.4986   -1.1214    3.6992 H   0  0  0  0  0  0  0  0  0  0  0  0
    4.5761    0.9137    3.2551 H   0  0  0  0  0  0  0  0  0  0  0  0
    4.3144   -0.1361    4.6357 H   0  0  0  0  0  0  0  0  0  0  0  0
    6.4319   -0.3843    2.9652 H   0  0  0  0  0  0  0  0  0  0  0  0
    5.7241   -1.7950    3.7039 H   0  0  0  0  0  0  0  0  0  0  0  0
    4.6952    0.5878    0.9119 H   0  0  0  0  0  0  0  0  0  0  0  0
    6.2933   -0.0243    0.5625 H   0  0  0  0  0  0  0  0  0  0  0  0
    3.8892   -0.8391   -0.6720 H   0  0  0  0  0  0  0  0  0  0  0  0
    6.0447   -2.6455    0.0541 H   0  0  0  0  0  0  0  0  0  0  0  0
    6.9255   -2.5795    1.5230 H   0  0  0  0  0  0  0  0  0  0  0  0
    5.9658   -4.7668    0.8200 H   0  0  0  0  0  0  0  0  0  0  0  0
    5.7547   -4.3616    2.4604 H   0  0  0  0  0  0  0  0  0  0  0  0
    2.3536   -3.8028   -0.2142 H   0  0  0  0  0  0  0  0  0  0  0  0
    3.7130   -4.6785   -0.8821 H   0  0  0  0  0  0  0  0  0  0  0  0
    3.8786   -3.0177   -0.4970 H   0  0  0  0  0  0  0  0  0  0  0  0
    2.1181   -3.3003    2.1538 H   0  0  0  0  0  0  0  0  0  0  0  0
    4.5337   -3.5916    4.0102 H   0  0  0  0  0  0  0  0  0  0  0  0
    2.9834   -2.9651    4.4481 H   0  0  0  0  0  0  0  0  0  0  0  0
    3.1344   -5.1647    5.1122 H   0  0  0  0  0  0  0  0  0  0  0  0
    1.8623   -5.0135    3.9370 H   0  0  0  0  0  0  0  0  0  0  0  0
    4.6514   -6.1594    3.4172 H   0  0  0  0  0  0  0  0  0  0  0  0
    3.3569   -8.6389    5.6197 H   0  0  0  0  0  0  0  0  0  0  0  0
    2.4393   -7.1556    5.7461 H   0  0  0  0  0  0  0  0  0  0  0  0
    4.1885   -7.1438    5.4842 H   0  0  0  0  0  0  0  0  0  0  0  0
    3.8458   -8.8357    2.0292 H   0  0  0  0  0  0  0  0  0  0  0  0
    4.8972   -8.7526    3.4048 H   0  0  0  0  0  0  0  0  0  0  0  0
    3.8440  -10.9649    2.9472 H   0  0  0  0  0  0  0  0  0  0  0  0
    3.4060  -10.4345    4.5294 H   0  0  0  0  0  0  0  0  0  0  0  0
    1.7504  -10.3152    1.9862 H   0  0  0  0  0  0  0  0  0  0  0  0
    1.8121  -12.2853    3.1604 H   0  0  0  0  0  0  0  0  0  0  0  0
   -1.1397   -8.4550    3.1956 H   0  0  0  0  0  0  0  0  0  0  0  0
   -1.0193  -10.2130    3.3109 H   0  0  0  0  0  0  0  0  0  0  0  0
   -0.4509   -9.4240    1.8792 H   0  0  0  0  0  0  0  0  0  0  0  0
    0.3321   -8.3717    5.5838 H   0  0  0  0  0  0  0  0  0  0  0  0
    1.5242   -9.6780    5.6771 H   0  0  0  0  0  0  0  0  0  0  0  0
   -0.1304  -10.0442    5.3584 H   0  0  0  0  0  0  0  0  0  0  0  0
    0.9416   -7.0325    3.7716 H   0  0  0  0  0  0  0  0  0  0  0  0
    1.8274   -8.2233    1.1168 H   0  0  0  0  0  0  0  0  0  0  0  0
    0.3318   -7.4262    1.4478 H   0  0  0  0  0  0  0  0  0  0  0  0
    1.7865   -5.9710    0.2269 H   0  0  0  0  0  0  0  0  0  0  0  0
    1.3192   -5.3077    1.7634 H   0  0  0  0  0  0  0  0  0  0  0  0
    3.8203   -7.6139    0.3862 H   0  0  0  0  0  0  0  0  0  0  0  0
    5.2094   -7.0900    1.3438 H   0  0  0  0  0  0  0  0  0  0  0  0
    4.7404   -6.2766   -0.1111 H   0  0  0  0  0  0  0  0  0  0  0  0
    3.0006   -1.5710    0.9603 H   0  0  0  0  0  0  0  0  0  0  0  0
  1  2  1  0
  1 34  1  0
  1 35  1  0
  1 36  1  0
  2  3  1  0
  2  5  1  0
  2 37  1  6
  3  4  1  0
  3 38  1  0
  3 39  1  0
  4 40  1  0
  5 33  1  0
  5  6  1  0
  5 41  1  1
  6  7  1  0
  6 42  1  0
  6 43  1  0
  7  8  1  0
  7 44  1  0
  7 45  1  0
  8 33  1  0
  8  9  1  6
  8 11  1  0
  9 10  1  0
  9 46  1  0
  9 47  1  0
 10 48  1  0
 11 12  1  0
 11 49  1  0
 11 50  1  0
 12 13  1  0
 12 51  1  0
 12 52  1  0
 13 31  1  0
 13 14  1  6
 13 15  1  0
 14 53  1  0
 14 54  1  0
 14 55  1  0
 15 16  1  0
 15 33  1  0
 15 56  1  1
 16 17  1  0
 16 57  1  0
 16 58  1  0
 17 18  1  0
 17 59  1  0
 17 60  1  0
 18 31  1  0
 18 19  1  0
 18 61  1  1
 19 28  1  0
 19 20  1  1
 19 21  1  0
 20 62  1  0
 20 63  1  0
 20 64  1  0
 21 22  1  0
 21 65  1  0
 21 66  1  0
 22 23  1  0
 22 67  1  0
 22 68  1  0
 23 24  1  0
 23 25  1  0
 23 69  1  6
 24 70  1  0
 25 26  1  0
 25 27  1  0
 25 28  1  0
 26 71  1  0
 26 72  1  0
 26 73  1  0
 27 74  1  0
 27 75  1  0
 27 76  1  0
 28 29  1  0
 28 77  1  1
 29 30  1  0
 29 78  1  0
 29 79  1  0
 30 31  1  0
 30 80  1  0
 30 81  1  0
 31 32  1  6
 32 82  1  0
 32 83  1  0
 32 84  1  0
 33 85  1  6
M  END
>  <i_m_ct_stereo_status>  (43) 
1

>  <s_m_source_file>  (43) 
/var/tmp/pbs.5076255.sched01/tmprv8ptrg5/026yimkau.sdf

>  <i_m_source_file_index>  (43) 
17

>  <i_lp_mmshare_version>  (43) 
48012

>  <i_f3d_flags>  (43) 
0

>  <s_epik_input>  (43) 
W09IXVtDSDJdW0NAQEhdKFtDSDNdKVtDQEhdKFtDSDJdW0NIMl0xKVtDQEBIXShbQ0BAXTEyW0NIMl1bT0hdKVtDQEhdM1tDQEBdKFtDSDNdKShbQ0gyXVtDSDJdMilbQ0BAXTQoW0NIM10pW0NAQEhdKFtDSDJdW0NIMl0zKVtDQEBdNShbQ0gzXSlbQ0BASF0oW0NIMl1bQ0gyXTQpQyhbQ0gzXSkoW0NIM10pW0NASF0oW09IXSlbQ0gyXVtDSDJdNQ==

>  <s_epik_cmdline>  (43) 
J2VwaWtfcHl0aG9uJywgJy1waHQnLCAnMi4wJywgJy1waCcsICc3LjAnLCAnLXRuJywgJzgnLCAnLW1hJywgJzIwMCcsICctaW1hZScsICc8aW5maWxlLm1hZT4nLCAnLW9tYWUnLCAnPG91dGZpbGUubWFlPic=

>  <r_lp_tautomer_probability>  (43) 
1

>  <r_epik_Ionization_Penalty>  (43) 
5.7604e-06

>  <r_epik_Ionization_Penalty_Charging>  (43) 
0

>  <r_epik_Ionization_Penalty_Neutral>  (43) 
5.7604e-06

>  <r_epik_State_Penalty>  (43) 
-0

>  <r_epik_Charging_Adjusted_Penalty>  (43) 
0

>  <i_epik_Tot_Q>  (43) 
0

>  <i_epik_Tot_abs_Q>  (43) 
0

>  <s_lp_Force_Field>  (43) 
OPLS3e

>  <r_lp_Energy>  (43) 
102.936

>  <b_lp_Chiralities_Consistent>  (43) 
1

>  <s_lp_Variant>  (43) 
13:0-1

>  <s_i_glide_gridfile>  (43) 
pfpi4k_grid

>  <i_i_glide_lignum>  (43) 
17

>  <i_i_glide_rotatable_bonds>  (43) 
6

>  <r_i_docking_score>  (43) 
-3.06976

>  <r_i_glide_ligand_efficiency>  (43) 
-0.0930231

>  <r_i_glide_ligand_efficiency_sa>  (43) 
-0.298375

>  <r_i_glide_ligand_efficiency_ln>  (43) 
-0.682699

>  <r_i_glide_gscore>  (43) 
-3.06976

>  <r_i_glide_lipo>  (43) 
-0.761038

>  <r_i_glide_hbond>  (43) 
-0.232517

>  <r_i_glide_metal>  (43) 
-0

>  <r_i_glide_rewards>  (43) 
-0.267736

>  <r_i_glide_evdw>  (43) 
-25.2124

>  <r_i_glide_ecoul>  (43) 
-5.54901

>  <r_i_glide_erotb>  (43) 
0.284501

>  <r_i_glide_esite>  (43) 
0

>  <r_i_glide_emodel>  (43) 
-34.0607

>  <r_i_glide_energy>  (43) 
-30.7614

>  <r_i_glide_einternal>  (43) 
3.99055

>  <r_i_glide_intrahb_reward>  (43) 
-0

>  <i_i_glide_confnum>  (43) 
4

>  <i_i_glide_posenum>  (43) 
6

>  <r_i_glide_eff_state_penalty>  (43) 
0

>  <ligand_id>  (43) 
13

>  <original_smiles>  (43) 
CC(CO)C1CCC2(CO)CCC3(C)C(CCC4C5(C)CCC(O)C(C)(C)C5CCC43C)C12

>  <smiles>  (43) 
[H]OC([H])([H])C([H])(C([H])([H])[H])C1([H])C([H])([H])C([H])([H])C2(C([H])([H])O[H])C([H])([H])C([H])([H])C3(C([H])([H])[H])C([H])(C([H])([H])C([H])([H])C4([H])C5(C([H])([H])[H])C([H])([H])C([H])([H])C([H])(O[H])C(C([H])([H])[H])(C([H])([H])[H])C5([H])C([H])([H])C([H])([H])C43C([H])([H])[H])C12[H]

$$$$
16:0:0
     RDKit          3D

 31 32  0  0  1  0  0  0  0  0999 V2000
   -4.5765   -8.9574   -5.3469 C   0  0  0  0  0  0  0  0  0  0  0  0
   -5.6467   -9.1527   -6.4135 C   0  0  0  0  0  0  0  0  0  0  0  0
   -6.6025   -8.2034   -6.4714 C   0  0  0  0  0  0  0  0  0  0  0  0
   -7.7921   -8.0905   -7.3424 C   0  0  0  0  0  0  0  0  0  0  0  0
   -8.1816   -6.7970   -7.7772 C   0  0  0  0  0  0  0  0  0  0  0  0
   -9.2892   -6.6095   -8.6366 C   0  0  0  0  0  0  0  0  0  0  0  0
   -9.9694   -7.7519   -9.0710 C   0  0  0  0  0  0  0  0  0  0  0  0
   -9.6061   -9.0094   -8.6575 C   0  0  0  0  0  0  0  0  0  0  0  0
   -8.5316   -9.2178   -7.7805 C   0  0  0  0  0  0  0  0  0  0  0  0
  -10.4157   -9.9402   -9.2387 O   0  0  0  0  0  0  0  0  0  0  0  0
  -11.2275   -9.2177  -10.1278 C   0  0  0  0  0  0  0  0  0  0  0  0
  -11.0278   -7.8407   -9.9308 O   0  0  0  0  0  0  0  0  0  0  0  0
   -5.6055  -10.2688   -7.3684 C   0  0  0  0  0  0  0  0  0  0  0  0
   -4.9259  -11.4432   -7.3071 C   0  0  0  0  0  0  0  0  0  0  0  0
   -4.0426  -11.9218   -6.1720 C   0  0  0  0  0  0  0  0  0  0  0  0
   -4.9959  -12.4523   -8.4964 C   0  0  0  0  0  0  0  0  0  0  0  0
   -3.9236  -12.6612   -9.1094 O   0  0  0  0  0  0  0  0  0  0  0  0
   -6.1138  -12.9582   -8.7171 O   0  0  0  0  0  0  0  0  0  0  0  0
   -3.6180   -9.3544   -5.6643 H   0  0  0  0  0  0  0  0  0  0  0  0
   -4.8753   -9.4453   -4.4223 H   0  0  0  0  0  0  0  0  0  0  0  0
   -4.4067   -7.9011   -5.1193 H   0  0  0  0  0  0  0  0  0  0  0  0
   -6.5294   -7.3947   -5.7570 H   0  0  0  0  0  0  0  0  0  0  0  0
   -7.6159   -5.9327   -7.4571 H   0  0  0  0  0  0  0  0  0  0  0  0
   -9.5828   -5.6228   -8.9746 H   0  0  0  0  0  0  0  0  0  0  0  0
   -8.2952  -10.2236   -7.4680 H   0  0  0  0  0  0  0  0  0  0  0  0
  -10.9212   -9.4657  -11.1441 H   0  0  0  0  0  0  0  0  0  0  0  0
  -12.2784   -9.4893   -9.9920 H   0  0  0  0  0  0  0  0  0  0  0  0
   -6.1666  -10.1559   -8.2795 H   0  0  0  0  0  0  0  0  0  0  0  0
   -4.1065  -13.0118   -6.0744 H   0  0  0  0  0  0  0  0  0  0  0  0
   -4.3180  -11.5185   -5.1977 H   0  0  0  0  0  0  0  0  0  0  0  0
   -3.0022  -11.6672   -6.3951 H   0  0  0  0  0  0  0  0  0  0  0  0
  1  2  1  0
  1 19  1  0
  1 20  1  0
  1 21  1  0
  2  3  2  3
  2 13  1  0
  3  4  1  0
  3 22  1  0
  4  9  2  0
  4  5  1  0
  5  6  2  0
  5 23  1  0
  6  7  1  0
  6 24  1  0
  7 12  1  0
  7  8  2  0
  8  9  1  0
  8 10  1  0
  9 25  1  0
 10 11  1  0
 11 12  1  0
 11 26  1  0
 11 27  1  0
 13 14  2  3
 13 28  1  0
 14 15  1  0
 14 16  1  0
 15 29  1  0
 15 30  1  0
 15 31  1  0
 16 17  2  0
 16 18  1  0
M  CHG  1  18  -1
M  END
>  <i_m_ct_stereo_status>  (44) 
1

>  <s_m_source_file>  (44) 
/var/tmp/pbs.5076255.sched01/tmprv8ptrg5/026yimkau.sdf

>  <i_m_source_file_index>  (44) 
21

>  <i_lp_mmshare_version>  (44) 
48012

>  <i_f3d_flags>  (44) 
0

>  <s_epik_input>  (44) 
Tz1DKFtPSF0pQyhcW0NIM10pPVtDSF1cQyhcW0NIM10pPVtDSF0vYyhbY0hdW2NIXTEpW2NIXWMoYzEyKU9bQ0gyXU8y

>  <s_epik_cmdline>  (44) 
J2VwaWtfcHl0aG9uJywgJy1waHQnLCAnMi4wJywgJy1waCcsICc3LjAnLCAnLXRuJywgJzgnLCAnLW1hJywgJzIwMCcsICctaW1hZScsICc8aW5maWxlLm1hZT4nLCAnLW9tYWUnLCAnPG91dGZpbGUubWFlPic=

>  <r_epik_Ionization_Penalty>  (44) 
0.00649197

>  <r_epik_Ionization_Penalty_Charging>  (44) 
0.00649197

>  <r_epik_Ionization_Penalty_Neutral>  (44) 
0

>  <r_epik_State_Penalty>  (44) 
0.00480461

>  <r_epik_Charging_Adjusted_Penalty>  (44) 
0.0112966

>  <i_epik_Tot_Q>  (44) 
-1

>  <i_epik_Tot_abs_Q>  (44) 
1

>  <s_epik_Chemistry_Notes>  (44) 
This compound contains an acetal/aminal-like group ( X-CH(R)-Y where X, Y are N, S, or O) that may be acid/base labile, releasing an aldehyde.

>  <s_lp_Force_Field>  (44) 
OPLS3e

>  <r_lp_Energy>  (44) 
30.8319

>  <b_lp_Chiralities_Consistent>  (44) 
1

>  <s_lp_Variant>  (44) 
16:0-1

>  <s_i_glide_gridfile>  (44) 
pfpi4k_grid

>  <i_i_glide_lignum>  (44) 
21

>  <i_i_glide_rotatable_bonds>  (44) 
3

>  <r_i_docking_score>  (44) 
-4.06792

>  <r_i_glide_ligand_efficiency>  (44) 
-0.225996

>  <r_i_glide_ligand_efficiency_sa>  (44) 
-0.592276

>  <r_i_glide_ligand_efficiency_ln>  (44) 
-1.04564

>  <r_i_glide_gscore>  (44) 
-4.06792

>  <r_i_glide_lipo>  (44) 
-1.25739

>  <r_i_glide_hbond>  (44) 
-0.0377603

>  <r_i_glide_metal>  (44) 
-0

>  <r_i_glide_rewards>  (44) 
-2.08231

>  <r_i_glide_evdw>  (44) 
-18.5271

>  <r_i_glide_ecoul>  (44) 
-2.16003

>  <r_i_glide_erotb>  (44) 
0.578697

>  <r_i_glide_esite>  (44) 
-0.0187993

>  <r_i_glide_emodel>  (44) 
-28.5878

>  <r_i_glide_energy>  (44) 
-20.6871

>  <r_i_glide_einternal>  (44) 
0.538298

>  <r_i_glide_intrahb_reward>  (44) 
-0

>  <i_i_glide_confnum>  (44) 
5

>  <i_i_glide_posenum>  (44) 
7

>  <r_i_glide_eff_state_penalty>  (44) 
0

>  <ligand_id>  (44) 
16

>  <original_smiles>  (44) 
CC(=Cc1ccc2c(c1)OCO2)C=C(C)C(=O)O

>  <smiles>  (44) 
[H]C(=C(C(=O)[O-])C([H])([H])[H])C(=C([H])c1c([H])c([H])c2c(c1[H])OC([H])([H])O2)C([H])([H])[H]

$$$$
16:2:0
     RDKit          3D

 31 32  0  0  1  0  0  0  0  0999 V2000
   -4.9854   -7.4274   -4.7964 C   0  0  0  0  0  0  0  0  0  0  0  0
   -6.1512   -7.8341   -5.6867 C   0  0  0  0  0  0  0  0  0  0  0  0
   -6.1389   -9.1013   -6.1527 C   0  0  0  0  0  0  0  0  0  0  0  0
   -7.0751   -9.7617   -7.0809 C   0  0  0  0  0  0  0  0  0  0  0  0
   -7.5654   -9.0819   -8.2304 C   0  0  0  0  0  0  0  0  0  0  0  0
   -8.5097   -9.6804   -9.0794 C   0  0  0  0  0  0  0  0  0  0  0  0
   -8.9008  -10.9948   -8.7995 C   0  0  0  0  0  0  0  0  0  0  0  0
   -8.4144  -11.6831   -7.7109 C   0  0  0  0  0  0  0  0  0  0  0  0
   -7.5060  -11.0873   -6.8212 C   0  0  0  0  0  0  0  0  0  0  0  0
   -8.9316  -12.9411   -7.7021 O   0  0  0  0  0  0  0  0  0  0  0  0
   -9.6665  -13.0545   -8.8967 C   0  0  0  0  0  0  0  0  0  0  0  0
   -9.7443  -11.7943   -9.5040 O   0  0  0  0  0  0  0  0  0  0  0  0
   -7.2643   -6.9276   -6.0054 C   0  0  0  0  0  0  0  0  0  0  0  0
   -7.4562   -5.6292   -5.6849 C   0  0  0  0  0  0  0  0  0  0  0  0
   -8.7173   -4.8882   -6.1258 C   0  0  0  0  0  0  0  0  0  0  0  0
   -6.5030   -4.7476   -4.8510 C   0  0  0  0  0  0  0  0  0  0  0  0
   -5.5395   -4.2613   -5.4796 O   0  0  0  0  0  0  0  0  0  0  0  0
   -6.8105   -4.6203   -3.6487 O   0  0  0  0  0  0  0  0  0  0  0  0
   -4.2596   -6.8569   -5.3769 H   0  0  0  0  0  0  0  0  0  0  0  0
   -4.4573   -8.2935   -4.3836 H   0  0  0  0  0  0  0  0  0  0  0  0
   -5.3109   -6.8319   -3.9389 H   0  0  0  0  0  0  0  0  0  0  0  0
   -5.3187   -9.7292   -5.8377 H   0  0  0  0  0  0  0  0  0  0  0  0
   -7.2051   -8.0995   -8.4753 H   0  0  0  0  0  0  0  0  0  0  0  0
   -8.9036   -9.1571   -9.9403 H   0  0  0  0  0  0  0  0  0  0  0  0
   -7.1352  -11.6349   -5.9654 H   0  0  0  0  0  0  0  0  0  0  0  0
   -9.1360  -13.7271   -9.5760 H   0  0  0  0  0  0  0  0  0  0  0  0
  -10.6694  -13.4447   -8.7144 H   0  0  0  0  0  0  0  0  0  0  0  0
   -8.1012   -7.3396   -6.5567 H   0  0  0  0  0  0  0  0  0  0  0  0
   -9.2874   -4.6164   -5.2383 H   0  0  0  0  0  0  0  0  0  0  0  0
   -9.3569   -5.5106   -6.7526 H   0  0  0  0  0  0  0  0  0  0  0  0
   -8.4786   -3.9762   -6.6797 H   0  0  0  0  0  0  0  0  0  0  0  0
  1  2  1  0
  1 19  1  0
  1 20  1  0
  1 21  1  0
  2  3  2  3
  2 13  1  0
  3  4  1  0
  3 22  1  0
  4  9  2  0
  4  5  1  0
  5  6  2  0
  5 23  1  0
  6  7  1  0
  6 24  1  0
  7 12  1  0
  7  8  2  0
  8  9  1  0
  8 10  1  0
  9 25  1  0
 10 11  1  0
 11 12  1  0
 11 26  1  0
 11 27  1  0
 13 14  2  3
 13 28  1  0
 14 15  1  0
 14 16  1  0
 15 29  1  0
 15 30  1  0
 15 31  1  0
 16 17  2  0
 16 18  1  0
M  CHG  1  18  -1
M  END
>  <i_m_ct_stereo_status>  (45) 
1

>  <s_m_source_file>  (45) 
/var/tmp/pbs.5076255.sched01/tmprv8ptrg5/026yimkau.sdf

>  <i_m_source_file_index>  (45) 
23

>  <i_lp_mmshare_version>  (45) 
48012

>  <i_f3d_flags>  (45) 
0

>  <s_epik_input>  (45) 
Tz1DKFtPSF0pQyhcW0NIM10pPVtDSF1cQyhcW0NIM10pPVtDSF0vYyhbY0hdW2NIXTEpW2NIXWMoYzEyKU9bQ0gyXU8y

>  <s_epik_cmdline>  (45) 
J2VwaWtfcHl0aG9uJywgJy1waHQnLCAnMi4wJywgJy1waCcsICc3LjAnLCAnLXRuJywgJzgnLCAnLW1hJywgJzIwMCcsICctaW1hZScsICc8aW5maWxlLm1hZT4nLCAnLW9tYWUnLCAnPG91dGZpbGUubWFlPic=

>  <r_epik_Ionization_Penalty>  (45) 
0.00649197

>  <r_epik_Ionization_Penalty_Charging>  (45) 
0.00649197

>  <r_epik_Ionization_Penalty_Neutral>  (45) 
0

>  <r_epik_State_Penalty>  (45) 
0.00480461

>  <r_epik_Charging_Adjusted_Penalty>  (45) 
0.0112966

>  <i_epik_Tot_Q>  (45) 
-1

>  <i_epik_Tot_abs_Q>  (45) 
1

>  <s_epik_Chemistry_Notes>  (45) 
This compound contains an acetal/aminal-like group ( X-CH(R)-Y where X, Y are N, S, or O) that may be acid/base labile, releasing an aldehyde.

>  <s_lp_Force_Field>  (45) 
OPLS3e

>  <r_lp_Energy>  (45) 
31.68

>  <b_lp_Chiralities_Consistent>  (45) 
1

>  <s_lp_Variant>  (45) 
16:0-3

>  <s_i_glide_gridfile>  (45) 
pfpi4k_grid

>  <i_i_glide_lignum>  (45) 
23

>  <i_i_glide_rotatable_bonds>  (45) 
3

>  <r_i_docking_score>  (45) 
-5.24749

>  <r_i_glide_ligand_efficiency>  (45) 
-0.291527

>  <r_i_glide_ligand_efficiency_sa>  (45) 
-0.764018

>  <r_i_glide_ligand_efficiency_ln>  (45) 
-1.34884

>  <r_i_glide_gscore>  (45) 
-5.24749

>  <r_i_glide_lipo>  (45) 
-2.20963

>  <r_i_glide_hbond>  (45) 
0

>  <r_i_glide_metal>  (45) 
-0

>  <r_i_glide_rewards>  (45) 
-2.60835

>  <r_i_glide_evdw>  (45) 
-23.6654

>  <r_i_glide_ecoul>  (45) 
1.1671

>  <r_i_glide_erotb>  (45) 
0.578697

>  <r_i_glide_esite>  (45) 
0

>  <r_i_glide_emodel>  (45) 
-33.0066

>  <r_i_glide_energy>  (45) 
-22.4983

>  <r_i_glide_einternal>  (45) 
0.982513

>  <r_i_glide_intrahb_reward>  (45) 
-0

>  <i_i_glide_confnum>  (45) 
6

>  <i_i_glide_posenum>  (45) 
25

>  <r_i_glide_eff_state_penalty>  (45) 
0

>  <ligand_id>  (45) 
16

>  <original_smiles>  (45) 
CC(=Cc1ccc2c(c1)OCO2)C=C(C)C(=O)O

>  <smiles>  (45) 
[H]C(=C(C(=O)[O-])C([H])([H])[H])C(=C([H])c1c([H])c([H])c2c(c1[H])OC([H])([H])O2)C([H])([H])[H]

$$$$
16:2:1
     RDKit          3D

 31 32  0  0  1  0  0  0  0  0999 V2000
   -0.8245    1.1603    2.9862 C   0  0  0  0  0  0  0  0  0  0  0  0
    0.5045    0.4397    3.1982 C   0  0  0  0  0  0  0  0  0  0  0  0
    1.4032    0.5516    2.1854 C   0  0  0  0  0  0  0  0  0  0  0  0
    2.8081    0.0942    2.1217 C   0  0  0  0  0  0  0  0  0  0  0  0
    3.7053    0.2057    3.2160 C   0  0  0  0  0  0  0  0  0  0  0  0
    5.0034   -0.3534    3.1738 C   0  0  0  0  0  0  0  0  0  0  0  0
    5.4120   -0.9508    1.9710 C   0  0  0  0  0  0  0  0  0  0  0  0
    4.5830   -1.0232    0.8734 C   0  0  0  0  0  0  0  0  0  0  0  0
    3.2646   -0.5123    0.9227 C   0  0  0  0  0  0  0  0  0  0  0  0
    5.2320   -1.6510   -0.1388 O   0  0  0  0  0  0  0  0  0  0  0  0
    6.4481   -2.0900    0.4093 C   0  0  0  0  0  0  0  0  0  0  0  0
    6.6007   -1.5315    1.6754 O   0  0  0  0  0  0  0  0  0  0  0  0
    0.8068   -0.3247    4.4128 C   0  0  0  0  0  0  0  0  0  0  0  0
    0.0123   -0.7007    5.4428 C   0  0  0  0  0  0  0  0  0  0  0  0
    0.6037   -1.3923    6.6603 C   0  0  0  0  0  0  0  0  0  0  0  0
   -1.5194   -0.4865    5.5590 C   0  0  0  0  0  0  0  0  0  0  0  0
   -2.2120   -1.0868    4.7188 O   0  0  0  0  0  0  0  0  0  0  0  0
   -1.9669    0.1792    6.5184 O   0  0  0  0  0  0  0  0  0  0  0  0
   -1.5732    0.4595    2.6267 H   0  0  0  0  0  0  0  0  0  0  0  0
   -0.7669    1.9665    2.2526 H   0  0  0  0  0  0  0  0  0  0  0  0
   -1.1885    1.6185    3.9095 H   0  0  0  0  0  0  0  0  0  0  0  0
    1.0871    1.0905    1.3054 H   0  0  0  0  0  0  0  0  0  0  0  0
    3.4141    0.7262    4.1172 H   0  0  0  0  0  0  0  0  0  0  0  0
    5.6513   -0.3191    4.0341 H   0  0  0  0  0  0  0  0  0  0  0  0
    2.6180   -0.6145    0.0718 H   0  0  0  0  0  0  0  0  0  0  0  0
    6.4156   -3.1740    0.5201 H   0  0  0  0  0  0  0  0  0  0  0  0
    7.2989   -1.8207   -0.2177 H   0  0  0  0  0  0  0  0  0  0  0  0
    1.7922   -0.6892    4.5625 H   0  0  0  0  0  0  0  0  0  0  0  0
    0.4488   -0.7719    7.5484 H   0  0  0  0  0  0  0  0  0  0  0  0
    1.6756   -1.5355    6.5648 H   0  0  0  0  0  0  0  0  0  0  0  0
    0.1470   -2.3639    6.8190 H   0  0  0  0  0  0  0  0  0  0  0  0
  1  2  1  0
  1 19  1  0
  1 20  1  0
  1 21  1  0
  2  3  2  3
  2 13  1  0
  3  4  1  0
  3 22  1  0
  4  9  2  0
  4  5  1  0
  5  6  2  0
  5 23  1  0
  6  7  1  0
  6 24  1  0
  7 12  1  0
  7  8  2  0
  8  9  1  0
  8 10  1  0
  9 25  1  0
 10 11  1  0
 11 12  1  0
 11 26  1  0
 11 27  1  0
 13 14  2  3
 13 28  1  0
 14 15  1  0
 14 16  1  0
 15 29  1  0
 15 30  1  0
 15 31  1  0
 16 17  2  0
 16 18  1  0
M  CHG  1  18  -1
M  END
>  <i_m_ct_stereo_status>  (46) 
1

>  <s_m_source_file>  (46) 
/var/tmp/pbs.5076255.sched01/tmprv8ptrg5/026yimkau.sdf

>  <i_m_source_file_index>  (46) 
23

>  <i_lp_mmshare_version>  (46) 
48012

>  <i_f3d_flags>  (46) 
0

>  <s_epik_input>  (46) 
Tz1DKFtPSF0pQyhcW0NIM10pPVtDSF1cQyhcW0NIM10pPVtDSF0vYyhbY0hdW2NIXTEpW2NIXWMoYzEyKU9bQ0gyXU8y

>  <s_epik_cmdline>  (46) 
J2VwaWtfcHl0aG9uJywgJy1waHQnLCAnMi4wJywgJy1waCcsICc3LjAnLCAnLXRuJywgJzgnLCAnLW1hJywgJzIwMCcsICctaW1hZScsICc8aW5maWxlLm1hZT4nLCAnLW9tYWUnLCAnPG91dGZpbGUubWFlPic=

>  <r_epik_Ionization_Penalty>  (46) 
0.00649197

>  <r_epik_Ionization_Penalty_Charging>  (46) 
0.00649197

>  <r_epik_Ionization_Penalty_Neutral>  (46) 
0

>  <r_epik_State_Penalty>  (46) 
0.00480461

>  <r_epik_Charging_Adjusted_Penalty>  (46) 
0.0112966

>  <i_epik_Tot_Q>  (46) 
-1

>  <i_epik_Tot_abs_Q>  (46) 
1

>  <s_epik_Chemistry_Notes>  (46) 
This compound contains an acetal/aminal-like group ( X-CH(R)-Y where X, Y are N, S, or O) that may be acid/base labile, releasing an aldehyde.

>  <s_lp_Force_Field>  (46) 
OPLS3e

>  <r_lp_Energy>  (46) 
31.68

>  <b_lp_Chiralities_Consistent>  (46) 
1

>  <s_lp_Variant>  (46) 
16:0-3

>  <s_i_glide_gridfile>  (46) 
pfpi4k_grid

>  <i_i_glide_lignum>  (46) 
23

>  <i_i_glide_rotatable_bonds>  (46) 
3

>  <r_i_docking_score>  (46) 
-3.02185

>  <r_i_glide_ligand_efficiency>  (46) 
-0.167881

>  <r_i_glide_ligand_efficiency_sa>  (46) 
-0.439972

>  <r_i_glide_ligand_efficiency_ln>  (46) 
-0.776751

>  <r_i_glide_gscore>  (46) 
-3.02185

>  <r_i_glide_lipo>  (46) 
-0.306843

>  <r_i_glide_hbond>  (46) 
-0.2

>  <r_i_glide_metal>  (46) 
-0

>  <r_i_glide_rewards>  (46) 
-1.82745

>  <r_i_glide_evdw>  (46) 
-15.924

>  <r_i_glide_ecoul>  (46) 
-2.7097

>  <r_i_glide_erotb>  (46) 
0.578697

>  <r_i_glide_esite>  (46) 
-0.0636055

>  <r_i_glide_emodel>  (46) 
-23.6645

>  <r_i_glide_energy>  (46) 
-18.6337

>  <r_i_glide_einternal>  (46) 
2.00109

>  <r_i_glide_intrahb_reward>  (46) 
-0

>  <i_i_glide_confnum>  (46) 
6

>  <i_i_glide_posenum>  (46) 
21

>  <r_i_glide_eff_state_penalty>  (46) 
0

>  <ligand_id>  (46) 
16

>  <original_smiles>  (46) 
CC(=Cc1ccc2c(c1)OCO2)C=C(C)C(=O)O

>  <smiles>  (46) 
[H]C(=C(C(=O)[O-])C([H])([H])[H])C(=C([H])c1c([H])c([H])c2c(c1[H])OC([H])([H])O2)C([H])([H])[H]

$$$$
16:2:2
     RDKit          3D

 31 32  0  0  1  0  0  0  0  0999 V2000
   -0.6045    0.8976    3.1598 C   0  0  0  0  0  0  0  0  0  0  0  0
    0.5192   -0.1591    3.2276 C   0  0  0  0  0  0  0  0  0  0  0  0
    1.4599   -0.0725    2.2611 C   0  0  0  0  0  0  0  0  0  0  0  0
    2.6405   -0.9209    1.9678 C   0  0  0  0  0  0  0  0  0  0  0  0
    3.8136   -0.3029    1.4545 C   0  0  0  0  0  0  0  0  0  0  0  0
    4.9912   -1.0339    1.1974 C   0  0  0  0  0  0  0  0  0  0  0  0
    4.9782   -2.4018    1.5060 C   0  0  0  0  0  0  0  0  0  0  0  0
    3.8485   -3.0186    1.9855 C   0  0  0  0  0  0  0  0  0  0  0  0
    2.6470   -2.3252    2.1896 C   0  0  0  0  0  0  0  0  0  0  0  0
    4.1025   -4.3309    2.2206 O   0  0  0  0  0  0  0  0  0  0  0  0
    5.4674   -4.5068    1.9575 C   0  0  0  0  0  0  0  0  0  0  0  0
    5.9782   -3.3254    1.3912 O   0  0  0  0  0  0  0  0  0  0  0  0
    0.5829   -1.1859    4.2785 C   0  0  0  0  0  0  0  0  0  0  0  0
   -0.2784   -1.4710    5.2788 C   0  0  0  0  0  0  0  0  0  0  0  0
    0.0204   -2.6179    6.2388 C   0  0  0  0  0  0  0  0  0  0  0  0
   -1.5886   -0.7075    5.6177 C   0  0  0  0  0  0  0  0  0  0  0  0
   -2.5896   -1.0457    4.9466 O   0  0  0  0  0  0  0  0  0  0  0  0
   -1.5508    0.0943    6.5807 O   0  0  0  0  0  0  0  0  0  0  0  0
   -1.4859    0.4765    2.6722 H   0  0  0  0  0  0  0  0  0  0  0  0
   -0.3077    1.7743    2.5786 H   0  0  0  0  0  0  0  0  0  0  0  0
   -0.8860    1.2695    4.1432 H   0  0  0  0  0  0  0  0  0  0  0  0
    1.3477    0.7368    1.5579 H   0  0  0  0  0  0  0  0  0  0  0  0
    3.8099    0.7673    1.2685 H   0  0  0  0  0  0  0  0  0  0  0  0
    5.8800   -0.5618    0.7967 H   0  0  0  0  0  0  0  0  0  0  0  0
    1.7749   -2.8655    2.5251 H   0  0  0  0  0  0  0  0  0  0  0  0
    5.9756   -4.6868    2.9103 H   0  0  0  0  0  0  0  0  0  0  0  0
    5.6035   -5.3764    1.3044 H   0  0  0  0  0  0  0  0  0  0  0  0
    1.4670   -1.8193    4.2871 H   0  0  0  0  0  0  0  0  0  0  0  0
    0.2080   -2.2140    7.2359 H   0  0  0  0  0  0  0  0  0  0  0  0
    0.9207   -3.1744    5.9449 H   0  0  0  0  0  0  0  0  0  0  0  0
   -0.8003   -3.3365    6.2888 H   0  0  0  0  0  0  0  0  0  0  0  0
  1  2  1  0
  1 19  1  0
  1 20  1  0
  1 21  1  0
  2  3  2  3
  2 13  1  0
  3  4  1  0
  3 22  1  0
  4  9  2  0
  4  5  1  0
  5  6  2  0
  5 23  1  0
  6  7  1  0
  6 24  1  0
  7 12  1  0
  7  8  2  0
  8  9  1  0
  8 10  1  0
  9 25  1  0
 10 11  1  0
 11 12  1  0
 11 26  1  0
 11 27  1  0
 13 14  2  3
 13 28  1  0
 14 15  1  0
 14 16  1  0
 15 29  1  0
 15 30  1  0
 15 31  1  0
 16 17  2  0
 16 18  1  0
M  CHG  1  18  -1
M  END
>  <i_m_ct_stereo_status>  (47) 
1

>  <s_m_source_file>  (47) 
/var/tmp/pbs.5076255.sched01/tmprv8ptrg5/026yimkau.sdf

>  <i_m_source_file_index>  (47) 
23

>  <i_lp_mmshare_version>  (47) 
48012

>  <i_f3d_flags>  (47) 
0

>  <s_epik_input>  (47) 
Tz1DKFtPSF0pQyhcW0NIM10pPVtDSF1cQyhcW0NIM10pPVtDSF0vYyhbY0hdW2NIXTEpW2NIXWMoYzEyKU9bQ0gyXU8y

>  <s_epik_cmdline>  (47) 
J2VwaWtfcHl0aG9uJywgJy1waHQnLCAnMi4wJywgJy1waCcsICc3LjAnLCAnLXRuJywgJzgnLCAnLW1hJywgJzIwMCcsICctaW1hZScsICc8aW5maWxlLm1hZT4nLCAnLW9tYWUnLCAnPG91dGZpbGUubWFlPic=

>  <r_epik_Ionization_Penalty>  (47) 
0.00649197

>  <r_epik_Ionization_Penalty_Charging>  (47) 
0.00649197

>  <r_epik_Ionization_Penalty_Neutral>  (47) 
0

>  <r_epik_State_Penalty>  (47) 
0.00480461

>  <r_epik_Charging_Adjusted_Penalty>  (47) 
0.0112966

>  <i_epik_Tot_Q>  (47) 
-1

>  <i_epik_Tot_abs_Q>  (47) 
1

>  <s_epik_Chemistry_Notes>  (47) 
This compound contains an acetal/aminal-like group ( X-CH(R)-Y where X, Y are N, S, or O) that may be acid/base labile, releasing an aldehyde.

>  <s_lp_Force_Field>  (47) 
OPLS3e

>  <r_lp_Energy>  (47) 
31.68

>  <b_lp_Chiralities_Consistent>  (47) 
1

>  <s_lp_Variant>  (47) 
16:0-3

>  <s_i_glide_gridfile>  (47) 
pfpi4k_grid

>  <i_i_glide_lignum>  (47) 
23

>  <i_i_glide_rotatable_bonds>  (47) 
3

>  <r_i_docking_score>  (47) 
-2.78552

>  <r_i_glide_ligand_efficiency>  (47) 
-0.154751

>  <r_i_glide_ligand_efficiency_sa>  (47) 
-0.405562

>  <r_i_glide_ligand_efficiency_ln>  (47) 
-0.716003

>  <r_i_glide_gscore>  (47) 
-2.78552

>  <r_i_glide_lipo>  (47) 
-0.179982

>  <r_i_glide_hbond>  (47) 
-0.2

>  <r_i_glide_metal>  (47) 
-0

>  <r_i_glide_rewards>  (47) 
-1.7847

>  <r_i_glide_evdw>  (47) 
-15.3408

>  <r_i_glide_ecoul>  (47) 
-2.43048

>  <r_i_glide_erotb>  (47) 
0.578697

>  <r_i_glide_esite>  (47) 
-0.0679159

>  <r_i_glide_emodel>  (47) 
-23.2739

>  <r_i_glide_energy>  (47) 
-17.7713

>  <r_i_glide_einternal>  (47) 
0.161399

>  <r_i_glide_intrahb_reward>  (47) 
-0

>  <i_i_glide_confnum>  (47) 
6

>  <i_i_glide_posenum>  (47) 
39

>  <r_i_glide_eff_state_penalty>  (47) 
0

>  <ligand_id>  (47) 
16

>  <original_smiles>  (47) 
CC(=Cc1ccc2c(c1)OCO2)C=C(C)C(=O)O

>  <smiles>  (47) 
[H]C(=C(C(=O)[O-])C([H])([H])[H])C(=C([H])c1c([H])c([H])c2c(c1[H])OC([H])([H])O2)C([H])([H])[H]

$$$$
16:3:0
     RDKit          3D

 31 32  0  0  1  0  0  0  0  0999 V2000
   -0.3816    4.2724    5.1746 C   0  0  0  0  0  0  0  0  0  0  0  0
   -0.6075    2.9141    4.5369 C   0  0  0  0  0  0  0  0  0  0  0  0
   -1.5668    2.6770    3.6097 C   0  0  0  0  0  0  0  0  0  0  0  0
   -2.4967    3.6170    2.9752 C   0  0  0  0  0  0  0  0  0  0  0  0
   -3.8105    3.1764    2.6869 C   0  0  0  0  0  0  0  0  0  0  0  0
   -4.7912    4.0060    2.0816 C   0  0  0  0  0  0  0  0  0  0  0  0
   -4.4337    5.3230    1.7984 C   0  0  0  0  0  0  0  0  0  0  0  0
   -3.1566    5.7668    2.0775 C   0  0  0  0  0  0  0  0  0  0  0  0
   -2.1629    4.9402    2.6480 C   0  0  0  0  0  0  0  0  0  0  0  0
   -3.0338    7.0516    1.6625 O   0  0  0  0  0  0  0  0  0  0  0  0
   -4.3145    7.4555    1.2628 C   0  0  0  0  0  0  0  0  0  0  0  0
   -5.1658    6.3352    1.2497 O   0  0  0  0  0  0  0  0  0  0  0  0
    0.2665    1.8469    4.9834 C   0  0  0  0  0  0  0  0  0  0  0  0
   -0.1095    0.6265    5.4257 C   0  0  0  0  0  0  0  0  0  0  0  0
    0.9161   -0.3817    5.8988 C   0  0  0  0  0  0  0  0  0  0  0  0
   -1.5638    0.0944    5.5673 C   0  0  0  0  0  0  0  0  0  0  0  0
   -1.9345   -0.7685    4.7389 O   0  0  0  0  0  0  0  0  0  0  0  0
   -2.1665    0.4417    6.6064 O   0  0  0  0  0  0  0  0  0  0  0  0
   -0.1537    4.1639    6.2431 H   0  0  0  0  0  0  0  0  0  0  0  0
   -1.2405    4.9274    5.0994 H   0  0  0  0  0  0  0  0  0  0  0  0
    0.4537    4.7610    4.6730 H   0  0  0  0  0  0  0  0  0  0  0  0
   -1.6647    1.6626    3.2324 H   0  0  0  0  0  0  0  0  0  0  0  0
   -4.0810    2.1874    2.9851 H   0  0  0  0  0  0  0  0  0  0  0  0
   -5.7736    3.6449    1.8840 H   0  0  0  0  0  0  0  0  0  0  0  0
   -1.1593    5.3178    2.7760 H   0  0  0  0  0  0  0  0  0  0  0  0
   -4.6846    8.1276    2.0237 H   0  0  0  0  0  0  0  0  0  0  0  0
   -4.2660    7.9834    0.3040 H   0  0  0  0  0  0  0  0  0  0  0  0
    1.3276    2.0762    4.9734 H   0  0  0  0  0  0  0  0  0  0  0  0
    0.7715   -0.5687    6.9621 H   0  0  0  0  0  0  0  0  0  0  0  0
    1.9236   -0.0077    5.7540 H   0  0  0  0  0  0  0  0  0  0  0  0
    0.8065   -1.3221    5.3596 H   0  0  0  0  0  0  0  0  0  0  0  0
  1  2  1  0
  1 19  1  0
  1 20  1  0
  1 21  1  0
  2  3  2  3
  2 13  1  0
  3  4  1  0
  3 22  1  0
  4  9  2  0
  4  5  1  0
  5  6  2  0
  5 23  1  0
  6  7  1  0
  6 24  1  0
  7 12  1  0
  7  8  2  0
  8  9  1  0
  8 10  1  0
  9 25  1  0
 10 11  1  0
 11 12  1  0
 11 26  1  0
 11 27  1  0
 13 14  2  3
 13 28  1  0
 14 15  1  0
 14 16  1  0
 15 29  1  0
 15 30  1  0
 15 31  1  0
 16 17  2  0
 16 18  1  0
M  CHG  1  18  -1
M  END
>  <i_m_ct_stereo_status>  (48) 
1

>  <s_m_source_file>  (48) 
/var/tmp/pbs.5076255.sched01/tmprv8ptrg5/026yimkau.sdf

>  <i_m_source_file_index>  (48) 
24

>  <i_lp_mmshare_version>  (48) 
48012

>  <i_f3d_flags>  (48) 
0

>  <s_epik_input>  (48) 
Tz1DKFtPSF0pQyhcW0NIM10pPVtDSF1cQyhcW0NIM10pPVtDSF0vYyhbY0hdW2NIXTEpW2NIXWMoYzEyKU9bQ0gyXU8y

>  <s_epik_cmdline>  (48) 
J2VwaWtfcHl0aG9uJywgJy1waHQnLCAnMi4wJywgJy1waCcsICc3LjAnLCAnLXRuJywgJzgnLCAnLW1hJywgJzIwMCcsICctaW1hZScsICc8aW5maWxlLm1hZT4nLCAnLW9tYWUnLCAnPG91dGZpbGUubWFlPic=

>  <r_epik_Ionization_Penalty>  (48) 
0.00649197

>  <r_epik_Ionization_Penalty_Charging>  (48) 
0.00649197

>  <r_epik_Ionization_Penalty_Neutral>  (48) 
0

>  <r_epik_State_Penalty>  (48) 
0.00480461

>  <r_epik_Charging_Adjusted_Penalty>  (48) 
0.0112966

>  <i_epik_Tot_Q>  (48) 
-1

>  <i_epik_Tot_abs_Q>  (48) 
1

>  <s_epik_Chemistry_Notes>  (48) 
This compound contains an acetal/aminal-like group ( X-CH(R)-Y where X, Y are N, S, or O) that may be acid/base labile, releasing an aldehyde.

>  <s_lp_Force_Field>  (48) 
OPLS3e

>  <r_lp_Energy>  (48) 
30.5419

>  <b_lp_Chiralities_Consistent>  (48) 
1

>  <s_lp_Variant>  (48) 
16:0-4

>  <s_i_glide_gridfile>  (48) 
pfpi4k_grid

>  <i_i_glide_lignum>  (48) 
24

>  <i_i_glide_rotatable_bonds>  (48) 
3

>  <r_i_docking_score>  (48) 
-2.76458

>  <r_i_glide_ligand_efficiency>  (48) 
-0.153588

>  <r_i_glide_ligand_efficiency_sa>  (48) 
-0.402514

>  <r_i_glide_ligand_efficiency_ln>  (48) 
-0.710621

>  <r_i_glide_gscore>  (48) 
-2.76458

>  <r_i_glide_lipo>  (48) 
-0.23933

>  <r_i_glide_hbond>  (48) 
-0.209393

>  <r_i_glide_metal>  (48) 
-0

>  <r_i_glide_rewards>  (48) 
-1.74224

>  <r_i_glide_evdw>  (48) 
-7.17485

>  <r_i_glide_ecoul>  (48) 
-4.91072

>  <r_i_glide_erotb>  (48) 
0.578697

>  <r_i_glide_esite>  (48) 
-0.0569641

>  <r_i_glide_emodel>  (48) 
-15.2311

>  <r_i_glide_energy>  (48) 
-12.0856

>  <r_i_glide_einternal>  (48) 
3.69579

>  <r_i_glide_intrahb_reward>  (48) 
-0

>  <i_i_glide_confnum>  (48) 
4

>  <i_i_glide_posenum>  (48) 
4

>  <r_i_glide_eff_state_penalty>  (48) 
0

>  <ligand_id>  (48) 
16

>  <original_smiles>  (48) 
CC(=Cc1ccc2c(c1)OCO2)C=C(C)C(=O)O

>  <smiles>  (48) 
[H]C(=C(C(=O)[O-])C([H])([H])[H])C(=C([H])c1c([H])c([H])c2c(c1[H])OC([H])([H])O2)C([H])([H])[H]

$$$$
16:3:1
     RDKit          3D

 31 32  0  0  1  0  0  0  0  0999 V2000
    0.8907   -2.5803    8.9003 C   0  0  0  0  0  0  0  0  0  0  0  0
    0.2505   -2.1634    7.5648 C   0  0  0  0  0  0  0  0  0  0  0  0
    0.0237   -3.0197    6.5406 C   0  0  0  0  0  0  0  0  0  0  0  0
    0.1556   -4.4868    6.5086 C   0  0  0  0  0  0  0  0  0  0  0  0
    0.3594   -5.0819    5.2379 C   0  0  0  0  0  0  0  0  0  0  0  0
    0.4971   -6.4791    5.0772 C   0  0  0  0  0  0  0  0  0  0  0  0
    0.4553   -7.2545    6.2453 C   0  0  0  0  0  0  0  0  0  0  0  0
    0.2231   -6.6956    7.4840 C   0  0  0  0  0  0  0  0  0  0  0  0
    0.0438   -5.3191    7.6570 C   0  0  0  0  0  0  0  0  0  0  0  0
    0.2375   -7.6784    8.4271 O   0  0  0  0  0  0  0  0  0  0  0  0
    0.6433   -8.8357    7.7519 C   0  0  0  0  0  0  0  0  0  0  0  0
    0.6295   -8.5943    6.3730 O   0  0  0  0  0  0  0  0  0  0  0  0
   -0.0757   -0.7446    7.4266 C   0  0  0  0  0  0  0  0  0  0  0  0
   -0.8517   -0.1135    6.5134 C   0  0  0  0  0  0  0  0  0  0  0  0
   -1.0195    1.3978    6.5510 C   0  0  0  0  0  0  0  0  0  0  0  0
   -1.6593   -0.7553    5.3397 C   0  0  0  0  0  0  0  0  0  0  0  0
   -1.3877   -0.3512    4.2002 O   0  0  0  0  0  0  0  0  0  0  0  0
   -2.4968   -1.6359    5.6788 O   0  0  0  0  0  0  0  0  0  0  0  0
    1.6313   -1.8384    9.2112 H   0  0  0  0  0  0  0  0  0  0  0  0
    1.4547   -3.5096    8.8218 H   0  0  0  0  0  0  0  0  0  0  0  0
    0.1584   -2.6833    9.7062 H   0  0  0  0  0  0  0  0  0  0  0  0
   -0.3195   -2.6229    5.6111 H   0  0  0  0  0  0  0  0  0  0  0  0
    0.3893   -4.4465    4.3754 H   0  0  0  0  0  0  0  0  0  0  0  0
    0.6643   -6.9089    4.1014 H   0  0  0  0  0  0  0  0  0  0  0  0
   -0.1841   -4.9447    8.6466 H   0  0  0  0  0  0  0  0  0  0  0  0
    1.6739   -9.0521    8.0514 H   0  0  0  0  0  0  0  0  0  0  0  0
   -0.0110   -9.6690    8.0172 H   0  0  0  0  0  0  0  0  0  0  0  0
    0.3641   -0.1020    8.1694 H   0  0  0  0  0  0  0  0  0  0  0  0
   -0.5569    1.8235    5.6574 H   0  0  0  0  0  0  0  0  0  0  0  0
   -0.5357    1.8518    7.4235 H   0  0  0  0  0  0  0  0  0  0  0  0
   -2.0744    1.6834    6.5501 H   0  0  0  0  0  0  0  0  0  0  0  0
  1  2  1  0
  1 19  1  0
  1 20  1  0
  1 21  1  0
  2  3  2  3
  2 13  1  0
  3  4  1  0
  3 22  1  0
  4  9  2  0
  4  5  1  0
  5  6  2  0
  5 23  1  0
  6  7  1  0
  6 24  1  0
  7 12  1  0
  7  8  2  0
  8  9  1  0
  8 10  1  0
  9 25  1  0
 10 11  1  0
 11 12  1  0
 11 26  1  0
 11 27  1  0
 13 14  2  3
 13 28  1  0
 14 15  1  0
 14 16  1  0
 15 29  1  0
 15 30  1  0
 15 31  1  0
 16 17  2  0
 16 18  1  0
M  CHG  1  18  -1
M  END
>  <i_m_ct_stereo_status>  (49) 
1

>  <s_m_source_file>  (49) 
/var/tmp/pbs.5076255.sched01/tmprv8ptrg5/026yimkau.sdf

>  <i_m_source_file_index>  (49) 
24

>  <i_lp_mmshare_version>  (49) 
48012

>  <i_f3d_flags>  (49) 
0

>  <s_epik_input>  (49) 
Tz1DKFtPSF0pQyhcW0NIM10pPVtDSF1cQyhcW0NIM10pPVtDSF0vYyhbY0hdW2NIXTEpW2NIXWMoYzEyKU9bQ0gyXU8y

>  <s_epik_cmdline>  (49) 
J2VwaWtfcHl0aG9uJywgJy1waHQnLCAnMi4wJywgJy1waCcsICc3LjAnLCAnLXRuJywgJzgnLCAnLW1hJywgJzIwMCcsICctaW1hZScsICc8aW5maWxlLm1hZT4nLCAnLW9tYWUnLCAnPG91dGZpbGUubWFlPic=

>  <r_epik_Ionization_Penalty>  (49) 
0.00649197

>  <r_epik_Ionization_Penalty_Charging>  (49) 
0.00649197

>  <r_epik_Ionization_Penalty_Neutral>  (49) 
0

>  <r_epik_State_Penalty>  (49) 
0.00480461

>  <r_epik_Charging_Adjusted_Penalty>  (49) 
0.0112966

>  <i_epik_Tot_Q>  (49) 
-1

>  <i_epik_Tot_abs_Q>  (49) 
1

>  <s_epik_Chemistry_Notes>  (49) 
This compound contains an acetal/aminal-like group ( X-CH(R)-Y where X, Y are N, S, or O) that may be acid/base labile, releasing an aldehyde.

>  <s_lp_Force_Field>  (49) 
OPLS3e

>  <r_lp_Energy>  (49) 
30.5419

>  <b_lp_Chiralities_Consistent>  (49) 
1

>  <s_lp_Variant>  (49) 
16:0-4

>  <s_i_glide_gridfile>  (49) 
pfpi4k_grid

>  <i_i_glide_lignum>  (49) 
24

>  <i_i_glide_rotatable_bonds>  (49) 
3

>  <r_i_docking_score>  (49) 
-2.33837

>  <r_i_glide_ligand_efficiency>  (49) 
-0.129909

>  <r_i_glide_ligand_efficiency_sa>  (49) 
-0.340459

>  <r_i_glide_ligand_efficiency_ln>  (49) 
-0.601066

>  <r_i_glide_gscore>  (49) 
-2.33837

>  <r_i_glide_lipo>  (49) 
-0.00264336

>  <r_i_glide_hbond>  (49) 
-0.00893182

>  <r_i_glide_metal>  (49) 
-0

>  <r_i_glide_rewards>  (49) 
-1.73693

>  <r_i_glide_evdw>  (49) 
-13.1062

>  <r_i_glide_ecoul>  (49) 
-2.67565

>  <r_i_glide_erotb>  (49) 
0.578697

>  <r_i_glide_esite>  (49) 
-0.111909

>  <r_i_glide_emodel>  (49) 
-17.0992

>  <r_i_glide_energy>  (49) 
-15.7818

>  <r_i_glide_einternal>  (49) 
3.206

>  <r_i_glide_intrahb_reward>  (49) 
-0

>  <i_i_glide_confnum>  (49) 
4

>  <i_i_glide_posenum>  (49) 
2

>  <r_i_glide_eff_state_penalty>  (49) 
0

>  <ligand_id>  (49) 
16

>  <original_smiles>  (49) 
CC(=Cc1ccc2c(c1)OCO2)C=C(C)C(=O)O

>  <smiles>  (49) 
[H]C(=C(C(=O)[O-])C([H])([H])[H])C(=C([H])c1c([H])c([H])c2c(c1[H])OC([H])([H])O2)C([H])([H])[H]

$$$$
16:3:2
     RDKit          3D

 31 32  0  0  1  0  0  0  0  0999 V2000
    1.0591   -4.1303    8.6811 C   0  0  0  0  0  0  0  0  0  0  0  0
    0.7004   -3.3532    7.3983 C   0  0  0  0  0  0  0  0  0  0  0  0
    0.5758   -3.9201    6.1686 C   0  0  0  0  0  0  0  0  0  0  0  0
    0.5973   -5.3471    5.7998 C   0  0  0  0  0  0  0  0  0  0  0  0
    0.9046   -5.6615    4.4485 C   0  0  0  0  0  0  0  0  0  0  0  0
    0.9581   -6.9901    3.9900 C   0  0  0  0  0  0  0  0  0  0  0  0
    0.7266   -8.0027    4.9336 C   0  0  0  0  0  0  0  0  0  0  0  0
    0.4073   -7.7124    6.2457 C   0  0  0  0  0  0  0  0  0  0  0  0
    0.3057   -6.3994    6.7111 C   0  0  0  0  0  0  0  0  0  0  0  0
    0.2430   -8.8610    6.9404 O   0  0  0  0  0  0  0  0  0  0  0  0
    0.6171   -9.8838    6.0613 C   0  0  0  0  0  0  0  0  0  0  0  0
    0.7695   -9.3485    4.7714 O   0  0  0  0  0  0  0  0  0  0  0  0
    0.5230   -1.9116    7.5510 C   0  0  0  0  0  0  0  0  0  0  0  0
   -0.1785   -1.0434    6.7843 C   0  0  0  0  0  0  0  0  0  0  0  0
   -0.1761    0.4416    7.1059 C   0  0  0  0  0  0  0  0  0  0  0  0
   -1.0263   -1.3784    5.5163 C   0  0  0  0  0  0  0  0  0  0  0  0
   -2.2586   -1.4473    5.6660 O   0  0  0  0  0  0  0  0  0  0  0  0
   -0.3741   -1.5293    4.4552 O   0  0  0  0  0  0  0  0  0  0  0  0
    1.7879   -3.5618    9.2750 H   0  0  0  0  0  0  0  0  0  0  0  0
    1.5532   -5.0804    8.4685 H   0  0  0  0  0  0  0  0  0  0  0  0
    0.1774   -4.3143    9.3054 H   0  0  0  0  0  0  0  0  0  0  0  0
    0.4287   -3.3034    5.3348 H   0  0  0  0  0  0  0  0  0  0  0  0
    1.0883   -4.8545    3.7589 H   0  0  0  0  0  0  0  0  0  0  0  0
    1.1973   -7.2200    2.9595 H   0  0  0  0  0  0  0  0  0  0  0  0
    0.0055   -6.2305    7.7343 H   0  0  0  0  0  0  0  0  0  0  0  0
    1.5819  -10.2652    6.3946 H   0  0  0  0  0  0  0  0  0  0  0  0
   -0.1257  -10.6778    6.0829 H   0  0  0  0  0  0  0  0  0  0  0  0
    1.0348   -1.4803    8.3997 H   0  0  0  0  0  0  0  0  0  0  0  0
    0.3073    0.9989    6.3010 H   0  0  0  0  0  0  0  0  0  0  0  0
    0.3599    0.6605    8.0323 H   0  0  0  0  0  0  0  0  0  0  0  0
   -1.1947    0.8101    7.2067 H   0  0  0  0  0  0  0  0  0  0  0  0
  1  2  1  0
  1 19  1  0
  1 20  1  0
  1 21  1  0
  2  3  2  3
  2 13  1  0
  3  4  1  0
  3 22  1  0
  4  9  2  0
  4  5  1  0
  5  6  2  0
  5 23  1  0
  6  7  1  0
  6 24  1  0
  7 12  1  0
  7  8  2  0
  8  9  1  0
  8 10  1  0
  9 25  1  0
 10 11  1  0
 11 12  1  0
 11 26  1  0
 11 27  1  0
 13 14  2  3
 13 28  1  0
 14 15  1  0
 14 16  1  0
 15 29  1  0
 15 30  1  0
 15 31  1  0
 16 17  2  0
 16 18  1  0
M  CHG  1  18  -1
M  END
>  <i_m_ct_stereo_status>  (50) 
1

>  <s_m_source_file>  (50) 
/var/tmp/pbs.5076255.sched01/tmprv8ptrg5/026yimkau.sdf

>  <i_m_source_file_index>  (50) 
24

>  <i_lp_mmshare_version>  (50) 
48012

>  <i_f3d_flags>  (50) 
0

>  <s_epik_input>  (50) 
Tz1DKFtPSF0pQyhcW0NIM10pPVtDSF1cQyhcW0NIM10pPVtDSF0vYyhbY0hdW2NIXTEpW2NIXWMoYzEyKU9bQ0gyXU8y

>  <s_epik_cmdline>  (50) 
J2VwaWtfcHl0aG9uJywgJy1waHQnLCAnMi4wJywgJy1waCcsICc3LjAnLCAnLXRuJywgJzgnLCAnLW1hJywgJzIwMCcsICctaW1hZScsICc8aW5maWxlLm1hZT4nLCAnLW9tYWUnLCAnPG91dGZpbGUubWFlPic=

>  <r_epik_Ionization_Penalty>  (50) 
0.00649197

>  <r_epik_Ionization_Penalty_Charging>  (50) 
0.00649197

>  <r_epik_Ionization_Penalty_Neutral>  (50) 
0

>  <r_epik_State_Penalty>  (50) 
0.00480461

>  <r_epik_Charging_Adjusted_Penalty>  (50) 
0.0112966

>  <i_epik_Tot_Q>  (50) 
-1

>  <i_epik_Tot_abs_Q>  (50) 
1

>  <s_epik_Chemistry_Notes>  (50) 
This compound contains an acetal/aminal-like group ( X-CH(R)-Y where X, Y are N, S, or O) that may be acid/base labile, releasing an aldehyde.

>  <s_lp_Force_Field>  (50) 
OPLS3e

>  <r_lp_Energy>  (50) 
30.5419

>  <b_lp_Chiralities_Consistent>  (50) 
1

>  <s_lp_Variant>  (50) 
16:0-4

>  <s_i_glide_gridfile>  (50) 
pfpi4k_grid

>  <i_i_glide_lignum>  (50) 
24

>  <i_i_glide_rotatable_bonds>  (50) 
3

>  <r_i_docking_score>  (50) 
-2.20199

>  <r_i_glide_ligand_efficiency>  (50) 
-0.122333

>  <r_i_glide_ligand_efficiency_sa>  (50) 
-0.320602

>  <r_i_glide_ligand_efficiency_ln>  (50) 
-0.566009

>  <r_i_glide_gscore>  (50) 
-2.20199

>  <r_i_glide_lipo>  (50) 
0

>  <r_i_glide_hbond>  (50) 
-0.0191495

>  <r_i_glide_metal>  (50) 
-0

>  <r_i_glide_rewards>  (50) 
-1.73693

>  <r_i_glide_evdw>  (50) 
-12.4276

>  <r_i_glide_ecoul>  (50) 
-1.82196

>  <r_i_glide_erotb>  (50) 
0.578697

>  <r_i_glide_esite>  (50) 
-0.129933

>  <r_i_glide_emodel>  (50) 
-14.9085

>  <r_i_glide_energy>  (50) 
-14.2496

>  <r_i_glide_einternal>  (50) 
3.08604

>  <r_i_glide_intrahb_reward>  (50) 
-0

>  <i_i_glide_confnum>  (50) 
4

>  <i_i_glide_posenum>  (50) 
34

>  <r_i_glide_eff_state_penalty>  (50) 
0

>  <ligand_id>  (50) 
16

>  <original_smiles>  (50) 
CC(=Cc1ccc2c(c1)OCO2)C=C(C)C(=O)O

>  <smiles>  (50) 
[H]C(=C(C(=O)[O-])C([H])([H])[H])C(=C([H])c1c([H])c([H])c2c(c1[H])OC([H])([H])O2)C([H])([H])[H]

$$$$
17:0:0
     RDKit          3D

 56 62  0  0  1  0  0  0  0  0999 V2000
    1.8815   -6.8975    7.6049 C   0  0  0  0  0  0  0  0  0  0  0  0
    2.9655   -6.6979    6.5212 C   0  0  0  0  0  0  0  0  0  0  0  0
    2.9990   -7.7305    5.3464 C   0  0  1  0  0  0  0  0  0  0  0  0
    3.1657   -9.1072    5.9563 C   0  0  0  0  0  0  0  0  0  0  0  0
    2.2878  -10.1567    5.6707 C   0  0  0  0  0  0  0  0  0  0  0  0
    1.7100  -10.5871    4.2419 C   0  0  1  0  0  0  0  0  0  0  0  0
    0.3079   -9.9757    3.8813 C   0  0  0  0  0  0  0  0  0  0  0  0
    0.3314   -8.6577    3.0543 C   0  0  1  0  0  0  0  0  0  0  0  0
   -0.3523   -7.5560    3.7265 N   0  0  0  0  0  0  0  0  0  0  0  0
   -1.7771   -7.6250    3.9887 C   0  0  0  0  0  0  0  0  0  0  0  0
    0.5734   -7.0430    4.6109 C   0  0  0  0  0  0  0  0  0  0  0  0
    1.7962   -7.5230    4.3657 C   0  0  0  0  0  0  0  0  0  0  0  0
    1.6957   -8.2133    3.1566 N   0  0  0  0  0  0  0  0  0  0  0  0
    2.6022   -8.3523    2.1744 C   0  0  0  0  0  0  0  0  0  0  0  0
    2.7880   -7.4756    1.3238 O   0  0  0  0  0  0  0  0  0  0  0  0
    3.5116   -9.5981    2.2148 C   0  0  1  0  0  0  0  0  0  0  0  0
    5.1733   -9.3134    2.2969 C   0  0  0  0  0  0  0  0  0  0  0  0
    6.2139   -9.2214    3.6307 C   0  0  2  0  0  0  0  0  0  0  0  0
    5.8888  -10.3547    4.2690 N   0  0  0  0  0  0  0  0  0  0  0  0
    4.6830   -9.6750    4.7566 C   0  0  1  0  0  0  0  0  0  0  0  0
    4.7689   -9.3606    6.0687 C   0  0  1  0  0  0  0  0  0  0  0  0
    5.9750   -8.5918    5.1763 C   0  0  2  0  0  0  0  0  0  0  0  0
    5.5034   -7.2299    5.0259 C   0  0  0  0  0  0  0  0  0  0  0  0
    4.2806   -7.9868    4.5769 C   0  0  2  0  0  0  0  0  0  0  0  0
    2.6497  -10.7846    2.9114 C   0  0  1  0  0  0  0  0  0  0  0  0
    3.3735  -12.0787    2.8794 N   0  0  0  0  0  0  0  0  0  0  0  0
    1.9753   -6.1190    8.3636 H   0  0  0  0  0  0  0  0  0  0  0  0
    2.0178   -7.8563    8.1104 H   0  0  0  0  0  0  0  0  0  0  0  0
    0.8586   -6.8721    7.2625 H   0  0  0  0  0  0  0  0  0  0  0  0
    2.9402   -5.6946    6.1020 H   0  0  0  0  0  0  0  0  0  0  0  0
    3.8781   -6.7569    7.1168 H   0  0  0  0  0  0  0  0  0  0  0  0
    2.6125  -11.0744    6.1408 H   0  0  0  0  0  0  0  0  0  0  0  0
    1.4090  -11.6069    4.4805 H   0  0  0  0  0  0  0  0  0  0  0  0
   -0.2721  -10.7006    3.3117 H   0  0  0  0  0  0  0  0  0  0  0  0
   -0.2304   -9.8386    4.8183 H   0  0  0  0  0  0  0  0  0  0  0  0
   -0.0092   -8.7815    2.0228 H   0  0  0  0  0  0  0  0  0  0  0  0
   -2.1407   -6.6621    4.3468 H   0  0  0  0  0  0  0  0  0  0  0  0
   -2.0020   -8.3661    4.7566 H   0  0  0  0  0  0  0  0  0  0  0  0
   -2.3293   -7.8811    3.0852 H   0  0  0  0  0  0  0  0  0  0  0  0
    0.1670   -6.5362    5.4631 H   0  0  0  0  0  0  0  0  0  0  0  0
    3.4408   -9.8726    1.1581 H   0  0  0  0  0  0  0  0  0  0  0  0
    5.6025  -10.0718    1.6344 H   0  0  0  0  0  0  0  0  0  0  0  0
    5.3369   -8.3799    1.7526 H   0  0  0  0  0  0  0  0  0  0  0  0
    7.2611   -9.2168    3.3247 H   0  0  0  0  0  0  0  0  0  0  0  0
    5.7635  -11.1371    3.6432 H   0  0  0  0  0  0  0  0  0  0  0  0
    4.1675  -10.5866    4.5849 H   0  0  0  0  0  0  0  0  0  0  0  0
    5.0679  -10.2302    6.6611 H   0  0  0  0  0  0  0  0  0  0  0  0
    6.9197   -8.5850    5.7293 H   0  0  0  0  0  0  0  0  0  0  0  0
    5.5402   -6.7083    5.9810 H   0  0  0  0  0  0  0  0  0  0  0  0
    6.0503   -6.6809    4.2520 H   0  0  0  0  0  0  0  0  0  0  0  0
    4.2475   -7.4977    3.6197 H   0  0  0  0  0  0  0  0  0  0  0  0
    1.8921  -10.9653    2.1586 H   0  0  0  0  0  0  0  0  0  0  0  0
    4.0928  -12.1113    3.5696 H   0  0  0  0  0  0  0  0  0  0  0  0
    3.7772  -12.2028    1.9291 H   0  0  0  0  0  0  0  0  0  0  0  0
    6.5382  -10.5310    5.0233 H   0  0  0  0  0  0  0  0  0  0  0  0
    2.7311  -12.8428    3.0469 H   0  0  0  0  0  0  0  0  0  0  0  0
  1  2  1  0
  1 27  1  0
  1 28  1  0
  1 29  1  0
  3  2  1  1
  2 30  1  0
  2 31  1  0
  3 12  1  0
  3 24  1  0
  3  4  1  0
  4 21  1  0
  4  5  2  3
  5  6  1  0
  5 32  1  0
  6 25  1  0
  6  7  1  0
  6 33  1  1
  7  8  1  0
  7 34  1  0
  7 35  1  0
  8 13  1  0
  8  9  1  0
  8 36  1  6
  9 10  1  0
  9 11  1  0
 10 37  1  0
 10 38  1  0
 10 39  1  0
 11 12  2  0
 11 40  1  0
 12 13  1  0
 13 14  1  0
 14 15  2  0
 14 16  1  0
 16 17  1  0
 16 25  1  0
 16 41  1  6
 17 18  1  0
 17 42  1  0
 17 43  1  0
 18 22  1  0
 18 19  1  0
 18 44  1  6
 19 20  1  0
 19 45  1  0
 19 55  1  0
 20 24  1  0
 20 21  1  0
 20 46  1  1
 21 22  1  0
 21 47  1  1
 22 23  1  0
 22 48  1  1
 23 24  1  0
 23 49  1  0
 23 50  1  0
 24 51  1  6
 25 26  1  0
 25 52  1  6
 26 53  1  0
 26 54  1  0
 26 56  1  0
M  CHG  2  19   1  26   1
M  END
>  <i_m_ct_stereo_status>  (51) 
1

>  <s_m_source_file>  (51) 
/var/tmp/pbs.5076255.sched01/tmprv8ptrg5/026yimkau.sdf

>  <i_m_source_file_index>  (51) 
25

>  <i_lp_mmshare_version>  (51) 
48012

>  <i_f3d_flags>  (51) 
0

>  <s_epik_input>  (51) 
W0NIM11bQ0gyXVtDQEBdMTIvQz0zW0NASF00W0NASF01W0NAQEhdMltDSDJdW0NAQEhdNFtDQEBIXShbTkhdNSlbQ0gyXVtDQEBIXTZDKD1PKU43W0NASF0oTihbQ0gzXSlbQ0hdPUMxNylbQ0gyXVtDQEhdKC9bQ0hdMylbQ0BASF02W05IMl0=

>  <s_epik_cmdline>  (51) 
J2VwaWtfcHl0aG9uJywgJy1waHQnLCAnMi4wJywgJy1waCcsICc3LjAnLCAnLXRuJywgJzgnLCAnLW1hJywgJzIwMCcsICctaW1hZScsICc8aW5maWxlLm1hZT4nLCAnLW9tYWUnLCAnPG91dGZpbGUubWFlPic=

>  <r_epik_Ionization_Penalty>  (51) 
0.0276654

>  <r_epik_Ionization_Penalty_Charging>  (51) 
0.0276653

>  <r_epik_Ionization_Penalty_Neutral>  (51) 
8.32412e-08

>  <r_epik_State_Penalty>  (51) 
0.0204581

>  <r_epik_Charging_Adjusted_Penalty>  (51) 
0.0481235

>  <i_epik_Tot_Q>  (51) 
2

>  <i_epik_Tot_abs_Q>  (51) 
2

>  <s_epik_Chemistry_Notes>  (51) 
This compound has an imine and may undergo hydrolysis. This compound contains an acetal/aminal-like group ( X-CH(R)-Y where X, Y are N, S, or O) that may be acid/base labile, releasing an aldehyde.

>  <s_lp_Force_Field>  (51) 
OPLS3e

>  <r_lp_Energy>  (51) 
430.43

>  <b_lp_Chiralities_Consistent>  (51) 
1

>  <s_lp_Variant>  (51) 
17:0-1

>  <s_i_glide_gridfile>  (51) 
pfpi4k_grid

>  <i_i_glide_lignum>  (51) 
25

>  <i_i_glide_rotatable_bonds>  (51) 
1

>  <r_i_docking_score>  (51) 
-3.94997

>  <r_i_glide_ligand_efficiency>  (51) 
-0.151922

>  <r_i_glide_ligand_efficiency_sa>  (51) 
-0.450068

>  <r_i_glide_ligand_efficiency_ln>  (51) 
-0.927637

>  <r_i_glide_gscore>  (51) 
-3.94997

>  <r_i_glide_lipo>  (51) 
-0.00343434

>  <r_i_glide_hbond>  (51) 
-0.2

>  <r_i_glide_metal>  (51) 
-0

>  <r_i_glide_rewards>  (51) 
-0.99212

>  <r_i_glide_evdw>  (51) 
-16.2548

>  <r_i_glide_ecoul>  (51) 
-11.6712

>  <r_i_glide_erotb>  (51) 
0

>  <r_i_glide_esite>  (51) 
-0.190993

>  <r_i_glide_emodel>  (51) 
-38.2431

>  <r_i_glide_energy>  (51) 
-27.926

>  <r_i_glide_einternal>  (51) 
2.87478

>  <r_i_glide_intrahb_reward>  (51) 
-0

>  <i_i_glide_confnum>  (51) 
2

>  <i_i_glide_posenum>  (51) 
9

>  <r_i_glide_eff_state_penalty>  (51) 
0

>  <ligand_id>  (51) 
17

>  <original_smiles>  (51) 
CCC12C3=CC4CC5N(C)C=C1N5C(=O)C(CC1NC5C3C1CC52)C4N

>  <smiles>  (51) 
[H]C1=C2N3C(=O)C4([H])C([H])([H])C5([H])C6([H])C([H])([H])C7([H])C2(C([H])([H])C([H])([H])[H])C(=C([H])C([H])(C([H])([H])C3([H])N1C([H])([H])[H])C4([H])[N+]([H])([H])[H])C6([H])C7([H])[N+]5([H])[H]

$$$$
17:0:1
     RDKit          3D

 56 62  0  0  1  0  0  0  0  0999 V2000
    2.0323   -3.6686    6.4121 C   0  0  0  0  0  0  0  0  0  0  0  0
    1.2229   -4.5814    5.4388 C   0  0  0  0  0  0  0  0  0  0  0  0
    1.9274   -5.1027    4.1353 C   0  0  1  0  0  0  0  0  0  0  0  0
    3.4228   -5.1401    4.3681 C   0  0  0  0  0  0  0  0  0  0  0  0
    4.1985   -6.2740    4.1470 C   0  0  0  0  0  0  0  0  0  0  0  0
    4.1482   -7.2652    2.8875 C   0  0  1  0  0  0  0  0  0  0  0  0
    3.2679   -8.5440    3.0849 C   0  0  0  0  0  0  0  0  0  0  0  0
    1.7913   -8.4137    2.6109 C   0  0  1  0  0  0  0  0  0  0  0  0
    0.8527   -8.6306    3.7020 N   0  0  0  0  0  0  0  0  0  0  0  0
    0.7102   -9.9484    4.2968 C   0  0  0  0  0  0  0  0  0  0  0  0
    0.7662   -7.4207    4.3641 C   0  0  0  0  0  0  0  0  0  0  0  0
    1.2844   -6.4339    3.6361 C   0  0  0  0  0  0  0  0  0  0  0  0
    1.5958   -6.9979    2.3893 N   0  0  0  0  0  0  0  0  0  0  0  0
    1.6284   -6.4335    1.1743 C   0  0  0  0  0  0  0  0  0  0  0  0
    0.6115   -6.2918    0.4906 O   0  0  0  0  0  0  0  0  0  0  0  0
    2.9643   -5.8272    0.6981 C   0  0  1  0  0  0  0  0  0  0  0  0
    2.9768   -4.1720    0.3410 C   0  0  0  0  0  0  0  0  0  0  0  0
    3.3895   -2.8370    1.3030 C   0  0  2  0  0  0  0  0  0  0  0  0
    4.5869   -3.2383    1.7584 N   0  0  0  0  0  0  0  0  0  0  0  0
    3.8806   -4.1228    2.6998 C   0  0  1  0  0  0  0  0  0  0  0  0
    3.9388   -3.6482    3.9646 C   0  0  1  0  0  0  0  0  0  0  0  0
    3.1497   -2.5554    2.9523 C   0  0  2  0  0  0  0  0  0  0  0  0
    1.7233   -2.7379    3.1898 C   0  0  0  0  0  0  0  0  0  0  0  0
    2.1638   -4.1629    2.9890 C   0  0  2  0  0  0  0  0  0  0  0  0
    4.1337   -6.7524    1.3309 C   0  0  1  0  0  0  0  0  0  0  0  0
    5.4664   -6.3417    0.8388 N   0  0  0  0  0  0  0  0  0  0  0  0
    1.4512   -3.4617    7.3155 H   0  0  0  0  0  0  0  0  0  0  0  0
    2.3331   -2.7152    5.9959 H   0  0  0  0  0  0  0  0  0  0  0  0
    2.9478   -4.1689    6.7540 H   0  0  0  0  0  0  0  0  0  0  0  0
    0.9751   -5.4387    6.0599 H   0  0  0  0  0  0  0  0  0  0  0  0
    0.2606   -4.1478    5.1722 H   0  0  0  0  0  0  0  0  0  0  0  0
    5.2464   -6.0527    4.2978 H   0  0  0  0  0  0  0  0  0  0  0  0
    5.1325   -7.7099    2.9852 H   0  0  0  0  0  0  0  0  0  0  0  0
    3.7168   -9.3877    2.5568 H   0  0  0  0  0  0  0  0  0  0  0  0
    3.3016   -8.8173    4.1378 H   0  0  0  0  0  0  0  0  0  0  0  0
    1.5560   -9.0196    1.7309 H   0  0  0  0  0  0  0  0  0  0  0  0
   -0.1832  -10.0022    4.9149 H   0  0  0  0  0  0  0  0  0  0  0  0
    1.5674  -10.1798    4.9311 H   0  0  0  0  0  0  0  0  0  0  0  0
    0.6352  -10.7221    3.5298 H   0  0  0  0  0  0  0  0  0  0  0  0
    0.5472   -7.4449    5.4228 H   0  0  0  0  0  0  0  0  0  0  0  0
    2.9405   -6.1990   -0.3146 H   0  0  0  0  0  0  0  0  0  0  0  0
    3.5954   -4.0871   -0.5558 H   0  0  0  0  0  0  0  0  0  0  0  0
    1.9760   -3.9396   -0.0217 H   0  0  0  0  0  0  0  0  0  0  0  0
    3.4626   -1.9151    0.7260 H   0  0  0  0  0  0  0  0  0  0  0  0
    5.1531   -3.6716    1.0420 H   0  0  0  0  0  0  0  0  0  0  0  0
    4.6263   -4.8518    2.4925 H   0  0  0  0  0  0  0  0  0  0  0  0
    4.9681   -3.4210    4.2561 H   0  0  0  0  0  0  0  0  0  0  0  0
    3.4302   -1.5308    3.2120 H   0  0  0  0  0  0  0  0  0  0  0  0
    1.3831   -2.3904    4.1598 H   0  0  0  0  0  0  0  0  0  0  0  0
    1.1154   -2.3094    2.3759 H   0  0  0  0  0  0  0  0  0  0  0  0
    1.4440   -4.3420    2.2153 H   0  0  0  0  0  0  0  0  0  0  0  0
    4.0170   -7.6885    0.7832 H   0  0  0  0  0  0  0  0  0  0  0  0
    5.7762   -5.4973    1.2975 H   0  0  0  0  0  0  0  0  0  0  0  0
    5.4162   -6.1947   -0.1648 H   0  0  0  0  0  0  0  0  0  0  0  0
    5.0384   -2.4785    2.2562 H   0  0  0  0  0  0  0  0  0  0  0  0
    6.1362   -7.0725    1.0398 H   0  0  0  0  0  0  0  0  0  0  0  0
  1  2  1  0
  1 27  1  0
  1 28  1  0
  1 29  1  0
  3  2  1  1
  2 30  1  0
  2 31  1  0
  3 12  1  0
  3 24  1  0
  3  4  1  0
  4 21  1  0
  4  5  2  3
  5  6  1  0
  5 32  1  0
  6 25  1  0
  6  7  1  0
  6 33  1  6
  7  8  1  0
  7 34  1  0
  7 35  1  0
  8 13  1  0
  8  9  1  0
  8 36  1  6
  9 10  1  0
  9 11  1  0
 10 37  1  0
 10 38  1  0
 10 39  1  0
 11 12  2  0
 11 40  1  0
 12 13  1  0
 13 14  1  0
 14 15  2  0
 14 16  1  0
 16 17  1  0
 16 25  1  0
 16 41  1  6
 17 18  1  0
 17 42  1  0
 17 43  1  0
 18 22  1  0
 18 19  1  0
 18 44  1  6
 19 20  1  0
 19 45  1  0
 19 55  1  0
 20 24  1  0
 20 21  1  0
 20 46  1  1
 21 22  1  0
 21 47  1  1
 22 23  1  0
 22 48  1  1
 23 24  1  0
 23 49  1  0
 23 50  1  0
 24 51  1  6
 25 26  1  0
 25 52  1  6
 26 53  1  0
 26 54  1  0
 26 56  1  0
M  CHG  2  19   1  26   1
M  END
>  <i_m_ct_stereo_status>  (52) 
1

>  <s_m_source_file>  (52) 
/var/tmp/pbs.5076255.sched01/tmprv8ptrg5/026yimkau.sdf

>  <i_m_source_file_index>  (52) 
25

>  <i_lp_mmshare_version>  (52) 
48012

>  <i_f3d_flags>  (52) 
0

>  <s_epik_input>  (52) 
W0NIM11bQ0gyXVtDQEBdMTIvQz0zW0NASF00W0NASF01W0NAQEhdMltDSDJdW0NAQEhdNFtDQEBIXShbTkhdNSlbQ0gyXVtDQEBIXTZDKD1PKU43W0NASF0oTihbQ0gzXSlbQ0hdPUMxNylbQ0gyXVtDQEhdKC9bQ0hdMylbQ0BASF02W05IMl0=

>  <s_epik_cmdline>  (52) 
J2VwaWtfcHl0aG9uJywgJy1waHQnLCAnMi4wJywgJy1waCcsICc3LjAnLCAnLXRuJywgJzgnLCAnLW1hJywgJzIwMCcsICctaW1hZScsICc8aW5maWxlLm1hZT4nLCAnLW9tYWUnLCAnPG91dGZpbGUubWFlPic=

>  <r_epik_Ionization_Penalty>  (52) 
0.0276654

>  <r_epik_Ionization_Penalty_Charging>  (52) 
0.0276653

>  <r_epik_Ionization_Penalty_Neutral>  (52) 
8.32412e-08

>  <r_epik_State_Penalty>  (52) 
0.0204581

>  <r_epik_Charging_Adjusted_Penalty>  (52) 
0.0481235

>  <i_epik_Tot_Q>  (52) 
2

>  <i_epik_Tot_abs_Q>  (52) 
2

>  <s_epik_Chemistry_Notes>  (52) 
This compound has an imine and may undergo hydrolysis. This compound contains an acetal/aminal-like group ( X-CH(R)-Y where X, Y are N, S, or O) that may be acid/base labile, releasing an aldehyde.

>  <s_lp_Force_Field>  (52) 
OPLS3e

>  <r_lp_Energy>  (52) 
430.43

>  <b_lp_Chiralities_Consistent>  (52) 
1

>  <s_lp_Variant>  (52) 
17:0-1

>  <s_i_glide_gridfile>  (52) 
pfpi4k_grid

>  <i_i_glide_lignum>  (52) 
25

>  <i_i_glide_rotatable_bonds>  (52) 
1

>  <r_i_docking_score>  (52) 
-3.51429

>  <r_i_glide_ligand_efficiency>  (52) 
-0.135165

>  <r_i_glide_ligand_efficiency_sa>  (52) 
-0.400426

>  <r_i_glide_ligand_efficiency_ln>  (52) 
-0.82532

>  <r_i_glide_gscore>  (52) 
-3.51429

>  <r_i_glide_lipo>  (52) 
-0.0967627

>  <r_i_glide_hbond>  (52) 
-0.233861

>  <r_i_glide_metal>  (52) 
-0

>  <r_i_glide_rewards>  (52) 
-0.99212

>  <r_i_glide_evdw>  (52) 
-16.5694

>  <r_i_glide_ecoul>  (52) 
-8.34805

>  <r_i_glide_erotb>  (52) 
0

>  <r_i_glide_esite>  (52) 
-0.110872

>  <r_i_glide_emodel>  (52) 
-33.3701

>  <r_i_glide_energy>  (52) 
-24.9175

>  <r_i_glide_einternal>  (52) 
3.72743

>  <r_i_glide_intrahb_reward>  (52) 
-0

>  <i_i_glide_confnum>  (52) 
2

>  <i_i_glide_posenum>  (52) 
6

>  <r_i_glide_eff_state_penalty>  (52) 
0

>  <ligand_id>  (52) 
17

>  <original_smiles>  (52) 
CCC12C3=CC4CC5N(C)C=C1N5C(=O)C(CC1NC5C3C1CC52)C4N

>  <smiles>  (52) 
[H]C1=C2N3C(=O)C4([H])C([H])([H])C5([H])C6([H])C([H])([H])C7([H])C2(C([H])([H])C([H])([H])[H])C(=C([H])C([H])(C([H])([H])C3([H])N1C([H])([H])[H])C4([H])[N+]([H])([H])[H])C6([H])C7([H])[N+]5([H])[H]

$$$$
17:0:2
     RDKit          3D

 56 62  0  0  1  0  0  0  0  0999 V2000
   -0.1433   -4.6246    5.6293 C   0  0  0  0  0  0  0  0  0  0  0  0
    1.3548   -4.9645    5.6558 C   0  0  0  0  0  0  0  0  0  0  0  0
    1.9749   -5.3753    4.2878 C   0  0  1  0  0  0  0  0  0  0  0  0
    3.4781   -5.4344    4.4703 C   0  0  0  0  0  0  0  0  0  0  0  0
    4.2255   -6.5589    4.1421 C   0  0  0  0  0  0  0  0  0  0  0  0
    4.1016   -7.4731    2.8285 C   0  0  1  0  0  0  0  0  0  0  0  0
    3.2055   -8.7484    2.9839 C   0  0  0  0  0  0  0  0  0  0  0  0
    1.7131   -8.5614    2.5846 C   0  0  1  0  0  0  0  0  0  0  0  0
    0.8229   -8.8292    3.7065 N   0  0  0  0  0  0  0  0  0  0  0  0
    0.6831  -10.1766    4.2304 C   0  0  0  0  0  0  0  0  0  0  0  0
    0.7971   -7.6702    4.4466 C   0  0  0  0  0  0  0  0  0  0  0  0
    1.2993   -6.6527    3.7368 C   0  0  0  0  0  0  0  0  0  0  0  0
    1.5271   -7.1398    2.4562 N   0  0  0  0  0  0  0  0  0  0  0  0
    1.5196   -6.4866    1.2790 C   0  0  0  0  0  0  0  0  0  0  0  0
    0.4742   -6.2700    0.6654 O   0  0  0  0  0  0  0  0  0  0  0  0
    2.8509   -5.8894    0.7745 C   0  0  1  0  0  0  0  0  0  0  0  0
    2.8839   -4.2183    0.5245 C   0  0  0  0  0  0  0  0  0  0  0  0
    3.3722   -2.9541    1.5476 C   0  0  2  0  0  0  0  0  0  0  0  0
    4.5804   -3.4004    1.9238 N   0  0  0  0  0  0  0  0  0  0  0  0
    3.8960   -4.3198    2.8449 C   0  0  1  0  0  0  0  0  0  0  0  0
    4.0183   -3.9325    4.1341 C   0  0  1  0  0  0  0  0  0  0  0  0
    3.2215   -2.7638    3.2191 C   0  0  2  0  0  0  0  0  0  0  0  0
    1.8291   -2.9404    3.5633 C   0  0  0  0  0  0  0  0  0  0  0  0
    2.1923   -4.3512    3.2055 C   0  0  2  0  0  0  0  0  0  0  0  0
    4.0307   -6.8667    1.3050 C   0  0  1  0  0  0  0  0  0  0  0  0
    5.3457   -6.4535    0.7690 N   0  0  0  0  0  0  0  0  0  0  0  0
   -0.4818   -4.3267    6.6224 H   0  0  0  0  0  0  0  0  0  0  0  0
   -0.7421   -5.4839    5.3250 H   0  0  0  0  0  0  0  0  0  0  0  0
   -0.3579   -3.8035    4.9463 H   0  0  0  0  0  0  0  0  0  0  0  0
    1.9079   -4.1399    6.1087 H   0  0  0  0  0  0  0  0  0  0  0  0
    1.5002   -5.7821    6.3640 H   0  0  0  0  0  0  0  0  0  0  0  0
    5.2832   -6.3623    4.2599 H   0  0  0  0  0  0  0  0  0  0  0  0
    5.0840   -7.9373    2.8499 H   0  0  0  0  0  0  0  0  0  0  0  0
    3.6164   -9.5642    2.3835 H   0  0  0  0  0  0  0  0  0  0  0  0
    3.2872   -9.0876    4.0166 H   0  0  0  0  0  0  0  0  0  0  0  0
    1.4279   -9.1127    1.6891 H   0  0  0  0  0  0  0  0  0  0  0  0
   -0.1789  -10.2488    4.8928 H   0  0  0  0  0  0  0  0  0  0  0  0
    1.5642  -10.4595    4.8075 H   0  0  0  0  0  0  0  0  0  0  0  0
    0.5509  -10.9015    3.4250 H   0  0  0  0  0  0  0  0  0  0  0  0
    0.6271   -7.7313    5.5081 H   0  0  0  0  0  0  0  0  0  0  0  0
    2.7718   -6.1958   -0.2720 H   0  0  0  0  0  0  0  0  0  0  0  0
    3.4618   -4.0910   -0.3956 H   0  0  0  0  0  0  0  0  0  0  0  0
    1.8729   -3.9447    0.2158 H   0  0  0  0  0  0  0  0  0  0  0  0
    3.4394   -2.0028    1.0166 H   0  0  0  0  0  0  0  0  0  0  0  0
    5.0973   -3.8005    1.1591 H   0  0  0  0  0  0  0  0  0  0  0  0
    4.6035   -5.0539    2.5575 H   0  0  0  0  0  0  0  0  0  0  0  0
    5.0635   -3.7375    4.3905 H   0  0  0  0  0  0  0  0  0  0  0  0
    3.5356   -1.7577    3.5178 H   0  0  0  0  0  0  0  0  0  0  0  0
    1.6473   -2.6643    4.6004 H   0  0  0  0  0  0  0  0  0  0  0  0
    1.1519   -2.4255    2.8797 H   0  0  0  0  0  0  0  0  0  0  0  0
    1.4304   -4.4466    2.4512 H   0  0  0  0  0  0  0  0  0  0  0  0
    3.8715   -7.7668    0.7088 H   0  0  0  0  0  0  0  0  0  0  0  0
    5.6949   -5.6445    1.2564 H   0  0  0  0  0  0  0  0  0  0  0  0
    5.2534   -6.2496   -0.2200 H   0  0  0  0  0  0  0  0  0  0  0  0
    5.0725   -2.6792    2.4293 H   0  0  0  0  0  0  0  0  0  0  0  0
    6.0066   -7.2063    0.8924 H   0  0  0  0  0  0  0  0  0  0  0  0
  1  2  1  0
  1 27  1  0
  1 28  1  0
  1 29  1  0
  3  2  1  1
  2 30  1  0
  2 31  1  0
  3 12  1  0
  3 24  1  0
  3  4  1  0
  4 21  1  0
  4  5  2  3
  5  6  1  0
  5 32  1  0
  6 25  1  0
  6  7  1  0
  6 33  1  6
  7  8  1  0
  7 34  1  0
  7 35  1  0
  8 13  1  0
  8  9  1  0
  8 36  1  6
  9 10  1  0
  9 11  1  0
 10 37  1  0
 10 38  1  0
 10 39  1  0
 11 12  2  0
 11 40  1  0
 12 13  1  0
 13 14  1  0
 14 15  2  0
 14 16  1  0
 16 17  1  0
 16 25  1  0
 16 41  1  6
 17 18  1  0
 17 42  1  0
 17 43  1  0
 18 22  1  0
 18 19  1  0
 18 44  1  6
 19 20  1  0
 19 45  1  0
 19 55  1  0
 20 24  1  0
 20 21  1  0
 20 46  1  1
 21 22  1  0
 21 47  1  1
 22 23  1  0
 22 48  1  1
 23 24  1  0
 23 49  1  0
 23 50  1  0
 24 51  1  6
 25 26  1  0
 25 52  1  6
 26 53  1  0
 26 54  1  0
 26 56  1  0
M  CHG  2  19   1  26   1
M  END
>  <i_m_ct_stereo_status>  (53) 
1

>  <s_m_source_file>  (53) 
/var/tmp/pbs.5076255.sched01/tmprv8ptrg5/026yimkau.sdf

>  <i_m_source_file_index>  (53) 
25

>  <i_lp_mmshare_version>  (53) 
48012

>  <i_f3d_flags>  (53) 
0

>  <s_epik_input>  (53) 
W0NIM11bQ0gyXVtDQEBdMTIvQz0zW0NASF00W0NASF01W0NAQEhdMltDSDJdW0NAQEhdNFtDQEBIXShbTkhdNSlbQ0gyXVtDQEBIXTZDKD1PKU43W0NASF0oTihbQ0gzXSlbQ0hdPUMxNylbQ0gyXVtDQEhdKC9bQ0hdMylbQ0BASF02W05IMl0=

>  <s_epik_cmdline>  (53) 
J2VwaWtfcHl0aG9uJywgJy1waHQnLCAnMi4wJywgJy1waCcsICc3LjAnLCAnLXRuJywgJzgnLCAnLW1hJywgJzIwMCcsICctaW1hZScsICc8aW5maWxlLm1hZT4nLCAnLW9tYWUnLCAnPG91dGZpbGUubWFlPic=

>  <r_epik_Ionization_Penalty>  (53) 
0.0276654

>  <r_epik_Ionization_Penalty_Charging>  (53) 
0.0276653

>  <r_epik_Ionization_Penalty_Neutral>  (53) 
8.32412e-08

>  <r_epik_State_Penalty>  (53) 
0.0204581

>  <r_epik_Charging_Adjusted_Penalty>  (53) 
0.0481235

>  <i_epik_Tot_Q>  (53) 
2

>  <i_epik_Tot_abs_Q>  (53) 
2

>  <s_epik_Chemistry_Notes>  (53) 
This compound has an imine and may undergo hydrolysis. This compound contains an acetal/aminal-like group ( X-CH(R)-Y where X, Y are N, S, or O) that may be acid/base labile, releasing an aldehyde.

>  <s_lp_Force_Field>  (53) 
OPLS3e

>  <r_lp_Energy>  (53) 
430.43

>  <b_lp_Chiralities_Consistent>  (53) 
1

>  <s_lp_Variant>  (53) 
17:0-1

>  <s_i_glide_gridfile>  (53) 
pfpi4k_grid

>  <i_i_glide_lignum>  (53) 
25

>  <i_i_glide_rotatable_bonds>  (53) 
1

>  <r_i_docking_score>  (53) 
-3.49132

>  <r_i_glide_ligand_efficiency>  (53) 
-0.134281

>  <r_i_glide_ligand_efficiency_sa>  (53) 
-0.397808

>  <r_i_glide_ligand_efficiency_ln>  (53) 
-0.819924

>  <r_i_glide_gscore>  (53) 
-3.49132

>  <r_i_glide_lipo>  (53) 
-0.098904

>  <r_i_glide_hbond>  (53) 
-0.16

>  <r_i_glide_metal>  (53) 
-0

>  <r_i_glide_rewards>  (53) 
-0.99212

>  <r_i_glide_evdw>  (53) 
-16.8044

>  <r_i_glide_ecoul>  (53) 
-8.5863

>  <r_i_glide_erotb>  (53) 
0

>  <r_i_glide_esite>  (53) 
-0.112128

>  <r_i_glide_emodel>  (53) 
-35.8377

>  <r_i_glide_energy>  (53) 
-25.3907

>  <r_i_glide_einternal>  (53) 
0.000703024

>  <r_i_glide_intrahb_reward>  (53) 
-0

>  <i_i_glide_confnum>  (53) 
2

>  <i_i_glide_posenum>  (53) 
18

>  <r_i_glide_eff_state_penalty>  (53) 
0

>  <ligand_id>  (53) 
17

>  <original_smiles>  (53) 
CCC12C3=CC4CC5N(C)C=C1N5C(=O)C(CC1NC5C3C1CC52)C4N

>  <smiles>  (53) 
[H]C1=C2N3C(=O)C4([H])C([H])([H])C5([H])C6([H])C([H])([H])C7([H])C2(C([H])([H])C([H])([H])[H])C(=C([H])C([H])(C([H])([H])C3([H])N1C([H])([H])[H])C4([H])[N+]([H])([H])[H])C6([H])C7([H])[N+]5([H])[H]

$$$$
17:1:0
     RDKit          3D

 56 62  0  0  1  0  0  0  0  0999 V2000
    8.4110   -2.3768   -0.1978 C   0  0  0  0  0  0  0  0  0  0  0  0
    7.9915   -3.8571   -0.1084 C   0  0  0  0  0  0  0  0  0  0  0  0
    6.5680   -4.1954    0.4474 C   0  0  1  0  0  0  0  0  0  0  0  0
    6.1799   -3.3219    1.6301 C   0  0  0  0  0  0  0  0  0  0  0  0
    5.7930   -2.0317    1.5379 C   0  0  0  0  0  0  0  0  0  0  0  0
    4.3348   -1.4767    1.5920 C   0  0  1  0  0  0  0  0  0  0  0  0
    3.9072   -1.0736    0.1413 C   0  0  0  0  0  0  0  0  0  0  0  0
    3.6140   -2.2700   -0.8156 C   0  0  1  0  0  0  0  0  0  0  0  0
    4.4794   -2.3537   -1.9902 N   0  0  0  0  0  0  0  0  0  0  0  0
    4.4425   -1.3193   -3.0033 C   0  0  0  0  0  0  0  0  0  0  0  0
    5.5213   -3.2239   -1.7282 C   0  0  0  0  0  0  0  0  0  0  0  0
    5.3374   -3.8543   -0.5575 C   0  0  0  0  0  0  0  0  0  0  0  0
    4.0008   -3.4789   -0.1410 N   0  0  0  0  0  0  0  0  0  0  0  0
    3.0041   -4.1028    0.5993 C   0  0  0  0  0  0  0  0  0  0  0  0
    2.3761   -5.0501    0.1583 O   0  0  0  0  0  0  0  0  0  0  0  0
    2.7451   -3.7206    2.0952 C   0  0  1  0  0  0  0  0  0  0  0  0
    2.9984   -4.9316    3.2253 C   0  0  0  0  0  0  0  0  0  0  0  0
    4.4044   -5.8038    3.5182 C   0  0  1  0  0  0  0  0  0  0  0  0
    4.6042   -6.6703    2.3950 N   0  0  0  0  0  0  0  0  0  0  0  0
    5.1645   -5.6969    1.5035 C   0  0  1  0  0  0  0  0  0  0  0  0
    5.4098   -4.3458    2.3559 C   0  0  1  0  0  0  0  0  0  0  0  0
    5.8569   -5.0963    3.4960 C   0  0  2  0  0  0  0  0  0  0  0  0
    7.0689   -5.7335    2.6902 C   0  0  0  0  0  0  0  0  0  0  0  0
    6.5962   -5.6529    1.1681 C   0  0  2  0  0  0  0  0  0  0  0  0
    3.1622   -2.2022    2.4049 C   0  0  1  0  0  0  0  0  0  0  0  0
    3.3492   -1.9730    3.8406 N   0  0  0  0  0  0  0  0  0  0  0  0
    9.3969   -2.2732   -0.6493 H   0  0  0  0  0  0  0  0  0  0  0  0
    8.3861   -1.8842    0.7821 H   0  0  0  0  0  0  0  0  0  0  0  0
    7.7054   -1.8465   -0.8302 H   0  0  0  0  0  0  0  0  0  0  0  0
    8.1233   -4.2736   -1.1026 H   0  0  0  0  0  0  0  0  0  0  0  0
    8.7387   -4.3509    0.5121 H   0  0  0  0  0  0  0  0  0  0  0  0
    6.3552   -1.4150    0.8558 H   0  0  0  0  0  0  0  0  0  0  0  0
    4.4778   -0.5293    2.0920 H   0  0  0  0  0  0  0  0  0  0  0  0
    3.0485   -0.3963    0.1636 H   0  0  0  0  0  0  0  0  0  0  0  0
    4.7092   -0.4860   -0.2962 H   0  0  0  0  0  0  0  0  0  0  0  0
    2.5780   -2.2806   -1.1276 H   0  0  0  0  0  0  0  0  0  0  0  0
    4.8629   -1.6901   -3.9375 H   0  0  0  0  0  0  0  0  0  0  0  0
    5.0170   -0.4580   -2.6668 H   0  0  0  0  0  0  0  0  0  0  0  0
    3.4196   -0.9945   -3.1926 H   0  0  0  0  0  0  0  0  0  0  0  0
    6.4463   -3.1092   -2.2636 H   0  0  0  0  0  0  0  0  0  0  0  0
    1.6575   -3.6553    2.1260 H   0  0  0  0  0  0  0  0  0  0  0  0
    2.7215   -4.5174    4.1926 H   0  0  0  0  0  0  0  0  0  0  0  0
    2.2300   -5.6880    3.0244 H   0  0  0  0  0  0  0  0  0  0  0  0
    4.2836   -6.3946    4.4290 H   0  0  0  0  0  0  0  0  0  0  0  0
    5.3154   -7.3776    2.6326 H   0  0  0  0  0  0  0  0  0  0  0  0
    4.6669   -5.8551    0.5482 H   0  0  0  0  0  0  0  0  0  0  0  0
    4.8555   -3.6946    2.9803 H   0  0  0  0  0  0  0  0  0  0  0  0
    6.1169   -4.5085    4.3786 H   0  0  0  0  0  0  0  0  0  0  0  0
    7.9959   -5.1699    2.8300 H   0  0  0  0  0  0  0  0  0  0  0  0
    7.2614   -6.7547    3.0213 H   0  0  0  0  0  0  0  0  0  0  0  0
    6.9538   -6.4711    0.5414 H   0  0  0  0  0  0  0  0  0  0  0  0
    2.2749   -1.6147    2.1504 H   0  0  0  0  0  0  0  0  0  0  0  0
    4.1679   -2.4677    4.1803 H   0  0  0  0  0  0  0  0  0  0  0  0
    2.5255   -2.2869    4.3439 H   0  0  0  0  0  0  0  0  0  0  0  0
    3.7327   -7.0818    2.0587 H   0  0  0  0  0  0  0  0  0  0  0  0
    3.4851   -0.9804    4.0024 H   0  0  0  0  0  0  0  0  0  0  0  0
  1  2  1  0
  1 27  1  0
  1 28  1  0
  1 29  1  0
  3  2  1  6
  2 30  1  0
  2 31  1  0
  3 12  1  0
  3 24  1  0
  3  4  1  0
  4 21  1  0
  4  5  2  3
  5  6  1  0
  5 32  1  0
  6 25  1  0
  6  7  1  0
  6 33  1  1
  7  8  1  0
  7 34  1  0
  7 35  1  0
  8 13  1  0
  8  9  1  0
  8 36  1  6
  9 10  1  0
  9 11  1  0
 10 37  1  0
 10 38  1  0
 10 39  1  0
 11 12  2  0
 11 40  1  0
 12 13  1  0
 13 14  1  0
 14 15  2  0
 14 16  1  0
 16 17  1  0
 16 25  1  0
 16 41  1  6
 17 18  1  0
 17 42  1  0
 17 43  1  0
 18 22  1  0
 18 19  1  0
 18 44  1  1
 19 20  1  0
 19 45  1  0
 19 55  1  0
 20 24  1  0
 20 21  1  0
 20 46  1  6
 21 22  1  0
 21 47  1  1
 22 23  1  0
 22 48  1  1
 23 24  1  0
 23 49  1  0
 23 50  1  0
 24 51  1  6
 25 26  1  0
 25 52  1  6
 26 53  1  0
 26 54  1  0
 26 56  1  0
M  CHG  2  19   1  26   1
M  END
>  <i_m_ct_stereo_status>  (54) 
1

>  <s_m_source_file>  (54) 
/var/tmp/pbs.5076255.sched01/tmprv8ptrg5/026yimkau.sdf

>  <i_m_source_file_index>  (54) 
26

>  <i_lp_mmshare_version>  (54) 
48012

>  <i_f3d_flags>  (54) 
2

>  <s_epik_input>  (54) 
W0NIM11bQ0gyXVtDQEBdMTIvQz0zW0NASF00W0NASF01W0NAQEhdMltDSDJdW0NAQEhdNFtDQEBIXShbTkhdNSlbQ0gyXVtDQEBIXTZDKD1PKU43W0NASF0oTihbQ0gzXSlbQ0hdPUMxNylbQ0gyXVtDQEhdKC9bQ0hdMylbQ0BASF02W05IMl0=

>  <s_epik_cmdline>  (54) 
J2VwaWtfcHl0aG9uJywgJy1waHQnLCAnMi4wJywgJy1waCcsICc3LjAnLCAnLXRuJywgJzgnLCAnLW1hJywgJzIwMCcsICctaW1hZScsICc8aW5maWxlLm1hZT4nLCAnLW9tYWUnLCAnPG91dGZpbGUubWFlPic=

>  <r_epik_Ionization_Penalty>  (54) 
0.0276654

>  <r_epik_Ionization_Penalty_Charging>  (54) 
0.0276653

>  <r_epik_Ionization_Penalty_Neutral>  (54) 
8.32412e-08

>  <r_epik_State_Penalty>  (54) 
0.0204581

>  <r_epik_Charging_Adjusted_Penalty>  (54) 
0.0481235

>  <i_epik_Tot_Q>  (54) 
2

>  <i_epik_Tot_abs_Q>  (54) 
2

>  <s_epik_Chemistry_Notes>  (54) 
This compound has an imine and may undergo hydrolysis. This compound contains an acetal/aminal-like group ( X-CH(R)-Y where X, Y are N, S, or O) that may be acid/base labile, releasing an aldehyde.

>  <s_lp_Force_Field>  (54) 
OPLS3e

>  <r_lp_Energy>  (54) 
311.561

>  <b_lp_Chiralities_Consistent>  (54) 
0

>  <s_lp_Variant>  (54) 
17:0-2

>  <s_i_glide_gridfile>  (54) 
pfpi4k_grid

>  <i_i_glide_lignum>  (54) 
26

>  <i_i_glide_rotatable_bonds>  (54) 
1

>  <r_i_docking_score>  (54) 
-3.65673

>  <r_i_glide_ligand_efficiency>  (54) 
-0.140643

>  <r_i_glide_ligand_efficiency_sa>  (54) 
-0.416655

>  <r_i_glide_ligand_efficiency_ln>  (54) 
-0.85877

>  <r_i_glide_gscore>  (54) 
-3.65673

>  <r_i_glide_lipo>  (54) 
-0.831955

>  <r_i_glide_hbond>  (54) 
0

>  <r_i_glide_metal>  (54) 
-0

>  <r_i_glide_rewards>  (54) 
-1.02932

>  <r_i_glide_evdw>  (54) 
-21.4985

>  <r_i_glide_ecoul>  (54) 
-4.34102

>  <r_i_glide_erotb>  (54) 
0

>  <r_i_glide_esite>  (54) 
-0.0693728

>  <r_i_glide_emodel>  (54) 
-28.0583

>  <r_i_glide_energy>  (54) 
-25.8395

>  <r_i_glide_einternal>  (54) 
5.63546

>  <r_i_glide_intrahb_reward>  (54) 
-0

>  <i_i_glide_confnum>  (54) 
2

>  <i_i_glide_posenum>  (54) 
33

>  <r_i_glide_eff_state_penalty>  (54) 
0

>  <ligand_id>  (54) 
17

>  <original_smiles>  (54) 
CCC12C3=CC4CC5N(C)C=C1N5C(=O)C(CC1NC5C3C1CC52)C4N

>  <smiles>  (54) 
[H]C1=C2N3C(=O)C4([H])C([H])([H])C5([H])C6([H])C([H])([H])C7([H])C2(C([H])([H])C([H])([H])[H])C(=C([H])C([H])(C([H])([H])C3([H])N1C([H])([H])[H])C4([H])[N+]([H])([H])[H])C6([H])C7([H])[N+]5([H])[H]

$$$$
17:1:1
     RDKit          3D

 56 62  0  0  1  0  0  0  0  0999 V2000
    8.6171   -3.6977   -1.3047 C   0  0  0  0  0  0  0  0  0  0  0  0
    7.2361   -3.4224   -1.9243 C   0  0  0  0  0  0  0  0  0  0  0  0
    6.0243   -3.7633   -1.0198 C   0  0  1  0  0  0  0  0  0  0  0  0
    5.8004   -2.6324   -0.0489 C   0  0  0  0  0  0  0  0  0  0  0  0
    5.3151   -1.4246   -0.3670 C   0  0  0  0  0  0  0  0  0  0  0  0
    3.8496   -0.9147   -0.1809 C   0  0  1  0  0  0  0  0  0  0  0  0
    3.1702   -0.8996   -1.6073 C   0  0  0  0  0  0  0  0  0  0  0  0
    2.7438   -2.2942   -2.1236 C   0  0  1  0  0  0  0  0  0  0  0  0
    3.3771   -2.6230   -3.3805 N   0  0  0  0  0  0  0  0  0  0  0  0
    3.1037   -1.7705   -4.5009 C   0  0  0  0  0  0  0  0  0  0  0  0
    4.5387   -3.3351   -3.1324 C   0  0  0  0  0  0  0  0  0  0  0  0
    4.6191   -3.6869   -1.8434 C   0  0  0  0  0  0  0  0  0  0  0  0
    3.3414   -3.2836   -1.2806 N   0  0  0  0  0  0  0  0  0  0  0  0
    2.5590   -3.7361   -0.2305 C   0  0  0  0  0  0  0  0  0  0  0  0
    1.9508   -4.7755   -0.2908 O   0  0  0  0  0  0  0  0  0  0  0  0
    2.5543   -3.0061    1.1473 C   0  0  1  0  0  0  0  0  0  0  0  0
    3.0641   -3.9279    2.4354 C   0  0  0  0  0  0  0  0  0  0  0  0
    4.5453   -4.6598    2.6576 C   0  0  1  0  0  0  0  0  0  0  0  0
    4.6212   -5.7575    1.7434 N   0  0  0  0  0  0  0  0  0  0  0  0
    4.9376   -4.9843    0.5731 C   0  0  1  0  0  0  0  0  0  0  0  0
    5.2396   -3.4711    1.0219 C   0  0  1  0  0  0  0  0  0  0  0  0
    5.8901   -3.9064    2.2162 C   0  0  2  0  0  0  0  0  0  0  0  0
    7.0093   -4.6557    1.4072 C   0  0  0  0  0  0  0  0  0  0  0  0
    6.2852   -4.9814    0.0441 C   0  0  2  0  0  0  0  0  0  0  0  0
    2.9202   -1.4537    1.0163 C   0  0  1  0  0  0  0  0  0  0  0  0
    3.3166   -0.8980    2.3108 N   0  0  0  0  0  0  0  0  0  0  0  0
    9.3859   -3.6649   -2.0722 H   0  0  0  0  0  0  0  0  0  0  0  0
    8.7079   -4.6970   -0.8899 H   0  0  0  0  0  0  0  0  0  0  0  0
    8.8358   -2.9741   -0.5138 H   0  0  0  0  0  0  0  0  0  0  0  0
    7.2120   -2.3981   -2.3064 H   0  0  0  0  0  0  0  0  0  0  0  0
    7.1488   -3.9612   -2.8516 H   0  0  0  0  0  0  0  0  0  0  0  0
    5.7240   -0.9980   -1.2761 H   0  0  0  0  0  0  0  0  0  0  0  0
    4.0203    0.1219    0.0648 H   0  0  0  0  0  0  0  0  0  0  0  0
    2.3189   -0.2630   -1.7852 H   0  0  0  0  0  0  0  0  0  0  0  0
    3.8542   -0.4225   -2.3009 H   0  0  0  0  0  0  0  0  0  0  0  0
    1.6695   -2.4298   -2.2628 H   0  0  0  0  0  0  0  0  0  0  0  0
    3.4271   -2.3392   -5.3467 H   0  0  0  0  0  0  0  0  0  0  0  0
    3.6626   -0.8365   -4.4974 H   0  0  0  0  0  0  0  0  0  0  0  0
    2.0427   -1.5621   -4.6405 H   0  0  0  0  0  0  0  0  0  0  0  0
    5.3223   -3.2830   -3.8802 H   0  0  0  0  0  0  0  0  0  0  0  0
    1.5023   -2.9334    1.3826 H   0  0  0  0  0  0  0  0  0  0  0  0
    2.9322   -3.3123    3.3104 H   0  0  0  0  0  0  0  0  0  0  0  0
    2.3297   -4.7305    2.5636 H   0  0  0  0  0  0  0  0  0  0  0  0
    4.6562   -5.0336    3.6787 H   0  0  0  0  0  0  0  0  0  0  0  0
    5.4338   -6.3541    1.9726 H   0  0  0  0  0  0  0  0  0  0  0  0
    4.3241   -5.4013   -0.2379 H   0  0  0  0  0  0  0  0  0  0  0  0
    4.7621   -2.7057    1.5584 H   0  0  0  0  0  0  0  0  0  0  0  0
    6.1800   -3.0821    2.8546 H   0  0  0  0  0  0  0  0  0  0  0  0
    7.8907   -4.0398    1.2528 H   0  0  0  0  0  0  0  0  0  0  0  0
    7.3496   -5.5809    1.8615 H   0  0  0  0  0  0  0  0  0  0  0  0
    6.5110   -5.9991   -0.2588 H   0  0  0  0  0  0  0  0  0  0  0  0
    1.9666   -0.9459    0.8683 H   0  0  0  0  0  0  0  0  0  0  0  0
    4.2180   -1.2739    2.6047 H   0  0  0  0  0  0  0  0  0  0  0  0
    2.5977   -1.1241    3.0007 H   0  0  0  0  0  0  0  0  0  0  0  0
    3.7512   -6.2897    1.6642 H   0  0  0  0  0  0  0  0  0  0  0  0
    3.3740    0.1146    2.2243 H   0  0  0  0  0  0  0  0  0  0  0  0
  1  2  1  0
  1 27  1  0
  1 28  1  0
  1 29  1  0
  3  2  1  6
  2 30  1  0
  2 31  1  0
  3 12  1  0
  3 24  1  0
  3  4  1  0
  4 21  1  0
  4  5  2  3
  5  6  1  0
  5 32  1  0
  6 25  1  0
  6  7  1  0
  6 33  1  1
  7  8  1  0
  7 34  1  0
  7 35  1  0
  8 13  1  0
  8  9  1  0
  8 36  1  6
  9 10  1  0
  9 11  1  0
 10 37  1  0
 10 38  1  0
 10 39  1  0
 11 12  2  0
 11 40  1  0
 12 13  1  0
 13 14  1  0
 14 15  2  0
 14 16  1  0
 16 17  1  0
 16 25  1  0
 16 41  1  1
 17 18  1  0
 17 42  1  0
 17 43  1  0
 18 22  1  0
 18 19  1  0
 18 44  1  1
 19 20  1  0
 19 45  1  0
 19 55  1  0
 20 24  1  0
 20 21  1  0
 20 46  1  6
 21 22  1  0
 21 47  1  1
 22 23  1  0
 22 48  1  1
 23 24  1  0
 23 49  1  0
 23 50  1  0
 24 51  1  6
 25 26  1  0
 25 52  1  6
 26 53  1  0
 26 54  1  0
 26 56  1  0
M  CHG  2  19   1  26   1
M  END
>  <i_m_ct_stereo_status>  (55) 
1

>  <s_m_source_file>  (55) 
/var/tmp/pbs.5076255.sched01/tmprv8ptrg5/026yimkau.sdf

>  <i_m_source_file_index>  (55) 
26

>  <i_lp_mmshare_version>  (55) 
48012

>  <i_f3d_flags>  (55) 
2

>  <s_epik_input>  (55) 
W0NIM11bQ0gyXVtDQEBdMTIvQz0zW0NASF00W0NASF01W0NAQEhdMltDSDJdW0NAQEhdNFtDQEBIXShbTkhdNSlbQ0gyXVtDQEBIXTZDKD1PKU43W0NASF0oTihbQ0gzXSlbQ0hdPUMxNylbQ0gyXVtDQEhdKC9bQ0hdMylbQ0BASF02W05IMl0=

>  <s_epik_cmdline>  (55) 
J2VwaWtfcHl0aG9uJywgJy1waHQnLCAnMi4wJywgJy1waCcsICc3LjAnLCAnLXRuJywgJzgnLCAnLW1hJywgJzIwMCcsICctaW1hZScsICc8aW5maWxlLm1hZT4nLCAnLW9tYWUnLCAnPG91dGZpbGUubWFlPic=

>  <r_epik_Ionization_Penalty>  (55) 
0.0276654

>  <r_epik_Ionization_Penalty_Charging>  (55) 
0.0276653

>  <r_epik_Ionization_Penalty_Neutral>  (55) 
8.32412e-08

>  <r_epik_State_Penalty>  (55) 
0.0204581

>  <r_epik_Charging_Adjusted_Penalty>  (55) 
0.0481235

>  <i_epik_Tot_Q>  (55) 
2

>  <i_epik_Tot_abs_Q>  (55) 
2

>  <s_epik_Chemistry_Notes>  (55) 
This compound has an imine and may undergo hydrolysis. This compound contains an acetal/aminal-like group ( X-CH(R)-Y where X, Y are N, S, or O) that may be acid/base labile, releasing an aldehyde.

>  <s_lp_Force_Field>  (55) 
OPLS3e

>  <r_lp_Energy>  (55) 
311.561

>  <b_lp_Chiralities_Consistent>  (55) 
0

>  <s_lp_Variant>  (55) 
17:0-2

>  <s_i_glide_gridfile>  (55) 
pfpi4k_grid

>  <i_i_glide_lignum>  (55) 
26

>  <i_i_glide_rotatable_bonds>  (55) 
1

>  <r_i_docking_score>  (55) 
-3.03078

>  <r_i_glide_ligand_efficiency>  (55) 
-0.116568

>  <r_i_glide_ligand_efficiency_sa>  (55) 
-0.345333

>  <r_i_glide_ligand_efficiency_ln>  (55) 
-0.711768

>  <r_i_glide_gscore>  (55) 
-3.03078

>  <r_i_glide_lipo>  (55) 
-0.564855

>  <r_i_glide_hbond>  (55) 
-0.0200586

>  <r_i_glide_metal>  (55) 
-0

>  <r_i_glide_rewards>  (55) 
-1.29535

>  <r_i_glide_evdw>  (55) 
-3.97229

>  <r_i_glide_ecoul>  (55) 
-5.59376

>  <r_i_glide_erotb>  (55) 
0

>  <r_i_glide_esite>  (55) 
-0.112831

>  <r_i_glide_emodel>  (55) 
-11.4409

>  <r_i_glide_energy>  (55) 
-9.56605

>  <r_i_glide_einternal>  (55) 
2.36356

>  <r_i_glide_intrahb_reward>  (55) 
-0

>  <i_i_glide_confnum>  (55) 
1

>  <i_i_glide_posenum>  (55) 
1

>  <r_i_glide_eff_state_penalty>  (55) 
0

>  <ligand_id>  (55) 
17

>  <original_smiles>  (55) 
CCC12C3=CC4CC5N(C)C=C1N5C(=O)C(CC1NC5C3C1CC52)C4N

>  <smiles>  (55) 
[H]C1=C2N3C(=O)C4([H])C([H])([H])C5([H])C6([H])C([H])([H])C7([H])C2(C([H])([H])C([H])([H])[H])C(=C([H])C([H])(C([H])([H])C3([H])N1C([H])([H])[H])C4([H])[N+]([H])([H])[H])C6([H])C7([H])[N+]5([H])[H]

$$$$
17:2:0
     RDKit          3D

 55 61  0  0  1  0  0  0  0  0999 V2000
    5.6820   -0.2839    3.9207 C   0  0  0  0  0  0  0  0  0  0  0  0
    5.0851   -1.7266    3.7796 C   0  0  0  0  0  0  0  0  0  0  0  0
    5.0689   -2.4133    2.3647 C   0  0  1  0  0  0  0  0  0  0  0  0
    6.1971   -1.8447    1.5318 C   0  0  0  0  0  0  0  0  0  0  0  0
    7.1456   -2.6469    0.8809 C   0  0  0  0  0  0  0  0  0  0  0  0
    6.8725   -3.9618    0.0323 C   0  0  1  0  0  0  0  0  0  0  0  0
    7.0512   -5.3102    0.8103 C   0  0  0  0  0  0  0  0  0  0  0  0
    5.7575   -5.8750    1.4505 C   0  0  1  0  0  0  0  0  0  0  0  0
    5.8910   -5.9900    2.8956 N   0  0  0  0  0  0  0  0  0  0  0  0
    6.7901   -6.9692    3.4816 C   0  0  0  0  0  0  0  0  0  0  0  0
    5.5863   -4.7448    3.4069 C   0  0  0  0  0  0  0  0  0  0  0  0
    5.0112   -3.9699    2.4831 C   0  0  0  0  0  0  0  0  0  0  0  0
    4.7865   -4.8033    1.3756 N   0  0  0  0  0  0  0  0  0  0  0  0
    3.8349   -4.7362    0.4519 C   0  0  0  0  0  0  0  0  0  0  0  0
    2.6909   -5.1778    0.6296 O   0  0  0  0  0  0  0  0  0  0  0  0
    4.1508   -3.9266   -0.8136 C   0  0  1  0  0  0  0  0  0  0  0  0
    3.1569   -2.6617   -1.1736 C   0  0  0  0  0  0  0  0  0  0  0  0
    3.3495   -1.0577   -0.8387 C   0  0  2  0  0  0  0  0  0  0  0  0
    4.5822   -0.8015   -1.2820 N   0  0  0  0  0  0  0  0  0  0  0  0
    5.0657   -1.4161   -0.0469 C   0  0  1  0  0  0  0  0  0  0  0  0
    5.5764   -0.5240    0.8276 C   0  0  1  0  0  0  0  0  0  0  0  0
    3.9371   -0.2406    0.5356 C   0  0  2  0  0  0  0  0  0  0  0  0
    3.2109   -0.7718    1.6885 C   0  0  0  0  0  0  0  0  0  0  0  0
    4.1088   -1.9304    1.3236 C   0  0  2  0  0  0  0  0  0  0  0  0
    5.7092   -4.0538   -1.1034 C   0  0  1  0  0  0  0  0  0  0  0  0
    6.0443   -3.4396   -2.3717 N   0  0  0  0  0  0  0  0  0  0  0  0
    5.7167    0.0030    4.9852 H   0  0  0  0  0  0  0  0  0  0  0  0
    5.1622    0.5052    3.4043 H   0  0  0  0  0  0  0  0  0  0  0  0
    6.7179   -0.2500    3.5512 H   0  0  0  0  0  0  0  0  0  0  0  0
    5.7253   -2.3207    4.4177 H   0  0  0  0  0  0  0  0  0  0  0  0
    4.0897   -1.8197    4.2227 H   0  0  0  0  0  0  0  0  0  0  0  0
    7.8070   -2.0430    0.2848 H   0  0  0  0  0  0  0  0  0  0  0  0
    7.7831   -3.9684   -0.5552 H   0  0  0  0  0  0  0  0  0  0  0  0
    7.4488   -6.0692    0.1415 H   0  0  0  0  0  0  0  0  0  0  0  0
    7.8255   -5.1699    1.5642 H   0  0  0  0  0  0  0  0  0  0  0  0
    5.3914   -6.8038    0.9826 H   0  0  0  0  0  0  0  0  0  0  0  0
    6.5885   -7.1009    4.5454 H   0  0  0  0  0  0  0  0  0  0  0  0
    7.8229   -6.6413    3.3679 H   0  0  0  0  0  0  0  0  0  0  0  0
    6.6849   -7.9425    2.9936 H   0  0  0  0  0  0  0  0  0  0  0  0
    6.0742   -4.4528    4.3297 H   0  0  0  0  0  0  0  0  0  0  0  0
    3.7600   -4.6360   -1.5254 H   0  0  0  0  0  0  0  0  0  0  0  0
    2.9882   -2.6908   -2.2513 H   0  0  0  0  0  0  0  0  0  0  0  0
    2.1859   -2.8909   -0.7609 H   0  0  0  0  0  0  0  0  0  0  0  0
    2.6125   -0.6314   -1.4799 H   0  0  0  0  0  0  0  0  0  0  0  0
    4.8018   -1.2962   -2.1371 H   0  0  0  0  0  0  0  0  0  0  0  0
    5.8122   -1.8337   -0.6727 H   0  0  0  0  0  0  0  0  0  0  0  0
    6.3051    0.1276    0.3335 H   0  0  0  0  0  0  0  0  0  0  0  0
    3.7869    0.8430    0.4968 H   0  0  0  0  0  0  0  0  0  0  0  0
    3.3274   -0.2407    2.6154 H   0  0  0  0  0  0  0  0  0  0  0  0
    2.1298   -0.9194    1.4438 H   0  0  0  0  0  0  0  0  0  0  0  0
    3.2772   -2.6050    1.2465 H   0  0  0  0  0  0  0  0  0  0  0  0
    5.7426   -5.1041   -1.3506 H   0  0  0  0  0  0  0  0  0  0  0  0
    6.9724   -3.7164   -2.6441 H   0  0  0  0  0  0  0  0  0  0  0  0
    5.4285   -3.8083   -3.0749 H   0  0  0  0  0  0  0  0  0  0  0  0
    4.7609    0.2021   -1.2615 H   0  0  0  0  0  0  0  0  0  0  0  0
  1  2  1  0
  1 27  1  0
  1 28  1  0
  1 29  1  0
  3  2  1  1
  2 30  1  0
  2 31  1  0
  3 12  1  0
  3 24  1  0
  3  4  1  0
  4 21  1  0
  4  5  2  3
  5  6  1  0
  5 32  1  0
  6 25  1  0
  6  7  1  0
  6 33  1  6
  7  8  1  0
  7 34  1  0
  7 35  1  0
  8 13  1  0
  8  9  1  0
  8 36  1  6
  9 10  1  0
  9 11  1  0
 10 37  1  0
 10 38  1  0
 10 39  1  0
 11 12  2  0
 11 40  1  0
 12 13  1  0
 13 14  1  0
 14 15  2  0
 14 16  1  0
 16 17  1  0
 16 25  1  0
 16 41  1  6
 17 18  1  0
 17 42  1  0
 17 43  1  0
 18 22  1  0
 18 19  1  0
 18 44  1  6
 19 20  1  0
 19 45  1  0
 19 55  1  0
 20 24  1  0
 20 21  1  0
 20 46  1  6
 21 22  1  0
 21 47  1  6
 22 23  1  0
 22 48  1  6
 23 24  1  0
 23 49  1  0
 23 50  1  0
 24 51  1  6
 25 26  1  0
 25 52  1  6
 26 53  1  0
 26 54  1  0
M  CHG  1  19   1
M  END
>  <i_m_ct_stereo_status>  (56) 
1

>  <s_m_source_file>  (56) 
/var/tmp/pbs.5076255.sched01/tmprv8ptrg5/026yimkau.sdf

>  <i_m_source_file_index>  (56) 
27

>  <i_lp_mmshare_version>  (56) 
48012

>  <i_f3d_flags>  (56) 
0

>  <s_epik_input>  (56) 
W0NIM11bQ0gyXVtDQEBdMTIvQz0zW0NASF00W0NASF01W0NAQEhdMltDSDJdW0NAQEhdNFtDQEBIXShbTkhdNSlbQ0gyXVtDQEBIXTZDKD1PKU43W0NASF0oTihbQ0gzXSlbQ0hdPUMxNylbQ0gyXVtDQEhdKC9bQ0hdMylbQ0BASF02W05IMl0=

>  <s_epik_cmdline>  (56) 
J2VwaWtfcHl0aG9uJywgJy1waHQnLCAnMi4wJywgJy1waCcsICc3LjAnLCAnLXRuJywgJzgnLCAnLW1hJywgJzIwMCcsICctaW1hZScsICc8aW5maWxlLm1hZT4nLCAnLW9tYWUnLCAnPG91dGZpbGUubWFlPic=

>  <r_epik_Ionization_Penalty>  (56) 
1.88519

>  <r_epik_Ionization_Penalty_Charging>  (56) 
0.00074205

>  <r_epik_Ionization_Penalty_Neutral>  (56) 
1.88445

>  <r_epik_State_Penalty>  (56) 
2.00448

>  <r_epik_Charging_Adjusted_Penalty>  (56) 
2.00522

>  <i_epik_Tot_Q>  (56) 
1

>  <i_epik_Tot_abs_Q>  (56) 
1

>  <s_epik_Chemistry_Notes>  (56) 
This compound has an imine and may undergo hydrolysis. This compound contains an acetal/aminal-like group ( X-CH(R)-Y where X, Y are N, S, or O) that may be acid/base labile, releasing an aldehyde.

>  <s_lp_Force_Field>  (56) 
OPLS3e

>  <r_lp_Energy>  (56) 
420.48

>  <b_lp_Chiralities_Consistent>  (56) 
1

>  <s_lp_Variant>  (56) 
17:0-3

>  <s_i_glide_gridfile>  (56) 
pfpi4k_grid

>  <i_i_glide_lignum>  (56) 
27

>  <i_i_glide_rotatable_bonds>  (56) 
1

>  <r_i_docking_score>  (56) 
-4.23563

>  <r_i_glide_ligand_efficiency>  (56) 
-0.162909

>  <r_i_glide_ligand_efficiency_sa>  (56) 
-0.482617

>  <r_i_glide_ligand_efficiency_ln>  (56) 
-0.994724

>  <r_i_glide_gscore>  (56) 
-4.23563

>  <r_i_glide_lipo>  (56) 
-0.89333

>  <r_i_glide_hbond>  (56) 
0

>  <r_i_glide_metal>  (56) 
-0

>  <r_i_glide_rewards>  (56) 
-1.67461

>  <r_i_glide_evdw>  (56) 
-15.697

>  <r_i_glide_ecoul>  (56) 
-5.59912

>  <r_i_glide_erotb>  (56) 
0

>  <r_i_glide_esite>  (56) 
-0.0429692

>  <r_i_glide_emodel>  (56) 
-29.4966

>  <r_i_glide_energy>  (56) 
-21.2962

>  <r_i_glide_einternal>  (56) 
3.5936

>  <r_i_glide_intrahb_reward>  (56) 
-0.5

>  <i_i_glide_confnum>  (56) 
1

>  <i_i_glide_posenum>  (56) 
33

>  <r_i_glide_eff_state_penalty>  (56) 
0

>  <ligand_id>  (56) 
17

>  <original_smiles>  (56) 
CCC12C3=CC4CC5N(C)C=C1N5C(=O)C(CC1NC5C3C1CC52)C4N

>  <smiles>  (56) 
[H]C1=C2N3C(=O)C4([H])C([H])([H])C5([H])C6([H])C([H])([H])C7([H])C2(C([H])([H])C([H])([H])[H])C(=C([H])C([H])(C([H])([H])C3([H])N1C([H])([H])[H])C4([H])N([H])[H])C6([H])C7([H])[N+]5([H])[H]

$$$$
17:2:1
     RDKit          3D

 55 61  0  0  1  0  0  0  0  0999 V2000
    2.1901   -3.7641    6.3000 C   0  0  0  0  0  0  0  0  0  0  0  0
    1.6376   -4.7347    5.2121 C   0  0  0  0  0  0  0  0  0  0  0  0
    2.3993   -4.8461    3.8440 C   0  0  1  0  0  0  0  0  0  0  0  0
    3.8432   -4.4644    4.0439 C   0  0  0  0  0  0  0  0  0  0  0  0
    4.9022   -5.2929    3.6577 C   0  0  0  0  0  0  0  0  0  0  0  0
    5.0781   -6.0497    2.2609 C   0  0  1  0  0  0  0  0  0  0  0  0
    4.6335   -7.5458    2.2674 C   0  0  0  0  0  0  0  0  0  0  0  0
    3.1556   -7.7898    1.8530 C   0  0  1  0  0  0  0  0  0  0  0  0
    2.3888   -8.4330    2.9076 N   0  0  0  0  0  0  0  0  0  0  0  0
    2.6801   -9.8060    3.2960 C   0  0  0  0  0  0  0  0  0  0  0  0
    1.9924   -7.4155    3.7473 C   0  0  0  0  0  0  0  0  0  0  0  0
    2.1414   -6.2157    3.1604 C   0  0  0  0  0  0  0  0  0  0  0  0
    2.5209   -6.4943    1.8465 N   0  0  0  0  0  0  0  0  0  0  0  0
    2.2997   -5.7842    0.7236 C   0  0  0  0  0  0  0  0  0  0  0  0
    1.2350   -5.8603    0.1034 O   0  0  0  0  0  0  0  0  0  0  0  0
    3.3745   -4.7510    0.3305 C   0  0  1  0  0  0  0  0  0  0  0  0
    2.9017   -3.1320    0.2072 C   0  0  0  0  0  0  0  0  0  0  0  0
    2.9950   -1.8822    1.3440 C   0  0  2  0  0  0  0  0  0  0  0  0
    4.2848   -2.0028    1.7085 N   0  0  0  0  0  0  0  0  0  0  0  0
    3.9089   -3.1480    2.5437 C   0  0  1  0  0  0  0  0  0  0  0  0
    3.8919   -2.8490    3.8585 C   0  0  1  0  0  0  0  0  0  0  0  0
    2.7677   -1.9038    3.0192 C   0  0  2  0  0  0  0  0  0  0  0  0
    1.4724   -2.5256    3.2560 C   0  0  0  0  0  0  0  0  0  0  0  0
    2.2886   -3.7214    2.8475 C   0  0  2  0  0  0  0  0  0  0  0  0
    4.8004   -5.3565    0.7948 C   0  0  1  0  0  0  0  0  0  0  0  0
    5.8844   -4.4993    0.3329 N   0  0  0  0  0  0  0  0  0  0  0  0
    1.6191   -3.8742    7.2259 H   0  0  0  0  0  0  0  0  0  0  0  0
    2.1713   -2.7194    6.0196 H   0  0  0  0  0  0  0  0  0  0  0  0
    3.2277   -4.0154    6.5580 H   0  0  0  0  0  0  0  0  0  0  0  0
    1.6878   -5.7042    5.6992 H   0  0  0  0  0  0  0  0  0  0  0  0
    0.5772   -4.5810    5.0156 H   0  0  0  0  0  0  0  0  0  0  0  0
    5.8440   -4.7861    3.8165 H   0  0  0  0  0  0  0  0  0  0  0  0
    6.1542   -6.1734    2.2591 H   0  0  0  0  0  0  0  0  0  0  0  0
    5.2718   -8.1210    1.5926 H   0  0  0  0  0  0  0  0  0  0  0  0
    4.8216   -7.9532    3.2602 H   0  0  0  0  0  0  0  0  0  0  0  0
    3.0551   -8.3379    0.9178 H   0  0  0  0  0  0  0  0  0  0  0  0
    1.8768  -10.2116    3.9141 H   0  0  0  0  0  0  0  0  0  0  0  0
    3.6073   -9.8508    3.8703 H   0  0  0  0  0  0  0  0  0  0  0  0
    2.7918  -10.4460    2.4204 H   0  0  0  0  0  0  0  0  0  0  0  0
    1.8558   -7.6390    4.7891 H   0  0  0  0  0  0  0  0  0  0  0  0
    3.4099   -4.9696   -0.7261 H   0  0  0  0  0  0  0  0  0  0  0  0
    3.4228   -2.7469   -0.6760 H   0  0  0  0  0  0  0  0  0  0  0  0
    1.8512   -3.1410   -0.0968 H   0  0  0  0  0  0  0  0  0  0  0  0
    2.7680   -0.9030    0.9088 H   0  0  0  0  0  0  0  0  0  0  0  0
    4.9179   -2.2347    0.9475 H   0  0  0  0  0  0  0  0  0  0  0  0
    4.8317   -3.5854    2.2298 H   0  0  0  0  0  0  0  0  0  0  0  0
    4.8287   -2.3665    4.1607 H   0  0  0  0  0  0  0  0  0  0  0  0
    2.7585   -0.8873    3.4239 H   0  0  0  0  0  0  0  0  0  0  0  0
    1.1056   -2.4369    4.2700 H   0  0  0  0  0  0  0  0  0  0  0  0
    0.7293   -2.1979    2.5153 H   0  0  0  0  0  0  0  0  0  0  0  0
    1.6135   -3.9999    2.0616 H   0  0  0  0  0  0  0  0  0  0  0  0
    4.9194   -6.2085    0.1195 H   0  0  0  0  0  0  0  0  0  0  0  0
    6.7549   -4.9987    0.4529 H   0  0  0  0  0  0  0  0  0  0  0  0
    5.7749   -4.3535   -0.6641 H   0  0  0  0  0  0  0  0  0  0  0  0
    4.5604   -1.2174    2.2866 H   0  0  0  0  0  0  0  0  0  0  0  0
  1  2  1  0
  1 27  1  0
  1 28  1  0
  1 29  1  0
  3  2  1  1
  2 30  1  0
  2 31  1  0
  3 12  1  0
  3 24  1  0
  3  4  1  0
  4 21  1  0
  4  5  2  3
  5  6  1  0
  5 32  1  0
  6 25  1  0
  6  7  1  0
  6 33  1  6
  7  8  1  0
  7 34  1  0
  7 35  1  0
  8 13  1  0
  8  9  1  0
  8 36  1  6
  9 10  1  0
  9 11  1  0
 10 37  1  0
 10 38  1  0
 10 39  1  0
 11 12  2  0
 11 40  1  0
 12 13  1  0
 13 14  1  0
 14 15  2  0
 14 16  1  0
 16 17  1  0
 16 25  1  0
 16 41  1  6
 17 18  1  0
 17 42  1  0
 17 43  1  0
 18 22  1  0
 18 19  1  0
 18 44  1  6
 19 20  1  0
 19 45  1  0
 19 55  1  0
 20 24  1  0
 20 21  1  0
 20 46  1  1
 21 22  1  0
 21 47  1  1
 22 23  1  0
 22 48  1  1
 23 24  1  0
 23 49  1  0
 23 50  1  0
 24 51  1  6
 25 26  1  0
 25 52  1  6
 26 53  1  0
 26 54  1  0
M  CHG  1  19   1
M  END
>  <i_m_ct_stereo_status>  (57) 
1

>  <s_m_source_file>  (57) 
/var/tmp/pbs.5076255.sched01/tmprv8ptrg5/026yimkau.sdf

>  <i_m_source_file_index>  (57) 
27

>  <i_lp_mmshare_version>  (57) 
48012

>  <i_f3d_flags>  (57) 
0

>  <s_epik_input>  (57) 
W0NIM11bQ0gyXVtDQEBdMTIvQz0zW0NASF00W0NASF01W0NAQEhdMltDSDJdW0NAQEhdNFtDQEBIXShbTkhdNSlbQ0gyXVtDQEBIXTZDKD1PKU43W0NASF0oTihbQ0gzXSlbQ0hdPUMxNylbQ0gyXVtDQEhdKC9bQ0hdMylbQ0BASF02W05IMl0=

>  <s_epik_cmdline>  (57) 
J2VwaWtfcHl0aG9uJywgJy1waHQnLCAnMi4wJywgJy1waCcsICc3LjAnLCAnLXRuJywgJzgnLCAnLW1hJywgJzIwMCcsICctaW1hZScsICc8aW5maWxlLm1hZT4nLCAnLW9tYWUnLCAnPG91dGZpbGUubWFlPic=

>  <r_epik_Ionization_Penalty>  (57) 
1.88519

>  <r_epik_Ionization_Penalty_Charging>  (57) 
0.00074205

>  <r_epik_Ionization_Penalty_Neutral>  (57) 
1.88445

>  <r_epik_State_Penalty>  (57) 
2.00448

>  <r_epik_Charging_Adjusted_Penalty>  (57) 
2.00522

>  <i_epik_Tot_Q>  (57) 
1

>  <i_epik_Tot_abs_Q>  (57) 
1

>  <s_epik_Chemistry_Notes>  (57) 
This compound has an imine and may undergo hydrolysis. This compound contains an acetal/aminal-like group ( X-CH(R)-Y where X, Y are N, S, or O) that may be acid/base labile, releasing an aldehyde.

>  <s_lp_Force_Field>  (57) 
OPLS3e

>  <r_lp_Energy>  (57) 
420.48

>  <b_lp_Chiralities_Consistent>  (57) 
1

>  <s_lp_Variant>  (57) 
17:0-3

>  <s_i_glide_gridfile>  (57) 
pfpi4k_grid

>  <i_i_glide_lignum>  (57) 
27

>  <i_i_glide_rotatable_bonds>  (57) 
1

>  <r_i_docking_score>  (57) 
-3.27712

>  <r_i_glide_ligand_efficiency>  (57) 
-0.126043

>  <r_i_glide_ligand_efficiency_sa>  (57) 
-0.373402

>  <r_i_glide_ligand_efficiency_ln>  (57) 
-0.769621

>  <r_i_glide_gscore>  (57) 
-3.27712

>  <r_i_glide_lipo>  (57) 
-0.118963

>  <r_i_glide_hbond>  (57) 
-0.299788

>  <r_i_glide_metal>  (57) 
-0

>  <r_i_glide_rewards>  (57) 
-1.00156

>  <r_i_glide_evdw>  (57) 
-16.3746

>  <r_i_glide_ecoul>  (57) 
-6.5584

>  <r_i_glide_erotb>  (57) 
0

>  <r_i_glide_esite>  (57) 
-0.0543158

>  <r_i_glide_emodel>  (57) 
-25.766

>  <r_i_glide_energy>  (57) 
-22.933

>  <r_i_glide_einternal>  (57) 
3.5434

>  <r_i_glide_intrahb_reward>  (57) 
-0

>  <i_i_glide_confnum>  (57) 
1

>  <i_i_glide_posenum>  (57) 
36

>  <r_i_glide_eff_state_penalty>  (57) 
0

>  <ligand_id>  (57) 
17

>  <original_smiles>  (57) 
CCC12C3=CC4CC5N(C)C=C1N5C(=O)C(CC1NC5C3C1CC52)C4N

>  <smiles>  (57) 
[H]C1=C2N3C(=O)C4([H])C([H])([H])C5([H])C6([H])C([H])([H])C7([H])C2(C([H])([H])C([H])([H])[H])C(=C([H])C([H])(C([H])([H])C3([H])N1C([H])([H])[H])C4([H])N([H])[H])C6([H])C7([H])[N+]5([H])[H]

$$$$
17:2:2
     RDKit          3D

 55 61  0  0  1  0  0  0  0  0999 V2000
    1.5872   -4.4962    5.2302 C   0  0  0  0  0  0  0  0  0  0  0  0
    1.3960   -3.4551    4.1024 C   0  0  0  0  0  0  0  0  0  0  0  0
    2.4291   -3.4772    2.9296 C   0  0  1  0  0  0  0  0  0  0  0  0
    3.8116   -3.2974    3.5179 C   0  0  0  0  0  0  0  0  0  0  0  0
    4.8434   -4.2028    3.2567 C   0  0  0  0  0  0  0  0  0  0  0  0
    5.2694   -4.8269    1.8400 C   0  0  1  0  0  0  0  0  0  0  0  0
    4.6660   -6.2439    1.5345 C   0  0  0  0  0  0  0  0  0  0  0  0
    3.3312   -6.2338    0.7319 C   0  0  1  0  0  0  0  0  0  0  0  0
    2.2375   -6.8844    1.4465 N   0  0  0  0  0  0  0  0  0  0  0  0
    2.2882   -8.3026    1.7596 C   0  0  0  0  0  0  0  0  0  0  0  0
    1.7436   -5.9307    2.3078 C   0  0  0  0  0  0  0  0  0  0  0  0
    2.2192   -4.7181    2.0074 C   0  0  0  0  0  0  0  0  0  0  0  0
    2.8827   -4.8672    0.7882 N   0  0  0  0  0  0  0  0  0  0  0  0
    2.9910   -3.9959   -0.2370 C   0  0  0  0  0  0  0  0  0  0  0  0
    2.0963   -3.8389   -1.0626 O   0  0  0  0  0  0  0  0  0  0  0  0
    4.2460   -3.0939   -0.2523 C   0  0  1  0  0  0  0  0  0  0  0  0
    3.9804   -1.4291   -0.2267 C   0  0  0  0  0  0  0  0  0  0  0  0
    3.9355   -0.3477    1.0681 C   0  0  2  0  0  0  0  0  0  0  0  0
    5.0767   -0.6840    1.6959 N   0  0  0  0  0  0  0  0  0  0  0  0
    4.3754   -1.8482    2.2498 C   0  0  1  0  0  0  0  0  0  0  0  0
    4.0820   -1.6919    3.5624 C   0  0  1  0  0  0  0  0  0  0  0  0
    3.3199   -0.5145    2.6277 C   0  0  2  0  0  0  0  0  0  0  0  0
    1.9515   -0.9788    2.5117 C   0  0  0  0  0  0  0  0  0  0  0  0
    2.6865   -2.2284    2.1041 C   0  0  2  0  0  0  0  0  0  0  0  0
    5.4310   -3.9438    0.4572 C   0  0  1  0  0  0  0  0  0  0  0  0
    6.6846   -3.2130    0.3681 N   0  0  0  0  0  0  0  0  0  0  0  0
    0.8136   -4.3645    5.9858 H   0  0  0  0  0  0  0  0  0  0  0  0
    2.5457   -4.3454    5.7267 H   0  0  0  0  0  0  0  0  0  0  0  0
    1.5524   -5.5323    4.9277 H   0  0  0  0  0  0  0  0  0  0  0  0
    0.3912   -3.4933    3.6853 H   0  0  0  0  0  0  0  0  0  0  0  0
    1.4550   -2.5173    4.6570 H   0  0  0  0  0  0  0  0  0  0  0  0
    5.7651   -3.8546    3.6984 H   0  0  0  0  0  0  0  0  0  0  0  0
    6.2961   -5.1006    2.0729 H   0  0  0  0  0  0  0  0  0  0  0  0
    5.3902   -6.8235    0.9614 H   0  0  0  0  0  0  0  0  0  0  0  0
    4.5542   -6.7759    2.4809 H   0  0  0  0  0  0  0  0  0  0  0  0
    3.4445   -6.5994   -0.2891 H   0  0  0  0  0  0  0  0  0  0  0  0
    1.3249   -8.6448    2.1318 H   0  0  0  0  0  0  0  0  0  0  0  0
    3.0317   -8.5140    2.5267 H   0  0  0  0  0  0  0  0  0  0  0  0
    2.5342   -8.8970    0.8782 H   0  0  0  0  0  0  0  0  0  0  0  0
    1.2425   -6.3017    3.1763 H   0  0  0  0  0  0  0  0  0  0  0  0
    4.5039   -3.2087   -1.3095 H   0  0  0  0  0  0  0  0  0  0  0  0
    4.7324   -1.0281   -0.9140 H   0  0  0  0  0  0  0  0  0  0  0  0
    3.0384   -1.2705   -0.7545 H   0  0  0  0  0  0  0  0  0  0  0  0
    3.9475    0.6905    0.7329 H   0  0  0  0  0  0  0  0  0  0  0  0
    5.8490   -0.9165    1.0836 H   0  0  0  0  0  0  0  0  0  0  0  0
    5.2867   -2.3739    2.0964 H   0  0  0  0  0  0  0  0  0  0  0  0
    4.9608   -1.3749    4.1296 H   0  0  0  0  0  0  0  0  0  0  0  0
    3.3263    0.4529    3.1429 H   0  0  0  0  0  0  0  0  0  0  0  0
    1.4374   -0.9002    3.4685 H   0  0  0  0  0  0  0  0  0  0  0  0
    1.3975   -0.4605    1.7191 H   0  0  0  0  0  0  0  0  0  0  0  0
    2.1835   -2.2893    1.1586 H   0  0  0  0  0  0  0  0  0  0  0  0
    5.6107   -4.7342   -0.2746 H   0  0  0  0  0  0  0  0  0  0  0  0
    7.4355   -3.8394    0.6159 H   0  0  0  0  0  0  0  0  0  0  0  0
    6.8360   -2.9652   -0.5990 H   0  0  0  0  0  0  0  0  0  0  0  0
    5.2925   -0.0193    2.4254 H   0  0  0  0  0  0  0  0  0  0  0  0
  1  2  1  0
  1 27  1  0
  1 28  1  0
  1 29  1  0
  3  2  1  1
  2 30  1  0
  2 31  1  0
  3 12  1  0
  3 24  1  0
  3  4  1  0
  4 21  1  0
  4  5  2  3
  5  6  1  0
  5 32  1  0
  6 25  1  0
  6  7  1  0
  6 33  1  1
  7  8  1  0
  7 34  1  0
  7 35  1  0
  8 13  1  0
  8  9  1  0
  8 36  1  6
  9 10  1  0
  9 11  1  0
 10 37  1  0
 10 38  1  0
 10 39  1  0
 11 12  2  0
 11 40  1  0
 12 13  1  0
 13 14  1  0
 14 15  2  0
 14 16  1  0
 16 17  1  0
 16 25  1  0
 16 41  1  6
 17 18  1  0
 17 42  1  0
 17 43  1  0
 18 22  1  0
 18 19  1  0
 18 44  1  6
 19 20  1  0
 19 45  1  0
 19 55  1  0
 20 24  1  0
 20 21  1  0
 20 46  1  1
 21 22  1  0
 21 47  1  1
 22 23  1  0
 22 48  1  1
 23 24  1  0
 23 49  1  0
 23 50  1  0
 24 51  1  6
 25 26  1  0
 25 52  1  6
 26 53  1  0
 26 54  1  0
M  CHG  1  19   1
M  END
>  <i_m_ct_stereo_status>  (58) 
1

>  <s_m_source_file>  (58) 
/var/tmp/pbs.5076255.sched01/tmprv8ptrg5/026yimkau.sdf

>  <i_m_source_file_index>  (58) 
27

>  <i_lp_mmshare_version>  (58) 
48012

>  <i_f3d_flags>  (58) 
0

>  <s_epik_input>  (58) 
W0NIM11bQ0gyXVtDQEBdMTIvQz0zW0NASF00W0NASF01W0NAQEhdMltDSDJdW0NAQEhdNFtDQEBIXShbTkhdNSlbQ0gyXVtDQEBIXTZDKD1PKU43W0NASF0oTihbQ0gzXSlbQ0hdPUMxNylbQ0gyXVtDQEhdKC9bQ0hdMylbQ0BASF02W05IMl0=

>  <s_epik_cmdline>  (58) 
J2VwaWtfcHl0aG9uJywgJy1waHQnLCAnMi4wJywgJy1waCcsICc3LjAnLCAnLXRuJywgJzgnLCAnLW1hJywgJzIwMCcsICctaW1hZScsICc8aW5maWxlLm1hZT4nLCAnLW9tYWUnLCAnPG91dGZpbGUubWFlPic=

>  <r_epik_Ionization_Penalty>  (58) 
1.88519

>  <r_epik_Ionization_Penalty_Charging>  (58) 
0.00074205

>  <r_epik_Ionization_Penalty_Neutral>  (58) 
1.88445

>  <r_epik_State_Penalty>  (58) 
2.00448

>  <r_epik_Charging_Adjusted_Penalty>  (58) 
2.00522

>  <i_epik_Tot_Q>  (58) 
1

>  <i_epik_Tot_abs_Q>  (58) 
1

>  <s_epik_Chemistry_Notes>  (58) 
This compound has an imine and may undergo hydrolysis. This compound contains an acetal/aminal-like group ( X-CH(R)-Y where X, Y are N, S, or O) that may be acid/base labile, releasing an aldehyde.

>  <s_lp_Force_Field>  (58) 
OPLS3e

>  <r_lp_Energy>  (58) 
420.48

>  <b_lp_Chiralities_Consistent>  (58) 
1

>  <s_lp_Variant>  (58) 
17:0-3

>  <s_i_glide_gridfile>  (58) 
pfpi4k_grid

>  <i_i_glide_lignum>  (58) 
27

>  <i_i_glide_rotatable_bonds>  (58) 
1

>  <r_i_docking_score>  (58) 
-2.63781

>  <r_i_glide_ligand_efficiency>  (58) 
-0.101454

>  <r_i_glide_ligand_efficiency_sa>  (58) 
-0.300558

>  <r_i_glide_ligand_efficiency_ln>  (58) 
-0.619481

>  <r_i_glide_gscore>  (58) 
-2.63781

>  <r_i_glide_lipo>  (58) 
-0.289816

>  <r_i_glide_hbond>  (58) 
0

>  <r_i_glide_metal>  (58) 
-0

>  <r_i_glide_rewards>  (58) 
-1.00664

>  <r_i_glide_evdw>  (58) 
-20.2068

>  <r_i_glide_ecoul>  (58) 
-1.79083

>  <r_i_glide_erotb>  (58) 
0

>  <r_i_glide_esite>  (58) 
-0.0623924

>  <r_i_glide_emodel>  (58) 
-24.3225

>  <r_i_glide_energy>  (58) 
-21.9976

>  <r_i_glide_einternal>  (58) 
2.8806

>  <r_i_glide_intrahb_reward>  (58) 
-0

>  <i_i_glide_confnum>  (58) 
1

>  <i_i_glide_posenum>  (58) 
7

>  <r_i_glide_eff_state_penalty>  (58) 
0

>  <ligand_id>  (58) 
17

>  <original_smiles>  (58) 
CCC12C3=CC4CC5N(C)C=C1N5C(=O)C(CC1NC5C3C1CC52)C4N

>  <smiles>  (58) 
[H]C1=C2N3C(=O)C4([H])C([H])([H])C5([H])C6([H])C([H])([H])C7([H])C2(C([H])([H])C([H])([H])[H])C(=C([H])C([H])(C([H])([H])C3([H])N1C([H])([H])[H])C4([H])N([H])[H])C6([H])C7([H])[N+]5([H])[H]

$$$$
17:3:0
     RDKit          3D

 55 61  0  0  1  0  0  0  0  0999 V2000
    8.3413   -2.2337   -0.3201 C   0  0  0  0  0  0  0  0  0  0  0  0
    7.9977   -3.7207   -0.0877 C   0  0  0  0  0  0  0  0  0  0  0  0
    6.5712   -4.0822    0.4440 C   0  0  1  0  0  0  0  0  0  0  0  0
    6.2067   -3.2797    1.6673 C   0  0  0  0  0  0  0  0  0  0  0  0
    5.8363   -1.9627    1.6321 C   0  0  0  0  0  0  0  0  0  0  0  0
    4.3940   -1.3929    1.7352 C   0  0  1  0  0  0  0  0  0  0  0  0
    3.9980   -0.9128    0.2993 C   0  0  0  0  0  0  0  0  0  0  0  0
    3.6675   -2.0522   -0.7063 C   0  0  1  0  0  0  0  0  0  0  0  0
    4.4956   -2.1087   -1.9087 N   0  0  0  0  0  0  0  0  0  0  0  0
    4.5077   -0.9985   -2.8408 C   0  0  0  0  0  0  0  0  0  0  0  0
    5.5002   -3.0303   -1.7132 C   0  0  0  0  0  0  0  0  0  0  0  0
    5.3399   -3.6926   -0.5542 C   0  0  0  0  0  0  0  0  0  0  0  0
    4.0096   -3.3172   -0.1039 N   0  0  0  0  0  0  0  0  0  0  0  0
    3.0163   -3.9680    0.5777 C   0  0  0  0  0  0  0  0  0  0  0  0
    2.3857   -4.9091    0.0895 O   0  0  0  0  0  0  0  0  0  0  0  0
    2.7570   -3.6565    2.0877 C   0  0  1  0  0  0  0  0  0  0  0  0
    2.9900   -4.9176    3.1611 C   0  0  0  0  0  0  0  0  0  0  0  0
    4.3831   -5.8205    3.4247 C   0  0  1  0  0  0  0  0  0  0  0  0
    4.5852   -6.6507    2.2694 N   0  0  0  0  0  0  0  0  0  0  0  0
    5.1614   -5.6177    1.4281 C   0  0  1  0  0  0  0  0  0  0  0  0
    5.4163   -4.3149    2.3479 C   0  0  1  0  0  0  0  0  0  0  0  0
    5.8474   -5.1287    3.4482 C   0  0  2  0  0  0  0  0  0  0  0  0
    7.0578   -5.7332    2.6234 C   0  0  0  0  0  0  0  0  0  0  0  0
    6.5926   -5.5771    1.1062 C   0  0  2  0  0  0  0  0  0  0  0  0
    3.1912   -2.1565    2.4570 C   0  0  1  0  0  0  0  0  0  0  0  0
    3.3127   -1.9893    3.8954 N   0  0  0  0  0  0  0  0  0  0  0  0
    9.3521   -2.1409   -0.7342 H   0  0  0  0  0  0  0  0  0  0  0  0
    8.2782   -1.6400    0.5819 H   0  0  0  0  0  0  0  0  0  0  0  0
    7.6656   -1.8191   -1.0626 H   0  0  0  0  0  0  0  0  0  0  0  0
    8.1782   -4.2271   -1.0294 H   0  0  0  0  0  0  0  0  0  0  0  0
    8.7379   -4.1064    0.6086 H   0  0  0  0  0  0  0  0  0  0  0  0
    6.3987   -1.3120    1.0056 H   0  0  0  0  0  0  0  0  0  0  0  0
    4.5502   -0.4779    2.2996 H   0  0  0  0  0  0  0  0  0  0  0  0
    3.1428   -0.2405    0.3753 H   0  0  0  0  0  0  0  0  0  0  0  0
    4.8001   -0.2939   -0.1063 H   0  0  0  0  0  0  0  0  0  0  0  0
    2.6162   -2.0247   -1.0055 H   0  0  0  0  0  0  0  0  0  0  0  0
    4.9376   -1.3047   -3.7963 H   0  0  0  0  0  0  0  0  0  0  0  0
    5.1081   -0.1851   -2.4332 H   0  0  0  0  0  0  0  0  0  0  0  0
    3.5025   -0.6183   -3.0252 H   0  0  0  0  0  0  0  0  0  0  0  0
    6.3997   -2.9136   -2.3047 H   0  0  0  0  0  0  0  0  0  0  0  0
    1.6706   -3.5700    2.1015 H   0  0  0  0  0  0  0  0  0  0  0  0
    2.7107   -4.5277    4.1374 H   0  0  0  0  0  0  0  0  0  0  0  0
    2.2028   -5.6444    2.9380 H   0  0  0  0  0  0  0  0  0  0  0  0
    4.2427   -6.4608    4.2985 H   0  0  0  0  0  0  0  0  0  0  0  0
    5.2761   -7.3718    2.4722 H   0  0  0  0  0  0  0  0  0  0  0  0
    4.6698   -5.7304    0.4684 H   0  0  0  0  0  0  0  0  0  0  0  0
    4.8589   -3.6843    2.9922 H   0  0  0  0  0  0  0  0  0  0  0  0
    6.1064   -4.5905    4.3631 H   0  0  0  0  0  0  0  0  0  0  0  0
    7.9896   -5.1955    2.8037 H   0  0  0  0  0  0  0  0  0  0  0  0
    7.2393   -6.7740    2.9028 H   0  0  0  0  0  0  0  0  0  0  0  0
    6.9417   -6.3768    0.4538 H   0  0  0  0  0  0  0  0  0  0  0  0
    2.3246   -1.5441    2.1980 H   0  0  0  0  0  0  0  0  0  0  0  0
    3.4547   -1.0091    4.0988 H   0  0  0  0  0  0  0  0  0  0  0  0
    2.4438   -2.2543    4.3368 H   0  0  0  0  0  0  0  0  0  0  0  0
    3.7203   -7.0323    1.9012 H   0  0  0  0  0  0  0  0  0  0  0  0
  1  2  1  0
  1 27  1  0
  1 28  1  0
  1 29  1  0
  3  2  1  6
  2 30  1  0
  2 31  1  0
  3 12  1  0
  3 24  1  0
  3  4  1  0
  4 21  1  0
  4  5  2  3
  5  6  1  0
  5 32  1  0
  6 25  1  0
  6  7  1  0
  6 33  1  1
  7  8  1  0
  7 34  1  0
  7 35  1  0
  8 13  1  0
  8  9  1  0
  8 36  1  6
  9 10  1  0
  9 11  1  0
 10 37  1  0
 10 38  1  0
 10 39  1  0
 11 12  2  0
 11 40  1  0
 12 13  1  0
 13 14  1  0
 14 15  2  0
 14 16  1  0
 16 17  1  0
 16 25  1  0
 16 41  1  6
 17 18  1  0
 17 42  1  0
 17 43  1  0
 18 22  1  0
 18 19  1  0
 18 44  1  1
 19 20  1  0
 19 45  1  0
 19 55  1  0
 20 24  1  0
 20 21  1  0
 20 46  1  6
 21 22  1  0
 21 47  1  1
 22 23  1  0
 22 48  1  1
 23 24  1  0
 23 49  1  0
 23 50  1  0
 24 51  1  6
 25 26  1  0
 25 52  1  6
 26 53  1  0
 26 54  1  0
M  CHG  1  19   1
M  END
>  <i_m_ct_stereo_status>  (59) 
1

>  <s_m_source_file>  (59) 
/var/tmp/pbs.5076255.sched01/tmprv8ptrg5/026yimkau.sdf

>  <i_m_source_file_index>  (59) 
28

>  <i_lp_mmshare_version>  (59) 
48012

>  <i_f3d_flags>  (59) 
2

>  <s_epik_input>  (59) 
W0NIM11bQ0gyXVtDQEBdMTIvQz0zW0NASF00W0NASF01W0NAQEhdMltDSDJdW0NAQEhdNFtDQEBIXShbTkhdNSlbQ0gyXVtDQEBIXTZDKD1PKU43W0NASF0oTihbQ0gzXSlbQ0hdPUMxNylbQ0gyXVtDQEhdKC9bQ0hdMylbQ0BASF02W05IMl0=

>  <s_epik_cmdline>  (59) 
J2VwaWtfcHl0aG9uJywgJy1waHQnLCAnMi4wJywgJy1waCcsICc3LjAnLCAnLXRuJywgJzgnLCAnLW1hJywgJzIwMCcsICctaW1hZScsICc8aW5maWxlLm1hZT4nLCAnLW9tYWUnLCAnPG91dGZpbGUubWFlPic=

>  <r_epik_Ionization_Penalty>  (59) 
1.88519

>  <r_epik_Ionization_Penalty_Charging>  (59) 
0.00074205

>  <r_epik_Ionization_Penalty_Neutral>  (59) 
1.88445

>  <r_epik_State_Penalty>  (59) 
2.00448

>  <r_epik_Charging_Adjusted_Penalty>  (59) 
2.00522

>  <i_epik_Tot_Q>  (59) 
1

>  <i_epik_Tot_abs_Q>  (59) 
1

>  <s_epik_Chemistry_Notes>  (59) 
This compound has an imine and may undergo hydrolysis. This compound contains an acetal/aminal-like group ( X-CH(R)-Y where X, Y are N, S, or O) that may be acid/base labile, releasing an aldehyde.

>  <s_lp_Force_Field>  (59) 
OPLS3e

>  <r_lp_Energy>  (59) 
303.87

>  <b_lp_Chiralities_Consistent>  (59) 
0

>  <s_lp_Variant>  (59) 
17:0-4

>  <s_i_glide_gridfile>  (59) 
pfpi4k_grid

>  <i_i_glide_lignum>  (59) 
28

>  <i_i_glide_rotatable_bonds>  (59) 
1

>  <r_i_docking_score>  (59) 
-3.45087

>  <r_i_glide_ligand_efficiency>  (59) 
-0.132726

>  <r_i_glide_ligand_efficiency_sa>  (59) 
-0.393199

>  <r_i_glide_ligand_efficiency_ln>  (59) 
-0.810425

>  <r_i_glide_gscore>  (59) 
-3.45087

>  <r_i_glide_lipo>  (59) 
-0.817754

>  <r_i_glide_hbond>  (59) 
0

>  <r_i_glide_metal>  (59) 
-0

>  <r_i_glide_rewards>  (59) 
-1.03939

>  <r_i_glide_evdw>  (59) 
-22.0504

>  <r_i_glide_ecoul>  (59) 
-2.66564

>  <r_i_glide_erotb>  (59) 
0

>  <r_i_glide_esite>  (59) 
-0.0913518

>  <r_i_glide_emodel>  (59) 
-26.7669

>  <r_i_glide_energy>  (59) 
-24.7161

>  <r_i_glide_einternal>  (59) 
4.68118

>  <r_i_glide_intrahb_reward>  (59) 
-0

>  <i_i_glide_confnum>  (59) 
1

>  <i_i_glide_posenum>  (59) 
3

>  <r_i_glide_eff_state_penalty>  (59) 
0

>  <ligand_id>  (59) 
17

>  <original_smiles>  (59) 
CCC12C3=CC4CC5N(C)C=C1N5C(=O)C(CC1NC5C3C1CC52)C4N

>  <smiles>  (59) 
[H]C1=C2N3C(=O)C4([H])C([H])([H])C5([H])C6([H])C([H])([H])C7([H])C2(C([H])([H])C([H])([H])[H])C(=C([H])C([H])(C([H])([H])C3([H])N1C([H])([H])[H])C4([H])N([H])[H])C6([H])C7([H])[N+]5([H])[H]

$$$$
17:3:1
     RDKit          3D

 55 61  0  0  1  0  0  0  0  0999 V2000
    9.0332   -3.7526    0.2728 C   0  0  0  0  0  0  0  0  0  0  0  0
    7.6906   -3.4974   -0.4173 C   0  0  0  0  0  0  0  0  0  0  0  0
    6.4546   -4.1450    0.2649 C   0  0  1  0  0  0  0  0  0  0  0  0
    6.1242   -3.4643    1.5654 C   0  0  0  0  0  0  0  0  0  0  0  0
    5.5668   -2.2287    1.6372 C   0  0  0  0  0  0  0  0  0  0  0  0
    4.0678   -1.8999    1.9371 C   0  0  1  0  0  0  0  0  0  0  0  0
    3.4062   -1.4167    0.6022 C   0  0  0  0  0  0  0  0  0  0  0  0
    3.1423   -2.5427   -0.4496 C   0  0  1  0  0  0  0  0  0  0  0  0
    3.8483   -2.3815   -1.7164 N   0  0  0  0  0  0  0  0  0  0  0  0
    3.5534   -1.2490   -2.5748 C   0  0  0  0  0  0  0  0  0  0  0  0
    5.0308   -3.0933   -1.6494 C   0  0  0  0  0  0  0  0  0  0  0  0
    5.0789   -3.8768   -0.5685 C   0  0  0  0  0  0  0  0  0  0  0  0
    3.7557   -3.7602    0.0257 N   0  0  0  0  0  0  0  0  0  0  0  0
    2.9543   -4.6020    0.7619 C   0  0  0  0  0  0  0  0  0  0  0  0
    2.3866   -5.5719    0.2653 O   0  0  0  0  0  0  0  0  0  0  0  0
    2.8307   -4.4220    2.3105 C   0  0  1  0  0  0  0  0  0  0  0  0
    3.3808   -5.6782    3.2726 C   0  0  0  0  0  0  0  0  0  0  0  0
    4.9073   -6.3473    3.3222 C   0  0  1  0  0  0  0  0  0  0  0  0
    5.1013   -7.0729    2.0903 N   0  0  0  0  0  0  0  0  0  0  0  0
    5.4108   -5.9152    1.2701 C   0  0  1  0  0  0  0  0  0  0  0  0
    5.5639   -4.6384    2.2433 C   0  0  1  0  0  0  0  0  0  0  0  0
    6.2270   -5.4335    3.2433 C   0  0  2  0  0  0  0  0  0  0  0  0
    7.4173   -5.8015    2.2696 C   0  0  0  0  0  0  0  0  0  0  0  0
    6.7714   -5.6364    0.8188 C   0  0  2  0  0  0  0  0  0  0  0  0
    3.0782   -2.8883    2.7286 C   0  0  1  0  0  0  0  0  0  0  0  0
    3.3157   -2.7753    4.1596 N   0  0  0  0  0  0  0  0  0  0  0  0
    9.8262   -3.3142   -0.3210 H   0  0  0  0  0  0  0  0  0  0  0  0
    9.2448   -4.8169    0.3688 H   0  0  0  0  0  0  0  0  0  0  0  0
    9.0697   -3.3030    1.2644 H   0  0  0  0  0  0  0  0  0  0  0  0
    7.5540   -2.4250   -0.5049 H   0  0  0  0  0  0  0  0  0  0  0  0
    7.7745   -3.8500   -1.4488 H   0  0  0  0  0  0  0  0  0  0  0  0
    5.9861   -1.5047    0.9550 H   0  0  0  0  0  0  0  0  0  0  0  0
    4.1385   -0.9968    2.5360 H   0  0  0  0  0  0  0  0  0  0  0  0
    2.4699   -0.8985    0.8309 H   0  0  0  0  0  0  0  0  0  0  0  0
    4.0361   -0.6525    0.1485 H   0  0  0  0  0  0  0  0  0  0  0  0
    2.0779   -2.6898   -0.6214 H   0  0  0  0  0  0  0  0  0  0  0  0
    3.8989   -1.4388   -3.5886 H   0  0  0  0  0  0  0  0  0  0  0  0
    4.0502   -0.3583   -2.1938 H   0  0  0  0  0  0  0  0  0  0  0  0
    2.4816   -1.0542   -2.6090 H   0  0  0  0  0  0  0  0  0  0  0  0
    5.8561   -2.7526   -2.2585 H   0  0  0  0  0  0  0  0  0  0  0  0
    1.7529   -4.5188    2.4491 H   0  0  0  0  0  0  0  0  0  0  0  0
    3.1609   -5.3940    4.3009 H   0  0  0  0  0  0  0  0  0  0  0  0
    2.7024   -6.5133    3.0773 H   0  0  0  0  0  0  0  0  0  0  0  0
    4.9833   -7.0449    4.1540 H   0  0  0  0  0  0  0  0  0  0  0  0
    5.9162   -7.6604    2.1618 H   0  0  0  0  0  0  0  0  0  0  0  0
    4.8378   -6.0536    0.3641 H   0  0  0  0  0  0  0  0  0  0  0  0
    4.9998   -4.1285    2.9890 H   0  0  0  0  0  0  0  0  0  0  0  0
    6.5045   -4.9180    4.1670 H   0  0  0  0  0  0  0  0  0  0  0  0
    8.2552   -5.1199    2.4407 H   0  0  0  0  0  0  0  0  0  0  0  0
    7.7908   -6.8137    2.4425 H   0  0  0  0  0  0  0  0  0  0  0  0
    7.1776   -6.3215    0.0862 H   0  0  0  0  0  0  0  0  0  0  0  0
    2.0993   -2.4184    2.6069 H   0  0  0  0  0  0  0  0  0  0  0  0
    3.3176   -1.7987    4.4194 H   0  0  0  0  0  0  0  0  0  0  0  0
    2.5595   -3.2122    4.6675 H   0  0  0  0  0  0  0  0  0  0  0  0
    4.2682   -7.5629    1.7970 H   0  0  0  0  0  0  0  0  0  0  0  0
  1  2  1  0
  1 27  1  0
  1 28  1  0
  1 29  1  0
  3  2  1  6
  2 30  1  0
  2 31  1  0
  3 12  1  0
  3 24  1  0
  3  4  1  0
  4 21  1  0
  4  5  2  3
  5  6  1  0
  5 32  1  0
  6 25  1  0
  6  7  1  0
  6 33  1  1
  7  8  1  0
  7 34  1  0
  7 35  1  0
  8 13  1  0
  8  9  1  0
  8 36  1  6
  9 10  1  0
  9 11  1  0
 10 37  1  0
 10 38  1  0
 10 39  1  0
 11 12  2  0
 11 40  1  0
 12 13  1  0
 13 14  1  0
 14 15  2  0
 14 16  1  0
 16 17  1  0
 16 25  1  0
 16 41  1  6
 17 18  1  0
 17 42  1  0
 17 43  1  0
 18 22  1  0
 18 19  1  0
 18 44  1  1
 19 20  1  0
 19 45  1  0
 19 55  1  0
 20 24  1  0
 20 21  1  0
 20 46  1  6
 21 22  1  0
 21 47  1  1
 22 23  1  0
 22 48  1  1
 23 24  1  0
 23 49  1  0
 23 50  1  0
 24 51  1  6
 25 26  1  0
 25 52  1  1
 26 53  1  0
 26 54  1  0
M  CHG  1  19   1
M  END
>  <i_m_ct_stereo_status>  (60) 
1

>  <s_m_source_file>  (60) 
/var/tmp/pbs.5076255.sched01/tmprv8ptrg5/026yimkau.sdf

>  <i_m_source_file_index>  (60) 
28

>  <i_lp_mmshare_version>  (60) 
48012

>  <i_f3d_flags>  (60) 
2

>  <s_epik_input>  (60) 
W0NIM11bQ0gyXVtDQEBdMTIvQz0zW0NASF00W0NASF01W0NAQEhdMltDSDJdW0NAQEhdNFtDQEBIXShbTkhdNSlbQ0gyXVtDQEBIXTZDKD1PKU43W0NASF0oTihbQ0gzXSlbQ0hdPUMxNylbQ0gyXVtDQEhdKC9bQ0hdMylbQ0BASF02W05IMl0=

>  <s_epik_cmdline>  (60) 
J2VwaWtfcHl0aG9uJywgJy1waHQnLCAnMi4wJywgJy1waCcsICc3LjAnLCAnLXRuJywgJzgnLCAnLW1hJywgJzIwMCcsICctaW1hZScsICc8aW5maWxlLm1hZT4nLCAnLW9tYWUnLCAnPG91dGZpbGUubWFlPic=

>  <r_epik_Ionization_Penalty>  (60) 
1.88519

>  <r_epik_Ionization_Penalty_Charging>  (60) 
0.00074205

>  <r_epik_Ionization_Penalty_Neutral>  (60) 
1.88445

>  <r_epik_State_Penalty>  (60) 
2.00448

>  <r_epik_Charging_Adjusted_Penalty>  (60) 
2.00522

>  <i_epik_Tot_Q>  (60) 
1

>  <i_epik_Tot_abs_Q>  (60) 
1

>  <s_epik_Chemistry_Notes>  (60) 
This compound has an imine and may undergo hydrolysis. This compound contains an acetal/aminal-like group ( X-CH(R)-Y where X, Y are N, S, or O) that may be acid/base labile, releasing an aldehyde.

>  <s_lp_Force_Field>  (60) 
OPLS3e

>  <r_lp_Energy>  (60) 
303.87

>  <b_lp_Chiralities_Consistent>  (60) 
0

>  <s_lp_Variant>  (60) 
17:0-4

>  <s_i_glide_gridfile>  (60) 
pfpi4k_grid

>  <i_i_glide_lignum>  (60) 
28

>  <i_i_glide_rotatable_bonds>  (60) 
1

>  <r_i_docking_score>  (60) 
-3.3607

>  <r_i_glide_ligand_efficiency>  (60) 
-0.129258

>  <r_i_glide_ligand_efficiency_sa>  (60) 
-0.382926

>  <r_i_glide_ligand_efficiency_ln>  (60) 
-0.78925

>  <r_i_glide_gscore>  (60) 
-3.3607

>  <r_i_glide_lipo>  (60) 
-0.782163

>  <r_i_glide_hbond>  (60) 
0

>  <r_i_glide_metal>  (60) 
-0

>  <r_i_glide_rewards>  (60) 
-0.998992

>  <r_i_glide_evdw>  (60) 
-22.0768

>  <r_i_glide_ecoul>  (60) 
-2.46313

>  <r_i_glide_erotb>  (60) 
0

>  <r_i_glide_esite>  (60) 
-0.106239

>  <r_i_glide_emodel>  (60) 
-28.5422

>  <r_i_glide_energy>  (60) 
-24.5399

>  <r_i_glide_einternal>  (60) 
1.75749

>  <r_i_glide_intrahb_reward>  (60) 
-0

>  <i_i_glide_confnum>  (60) 
2

>  <i_i_glide_posenum>  (60) 
1

>  <r_i_glide_eff_state_penalty>  (60) 
0

>  <ligand_id>  (60) 
17

>  <original_smiles>  (60) 
CCC12C3=CC4CC5N(C)C=C1N5C(=O)C(CC1NC5C3C1CC52)C4N

>  <smiles>  (60) 
[H]C1=C2N3C(=O)C4([H])C([H])([H])C5([H])C6([H])C([H])([H])C7([H])C2(C([H])([H])C([H])([H])[H])C(=C([H])C([H])(C([H])([H])C3([H])N1C([H])([H])[H])C4([H])N([H])[H])C6([H])C7([H])[N+]5([H])[H]

$$$$
17:3:2
     RDKit          3D

 55 61  0  0  1  0  0  0  0  0999 V2000
    8.7213   -4.0461   -0.7602 C   0  0  0  0  0  0  0  0  0  0  0  0
    7.4120   -3.4501   -1.3109 C   0  0  0  0  0  0  0  0  0  0  0  0
    6.1207   -3.7045   -0.4613 C   0  0  1  0  0  0  0  0  0  0  0  0
    5.8468   -2.5205    0.4305 C   0  0  0  0  0  0  0  0  0  0  0  0
    5.3690   -1.3275   -0.0204 C   0  0  0  0  0  0  0  0  0  0  0  0
    3.8959   -0.8179    0.0602 C   0  0  1  0  0  0  0  0  0  0  0  0
    3.3258   -0.9347   -1.4190 C   0  0  0  0  0  0  0  0  0  0  0  0
    2.9215   -2.3562   -1.8471 C   0  0  1  0  0  0  0  0  0  0  0  0
    3.6146   -2.7751   -3.0379 N   0  0  0  0  0  0  0  0  0  0  0  0
    3.3364   -2.0871   -4.2756 C   0  0  0  0  0  0  0  0  0  0  0  0
    4.7549   -3.4506   -2.6642 C   0  0  0  0  0  0  0  0  0  0  0  0
    4.7667   -3.7106   -1.3589 C   0  0  0  0  0  0  0  0  0  0  0  0
    3.4595   -3.2724   -0.8815 N   0  0  0  0  0  0  0  0  0  0  0  0
    2.6285   -3.6721    0.1248 C   0  0  0  0  0  0  0  0  0  0  0  0
    2.1194   -4.7956    0.1117 O   0  0  0  0  0  0  0  0  0  0  0  0
    2.5063   -2.8459    1.4610 C   0  0  1  0  0  0  0  0  0  0  0  0
    2.9805   -3.6159    2.8713 C   0  0  0  0  0  0  0  0  0  0  0  0
    4.4531   -4.2928    3.2269 C   0  0  1  0  0  0  0  0  0  0  0  0
    4.5805   -5.4763    2.4165 N   0  0  0  0  0  0  0  0  0  0  0  0
    4.9534   -4.8028    1.1864 C   0  0  1  0  0  0  0  0  0  0  0  0
    5.2055   -3.2496    1.5207 C   0  0  1  0  0  0  0  0  0  0  0  0
    5.8199   -3.5895    2.7641 C   0  0  2  0  0  0  0  0  0  0  0  0
    6.9511   -4.4375    2.0508 C   0  0  0  0  0  0  0  0  0  0  0  0
    6.3100   -4.8602    0.6665 C   0  0  2  0  0  0  0  0  0  0  0  0
    2.8638   -1.3014    1.1971 C   0  0  1  0  0  0  0  0  0  0  0  0
    3.1287   -0.6117    2.4541 N   0  0  0  0  0  0  0  0  0  0  0  0
    9.4734   -3.9484   -1.5321 H   0  0  0  0  0  0  0  0  0  0  0  0
    8.6651   -5.1130   -0.5401 H   0  0  0  0  0  0  0  0  0  0  0  0
    9.0632   -3.5115    0.1251 H   0  0  0  0  0  0  0  0  0  0  0  0
    7.5598   -2.3893   -1.4829 H   0  0  0  0  0  0  0  0  0  0  0  0
    7.2996   -3.8547   -2.3136 H   0  0  0  0  0  0  0  0  0  0  0  0
    5.8053   -0.9851   -0.9419 H   0  0  0  0  0  0  0  0  0  0  0  0
    4.0356    0.2409    0.2392 H   0  0  0  0  0  0  0  0  0  0  0  0
    2.4801   -0.3182   -1.7166 H   0  0  0  0  0  0  0  0  0  0  0  0
    4.0627   -0.5092   -2.1020 H   0  0  0  0  0  0  0  0  0  0  0  0
    1.8518   -2.5154   -1.9966 H   0  0  0  0  0  0  0  0  0  0  0  0
    3.5979   -2.7405   -5.0953 H   0  0  0  0  0  0  0  0  0  0  0  0
    3.9016   -1.1535   -4.3238 H   0  0  0  0  0  0  0  0  0  0  0  0
    2.2727   -1.8468   -4.3528 H   0  0  0  0  0  0  0  0  0  0  0  0
    5.5673   -3.4453   -3.3722 H   0  0  0  0  0  0  0  0  0  0  0  0
    1.4378   -2.7803    1.6559 H   0  0  0  0  0  0  0  0  0  0  0  0
    2.8092   -2.9106    3.6819 H   0  0  0  0  0  0  0  0  0  0  0  0
    2.2494   -4.4117    3.0474 H   0  0  0  0  0  0  0  0  0  0  0  0
    4.5172   -4.5644    4.2844 H   0  0  0  0  0  0  0  0  0  0  0  0
    5.3778   -6.0035    2.7301 H   0  0  0  0  0  0  0  0  0  0  0  0
    4.3924   -5.2925    0.4027 H   0  0  0  0  0  0  0  0  0  0  0  0
    4.6990   -2.4343    1.9881 H   0  0  0  0  0  0  0  0  0  0  0  0
    6.1093   -2.7157    3.3489 H   0  0  0  0  0  0  0  0  0  0  0  0
    7.8293   -3.8316    1.8574 H   0  0  0  0  0  0  0  0  0  0  0  0
    7.2753   -5.2901    2.6524 H   0  0  0  0  0  0  0  0  0  0  0  0
    6.6073   -5.8429    0.2907 H   0  0  0  0  0  0  0  0  0  0  0  0
    1.9197   -0.8562    0.8868 H   0  0  0  0  0  0  0  0  0  0  0  0
    3.1856    0.3811    2.2720 H   0  0  0  0  0  0  0  0  0  0  0  0
    2.3423   -0.7357    3.0777 H   0  0  0  0  0  0  0  0  0  0  0  0
    3.7201   -5.9960    2.3421 H   0  0  0  0  0  0  0  0  0  0  0  0
  1  2  1  0
  1 27  1  0
  1 28  1  0
  1 29  1  0
  3  2  1  6
  2 30  1  0
  2 31  1  0
  3 12  1  0
  3 24  1  0
  3  4  1  0
  4 21  1  0
  4  5  2  3
  5  6  1  0
  5 32  1  0
  6 25  1  0
  6  7  1  0
  6 33  1  1
  7  8  1  0
  7 34  1  0
  7 35  1  0
  8 13  1  0
  8  9  1  0
  8 36  1  6
  9 10  1  0
  9 11  1  0
 10 37  1  0
 10 38  1  0
 10 39  1  0
 11 12  2  0
 11 40  1  0
 12 13  1  0
 13 14  1  0
 14 15  2  0
 14 16  1  0
 16 17  1  0
 16 25  1  0
 16 41  1  1
 17 18  1  0
 17 42  1  0
 17 43  1  0
 18 22  1  0
 18 19  1  0
 18 44  1  1
 19 20  1  0
 19 45  1  0
 19 55  1  0
 20 24  1  0
 20 21  1  0
 20 46  1  6
 21 22  1  0
 21 47  1  1
 22 23  1  0
 22 48  1  1
 23 24  1  0
 23 49  1  0
 23 50  1  0
 24 51  1  6
 25 26  1  0
 25 52  1  6
 26 53  1  0
 26 54  1  0
M  CHG  1  19   1
M  END
>  <i_m_ct_stereo_status>  (61) 
1

>  <s_m_source_file>  (61) 
/var/tmp/pbs.5076255.sched01/tmprv8ptrg5/026yimkau.sdf

>  <i_m_source_file_index>  (61) 
28

>  <i_lp_mmshare_version>  (61) 
48012

>  <i_f3d_flags>  (61) 
2

>  <s_epik_input>  (61) 
W0NIM11bQ0gyXVtDQEBdMTIvQz0zW0NASF00W0NASF01W0NAQEhdMltDSDJdW0NAQEhdNFtDQEBIXShbTkhdNSlbQ0gyXVtDQEBIXTZDKD1PKU43W0NASF0oTihbQ0gzXSlbQ0hdPUMxNylbQ0gyXVtDQEhdKC9bQ0hdMylbQ0BASF02W05IMl0=

>  <s_epik_cmdline>  (61) 
J2VwaWtfcHl0aG9uJywgJy1waHQnLCAnMi4wJywgJy1waCcsICc3LjAnLCAnLXRuJywgJzgnLCAnLW1hJywgJzIwMCcsICctaW1hZScsICc8aW5maWxlLm1hZT4nLCAnLW9tYWUnLCAnPG91dGZpbGUubWFlPic=

>  <r_epik_Ionization_Penalty>  (61) 
1.88519

>  <r_epik_Ionization_Penalty_Charging>  (61) 
0.00074205

>  <r_epik_Ionization_Penalty_Neutral>  (61) 
1.88445

>  <r_epik_State_Penalty>  (61) 
2.00448

>  <r_epik_Charging_Adjusted_Penalty>  (61) 
2.00522

>  <i_epik_Tot_Q>  (61) 
1

>  <i_epik_Tot_abs_Q>  (61) 
1

>  <s_epik_Chemistry_Notes>  (61) 
This compound has an imine and may undergo hydrolysis. This compound contains an acetal/aminal-like group ( X-CH(R)-Y where X, Y are N, S, or O) that may be acid/base labile, releasing an aldehyde.

>  <s_lp_Force_Field>  (61) 
OPLS3e

>  <r_lp_Energy>  (61) 
303.87

>  <b_lp_Chiralities_Consistent>  (61) 
0

>  <s_lp_Variant>  (61) 
17:0-4

>  <s_i_glide_gridfile>  (61) 
pfpi4k_grid

>  <i_i_glide_lignum>  (61) 
28

>  <i_i_glide_rotatable_bonds>  (61) 
1

>  <r_i_docking_score>  (61) 
-2.83807

>  <r_i_glide_ligand_efficiency>  (61) 
-0.109157

>  <r_i_glide_ligand_efficiency_sa>  (61) 
-0.323376

>  <r_i_glide_ligand_efficiency_ln>  (61) 
-0.666512

>  <r_i_glide_gscore>  (61) 
-2.83807

>  <r_i_glide_lipo>  (61) 
-0.517849

>  <r_i_glide_hbond>  (61) 
-0.0202808

>  <r_i_glide_metal>  (61) 
-0

>  <r_i_glide_rewards>  (61) 
-1.14368

>  <r_i_glide_evdw>  (61) 
-12.3071

>  <r_i_glide_ecoul>  (61) 
-2.92417

>  <r_i_glide_erotb>  (61) 
0

>  <r_i_glide_esite>  (61) 
-0.102279

>  <r_i_glide_emodel>  (61) 
-15.419

>  <r_i_glide_energy>  (61) 
-15.2313

>  <r_i_glide_einternal>  (61) 
4.83854

>  <r_i_glide_intrahb_reward>  (61) 
-0

>  <i_i_glide_confnum>  (61) 
1

>  <i_i_glide_posenum>  (61) 
13

>  <r_i_glide_eff_state_penalty>  (61) 
0

>  <ligand_id>  (61) 
17

>  <original_smiles>  (61) 
CCC12C3=CC4CC5N(C)C=C1N5C(=O)C(CC1NC5C3C1CC52)C4N

>  <smiles>  (61) 
[H]C1=C2N3C(=O)C4([H])C([H])([H])C5([H])C6([H])C([H])([H])C7([H])C2(C([H])([H])C([H])([H])[H])C(=C([H])C([H])(C([H])([H])C3([H])N1C([H])([H])[H])C4([H])N([H])[H])C6([H])C7([H])[N+]5([H])[H]

$$$$
18:0:0
     RDKit          3D

 68 73  0  0  1  0  0  0  0  0999 V2000
    2.1281    2.0127    5.5762 C   0  0  0  0  0  0  0  0  0  0  0  0
    2.0018    2.2401    4.0515 C   0  0  2  0  0  0  0  0  0  0  0  0
    1.3001    3.5941    3.7869 C   0  0  0  0  0  0  0  0  0  0  0  0
   -0.2358    3.5480    3.8770 C   0  0  0  0  0  0  0  0  0  0  0  0
   -0.8800    4.5930    4.0723 O   0  0  0  0  0  0  0  0  0  0  0  0
   -0.9522    2.2100    3.7189 C   0  0  0  0  0  0  0  0  0  0  0  0
   -2.1916    2.1553    3.8202 O   0  0  0  0  0  0  0  0  0  0  0  0
   -0.1451    0.9337    3.4839 C   0  0  2  0  0  0  0  0  0  0  0  0
   -0.3377   -0.2068    4.4990 C   0  0  2  0  0  0  0  0  0  0  0  0
   -0.3903    0.2152    5.8627 O   0  0  0  0  0  0  0  0  0  0  0  0
   -0.0782   -0.6193    6.8796 C   0  0  0  0  0  0  0  0  0  0  0  0
   -0.0922   -0.2933    8.0623 O   0  0  0  0  0  0  0  0  0  0  0  0
    0.2339   -2.0756    6.4663 C   0  0  1  0  0  0  0  0  0  0  0  0
   -0.9864   -2.7610    6.3089 O   0  0  0  0  0  0  0  0  0  0  0  0
    1.1439   -2.1692    5.2001 C   0  0  2  0  0  0  0  0  0  0  0  0
    0.8422   -3.3908    4.5368 O   0  0  0  0  0  0  0  0  0  0  0  0
    2.6223   -2.1455    5.6246 C   0  0  0  0  0  0  0  0  0  0  0  0
    3.5274   -2.1280    4.3971 C   0  0  0  0  0  0  0  0  0  0  0  0
    3.3283   -0.9613    3.3640 C   0  0  1  0  0  0  0  0  0  0  0  0
    4.3656    0.1191    3.7653 C   0  0  0  0  0  0  0  0  0  0  0  0
    3.5917   -1.5703    1.8973 C   0  0  1  0  0  0  0  0  0  0  0  0
    2.5297   -2.6372    1.4398 C   0  0  0  0  0  0  0  0  0  0  0  0
    3.2281   -3.3754    0.2674 C   0  0  0  0  0  0  0  0  0  0  0  0
    4.5956   -2.6649    0.1659 C   0  0  1  0  0  0  0  0  0  0  0  0
    4.3140   -1.2827   -0.3676 C   0  0  0  0  0  0  0  0  0  0  0  0
    4.5789   -0.8694   -1.5035 O   0  0  0  0  0  0  0  0  0  0  0  0
    3.6151   -0.5194    0.7308 C   0  0  0  0  0  0  0  0  0  0  0  0
    4.9507   -2.3569    1.6360 C   0  0  0  0  0  0  0  0  0  0  0  0
    6.2481   -1.5075    1.7513 C   0  0  0  0  0  0  0  0  0  0  0  0
    5.2198   -3.6781    2.4247 C   0  0  0  0  0  0  0  0  0  0  0  0
    1.8766   -0.3685    3.5408 C   0  0  0  0  0  0  0  0  0  0  0  0
    0.9234   -0.9910    4.2632 C   0  0  0  0  0  0  0  0  0  0  0  0
    1.3810    1.0680    3.1902 C   0  0  2  0  0  0  0  0  0  0  0  0
    1.4947    1.4434    1.7101 C   0  0  0  0  0  0  0  0  0  0  0  0
    1.1893    2.1767    6.0970 H   0  0  0  0  0  0  0  0  0  0  0  0
    2.8491    2.7224    5.9925 H   0  0  0  0  0  0  0  0  0  0  0  0
    2.4760    1.0193    5.8435 H   0  0  0  0  0  0  0  0  0  0  0  0
    3.0141    2.4083    3.6999 H   0  0  0  0  0  0  0  0  0  0  0  0
    1.6547    4.3315    4.5058 H   0  0  0  0  0  0  0  0  0  0  0  0
    1.5683    3.9743    2.8013 H   0  0  0  0  0  0  0  0  0  0  0  0
   -0.5573    0.5257    2.5595 H   0  0  0  0  0  0  0  0  0  0  0  0
   -1.2162   -0.8195    4.2423 H   0  0  0  0  0  0  0  0  0  0  0  0
    0.7650   -2.5480    7.2920 H   0  0  0  0  0  0  0  0  0  0  0  0
   -0.7445   -3.6455    6.0743 H   0  0  0  0  0  0  0  0  0  0  0  0
    1.4213   -3.4543    3.7912 H   0  0  0  0  0  0  0  0  0  0  0  0
    2.8386   -1.2880    6.2810 H   0  0  0  0  0  0  0  0  0  0  0  0
    2.8512   -3.0401    6.2072 H   0  0  0  0  0  0  0  0  0  0  0  0
    4.5658   -2.1470    4.7581 H   0  0  0  0  0  0  0  0  0  0  0  0
    3.3424   -3.0833    3.9409 H   0  0  0  0  0  0  0  0  0  0  0  0
    5.3746   -0.2603    3.8137 H   0  0  0  0  0  0  0  0  0  0  0  0
    4.1738    0.5521    4.7498 H   0  0  0  0  0  0  0  0  0  0  0  0
    4.3658    0.9297    3.0533 H   0  0  0  0  0  0  0  0  0  0  0  0
    2.2562   -3.3711    2.2023 H   0  0  0  0  0  0  0  0  0  0  0  0
    1.5942   -2.1629    1.1093 H   0  0  0  0  0  0  0  0  0  0  0  0
    3.3776   -4.4274    0.5054 H   0  0  0  0  0  0  0  0  0  0  0  0
    2.6502   -3.3573   -0.6622 H   0  0  0  0  0  0  0  0  0  0  0  0
    5.3654   -3.1909   -0.4001 H   0  0  0  0  0  0  0  0  0  0  0  0
    2.6337   -0.2641    0.3442 H   0  0  0  0  0  0  0  0  0  0  0  0
    4.2034    0.3818    0.9533 H   0  0  0  0  0  0  0  0  0  0  0  0
    7.0435   -1.9151    1.1397 H   0  0  0  0  0  0  0  0  0  0  0  0
    6.5983   -1.4749    2.7841 H   0  0  0  0  0  0  0  0  0  0  0  0
    6.1584   -0.4608    1.4783 H   0  0  0  0  0  0  0  0  0  0  0  0
    5.9395   -4.2928    1.9021 H   0  0  0  0  0  0  0  0  0  0  0  0
    4.3184   -4.2875    2.5653 H   0  0  0  0  0  0  0  0  0  0  0  0
    5.5874   -3.4664    3.4280 H   0  0  0  0  0  0  0  0  0  0  0  0
    0.9387    2.3454    1.4674 H   0  0  0  0  0  0  0  0  0  0  0  0
    1.0947    0.6613    1.0645 H   0  0  0  0  0  0  0  0  0  0  0  0
    2.5241    1.6681    1.4345 H   0  0  0  0  0  0  0  0  0  0  0  0
  1  2  1  0
  1 35  1  0
  1 36  1  0
  1 37  1  0
  2 33  1  0
  2  3  1  0
  2 38  1  6
  3  4  1  0
  3 39  1  0
  3 40  1  0
  4  5  2  0
  4  6  1  0
  6  7  2  0
  6  8  1  0
  8 33  1  0
  8  9  1  0
  8 41  1  6
  9 32  1  0
  9 10  1  0
  9 42  1  6
 10 11  1  0
 11 12  2  0
 11 13  1  0
 13 14  1  0
 13 15  1  0
 13 43  1  1
 14 44  1  0
 15 32  1  0
 15 16  1  6
 15 17  1  0
 16 45  1  0
 17 18  1  0
 17 46  1  0
 17 47  1  0
 18 19  1  0
 18 48  1  0
 18 49  1  0
 19 20  1  1
 19 21  1  0
 19 31  1  0
 20 50  1  0
 20 51  1  0
 20 52  1  0
 21 27  1  6
 21 28  1  0
 21 22  1  0
 22 23  1  0
 22 53  1  0
 22 54  1  0
 23 24  1  0
 23 55  1  0
 23 56  1  0
 24 25  1  0
 24 28  1  0
 24 57  1  6
 25 26  2  0
 25 27  1  0
 27 58  1  0
 27 59  1  0
 28 29  1  0
 28 30  1  0
 29 60  1  0
 29 61  1  0
 29 62  1  0
 30 63  1  0
 30 64  1  0
 30 65  1  0
 31 32  2  0
 31 33  1  0
 33 34  1  6
 34 66  1  0
 34 67  1  0
 34 68  1  0
M  END
>  <i_m_ct_stereo_status>  (62) 
1

>  <s_m_source_file>  (62) 
/var/tmp/pbs.5076255.sched01/tmprv8ptrg5/026yimkau.sdf

>  <i_m_source_file_index>  (62) 
29

>  <i_lp_mmshare_version>  (62) 
48012

>  <i_f3d_flags>  (62) 
0

>  <s_epik_input>  (62) 
W0NIM11bQ0BASF0xW0NIMl1DKD1PKUMoPU8pW0NASF0oW0NAQEhdMk9DKD1PKVtDQEhdM1tPSF0pW0NAXTEoW0NIM10pQyg9QzJbQ0BdMzRbT0hdKVtDQEBdKFtDSDNdKShbQ0gyXVtDSDJdNClbQ0BAXTU2W0NIMl1bQ0gyXVtDQEBIXShDKD1PKVtDSDJdNSlDNihbQ0gzXSlbQ0gzXQ==

>  <s_epik_cmdline>  (62) 
J2VwaWtfcHl0aG9uJywgJy1waHQnLCAnMi4wJywgJy1waCcsICc3LjAnLCAnLXRuJywgJzgnLCAnLW1hJywgJzIwMCcsICctaW1hZScsICc8aW5maWxlLm1hZT4nLCAnLW9tYWUnLCAnPG91dGZpbGUubWFlPic=

>  <r_lp_tautomer_probability>  (62) 
1

>  <r_epik_Ionization_Penalty>  (62) 
0.00175486

>  <r_epik_Ionization_Penalty_Charging>  (62) 
0

>  <r_epik_Ionization_Penalty_Neutral>  (62) 
0.00175486

>  <r_epik_State_Penalty>  (62) 
0.00118498

>  <r_epik_Charging_Adjusted_Penalty>  (62) 
0.00118498

>  <i_epik_Tot_Q>  (62) 
0

>  <i_epik_Tot_abs_Q>  (62) 
0

>  <s_epik_Chemistry_Notes>  (62) 
This compound has an ester and may undergo hydrolysis at high or low pH.

>  <s_lp_Force_Field>  (62) 
OPLS3e

>  <r_lp_Energy>  (62) 
81.6954

>  <b_lp_Chiralities_Consistent>  (62) 
1

>  <s_lp_Variant>  (62) 
18:0-1

>  <s_i_glide_gridfile>  (62) 
pfpi4k_grid

>  <i_i_glide_lignum>  (62) 
29

>  <i_i_glide_rotatable_bonds>  (62) 
3

>  <r_i_docking_score>  (62) 
-2.95311

>  <r_i_glide_ligand_efficiency>  (62) 
-0.0868563

>  <r_i_glide_ligand_efficiency_sa>  (62) 
-0.281381

>  <r_i_glide_ligand_efficiency_ln>  (62) 
-0.652426

>  <r_i_glide_gscore>  (62) 
-2.95311

>  <r_i_glide_lipo>  (62) 
-0.251878

>  <r_i_glide_hbond>  (62) 
-0.0280084

>  <r_i_glide_metal>  (62) 
-0

>  <r_i_glide_rewards>  (62) 
-0.200764

>  <r_i_glide_evdw>  (62) 
-30.5627

>  <r_i_glide_ecoul>  (62) 
-5.62711

>  <r_i_glide_erotb>  (62) 
0.0912554

>  <r_i_glide_esite>  (62) 
-0.191516

>  <r_i_glide_emodel>  (62) 
-39.891

>  <r_i_glide_energy>  (62) 
-36.1899

>  <r_i_glide_einternal>  (62) 
6.66514

>  <r_i_glide_intrahb_reward>  (62) 
-0

>  <i_i_glide_confnum>  (62) 
2

>  <i_i_glide_posenum>  (62) 
31

>  <r_i_glide_eff_state_penalty>  (62) 
0

>  <ligand_id>  (62) 
18

>  <original_smiles>  (62) 
CC1CC(=O)C(=O)C2C3OC(=O)C(O)C4(O)CCC(C)(C56CCC(C(=O)C5)C6(C)C)C(=C34)C12C

>  <smiles>  (62) 
[H]OC1([H])C(=O)OC2([H])C3=C(C4(C([H])([H])[H])C2([H])C(=O)C(=O)C([H])([H])C4([H])C([H])([H])[H])C(C([H])([H])[H])(C24C([H])([H])C(=O)C([H])(C([H])([H])C2([H])[H])C4(C([H])([H])[H])C([H])([H])[H])C([H])([H])C([H])([H])C31O[H]

$$$$
18:0:1
     RDKit          3D

 68 73  0  0  1  0  0  0  0  0999 V2000
    4.5679   -1.6094    5.1797 C   0  0  0  0  0  0  0  0  0  0  0  0
    4.0816   -0.5705    4.1378 C   0  0  2  0  0  0  0  0  0  0  0  0
    3.6792    0.7362    4.8713 C   0  0  0  0  0  0  0  0  0  0  0  0
    2.2668    0.7199    5.4683 C   0  0  0  0  0  0  0  0  0  0  0  0
    1.9856    1.5351    6.3473 O   0  0  0  0  0  0  0  0  0  0  0  0
    1.2257   -0.2616    4.9458 C   0  0  0  0  0  0  0  0  0  0  0  0
    0.0791   -0.3095    5.4133 O   0  0  0  0  0  0  0  0  0  0  0  0
    1.6205   -1.2304    3.8228 C   0  0  2  0  0  0  0  0  0  0  0  0
    1.4429   -2.7370    4.1119 C   0  0  2  0  0  0  0  0  0  0  0  0
    1.8567   -3.1413    5.4278 O   0  0  0  0  0  0  0  0  0  0  0  0
    2.2248   -4.4002    5.7057 C   0  0  0  0  0  0  0  0  0  0  0  0
    2.6510   -4.7916    6.7876 O   0  0  0  0  0  0  0  0  0  0  0  0
    2.0518   -5.3962    4.5425 C   0  0  1  0  0  0  0  0  0  0  0  0
    0.6873   -5.8191    4.5032 O   0  0  0  0  0  0  0  0  0  0  0  0
    2.5394   -4.8263    3.1517 C   0  0  2  0  0  0  0  0  0  0  0  0
    1.7501   -5.4620    2.1294 O   0  0  0  0  0  0  0  0  0  0  0  0
    4.0360   -5.1169    2.9613 C   0  0  0  0  0  0  0  0  0  0  0  0
    4.5385   -4.4590    1.6878 C   0  0  0  0  0  0  0  0  0  0  0  0
    4.3451   -2.9081    1.5464 C   0  0  1  0  0  0  0  0  0  0  0  0
    5.6923   -2.2931    1.9806 C   0  0  0  0  0  0  0  0  0  0  0  0
    4.0576   -2.6033   -0.0167 C   0  0  1  0  0  0  0  0  0  0  0  0
    2.6667   -3.1717   -0.5112 C   0  0  0  0  0  0  0  0  0  0  0  0
    2.7868   -3.1502   -2.0642 C   0  0  0  0  0  0  0  0  0  0  0  0
    4.2224   -2.6484   -2.2967 C   0  0  1  0  0  0  0  0  0  0  0  0
    4.1852   -1.1973   -1.9486 C   0  0  0  0  0  0  0  0  0  0  0  0
    4.2188   -0.2679   -2.7532 O   0  0  0  0  0  0  0  0  0  0  0  0
    4.0379   -1.0979   -0.4522 C   0  0  0  0  0  0  0  0  0  0  0  0
    5.0216   -3.2106   -1.1042 C   0  0  0  0  0  0  0  0  0  0  0  0
    6.5039   -2.7281   -1.0777 C   0  0  0  0  0  0  0  0  0  0  0  0
    5.0641   -4.7368   -1.2140 C   0  0  0  0  0  0  0  0  0  0  0  0
    3.2031   -2.4490    2.4926 C   0  0  0  0  0  0  0  0  0  0  0  0
    2.3621   -3.3303    3.0836 C   0  0  0  0  0  0  0  0  0  0  0  0
    2.9885   -1.0400    3.0971 C   0  0  2  0  0  0  0  0  0  0  0  0
    2.7807    0.1062    2.0857 C   0  0  0  0  0  0  0  0  0  0  0  0
    3.8758   -1.7126    6.0160 H   0  0  0  0  0  0  0  0  0  0  0  0
    5.5292   -1.2897    5.6042 H   0  0  0  0  0  0  0  0  0  0  0  0
    4.7224   -2.6060    4.7699 H   0  0  0  0  0  0  0  0  0  0  0  0
    4.9765   -0.2896    3.5840 H   0  0  0  0  0  0  0  0  0  0  0  0
    4.4032    0.9320    5.6724 H   0  0  0  0  0  0  0  0  0  0  0  0
    3.7644    1.5813    4.1841 H   0  0  0  0  0  0  0  0  0  0  0  0
    0.8783   -1.0368    3.0420 H   0  0  0  0  0  0  0  0  0  0  0  0
    0.3964   -3.0499    3.9340 H   0  0  0  0  0  0  0  0  0  0  0  0
    2.6530   -6.2841    4.7655 H   0  0  0  0  0  0  0  0  0  0  0  0
    0.6600   -6.5606    3.9226 H   0  0  0  0  0  0  0  0  0  0  0  0
    2.0832   -6.3354    1.9942 H   0  0  0  0  0  0  0  0  0  0  0  0
    4.6057   -4.7896    3.8357 H   0  0  0  0  0  0  0  0  0  0  0  0
    4.1904   -6.1895    2.9056 H   0  0  0  0  0  0  0  0  0  0  0  0
    5.5830   -4.7522    1.5377 H   0  0  0  0  0  0  0  0  0  0  0  0
    3.9966   -4.9897    0.9347 H   0  0  0  0  0  0  0  0  0  0  0  0
    6.5293   -2.6869    1.4787 H   0  0  0  0  0  0  0  0  0  0  0  0
    5.8914   -2.4619    3.0427 H   0  0  0  0  0  0  0  0  0  0  0  0
    5.7233   -1.2112    1.8526 H   0  0  0  0  0  0  0  0  0  0  0  0
    2.4380   -4.1992   -0.1926 H   0  0  0  0  0  0  0  0  0  0  0  0
    1.8703   -2.5486   -0.1321 H   0  0  0  0  0  0  0  0  0  0  0  0
    2.6765   -4.1441   -2.4686 H   0  0  0  0  0  0  0  0  0  0  0  0
    2.0068   -2.5662   -2.5551 H   0  0  0  0  0  0  0  0  0  0  0  0
    4.6374   -2.8427   -3.2812 H   0  0  0  0  0  0  0  0  0  0  0  0
    3.0901   -0.6088   -0.2641 H   0  0  0  0  0  0  0  0  0  0  0  0
    4.8664   -0.5222   -0.0491 H   0  0  0  0  0  0  0  0  0  0  0  0
    6.9583   -2.7849   -2.0632 H   0  0  0  0  0  0  0  0  0  0  0  0
    7.1071   -3.3042   -0.3894 H   0  0  0  0  0  0  0  0  0  0  0  0
    6.6307   -1.6970   -0.7527 H   0  0  0  0  0  0  0  0  0  0  0  0
    5.1441   -4.9745   -2.2547 H   0  0  0  0  0  0  0  0  0  0  0  0
    4.1336   -5.2584   -0.9934 H   0  0  0  0  0  0  0  0  0  0  0  0
    5.7923   -5.1886   -0.5477 H   0  0  0  0  0  0  0  0  0  0  0  0
    2.4011    1.0222    2.5435 H   0  0  0  0  0  0  0  0  0  0  0  0
    2.0520   -0.1733    1.3285 H   0  0  0  0  0  0  0  0  0  0  0  0
    3.7122    0.3948    1.6078 H   0  0  0  0  0  0  0  0  0  0  0  0
  1  2  1  0
  1 35  1  0
  1 36  1  0
  1 37  1  0
  2 33  1  0
  2  3  1  0
  2 38  1  6
  3  4  1  0
  3 39  1  0
  3 40  1  0
  4  5  2  0
  4  6  1  0
  6  7  2  0
  6  8  1  0
  8 33  1  0
  8  9  1  0
  8 41  1  6
  9 32  1  0
  9 10  1  0
  9 42  1  6
 10 11  1  0
 11 12  2  0
 11 13  1  0
 13 14  1  0
 13 15  1  0
 13 43  1  1
 14 44  1  0
 15 32  1  0
 15 16  1  6
 15 17  1  0
 16 45  1  0
 17 18  1  0
 17 46  1  0
 17 47  1  0
 18 19  1  0
 18 48  1  0
 18 49  1  0
 19 20  1  1
 19 21  1  0
 19 31  1  0
 20 50  1  0
 20 51  1  0
 20 52  1  0
 21 27  1  1
 21 28  1  0
 21 22  1  0
 22 23  1  0
 22 53  1  0
 22 54  1  0
 23 24  1  0
 23 55  1  0
 23 56  1  0
 24 25  1  0
 24 28  1  0
 24 57  1  6
 25 26  2  0
 25 27  1  0
 27 58  1  0
 27 59  1  0
 28 29  1  0
 28 30  1  0
 29 60  1  0
 29 61  1  0
 29 62  1  0
 30 63  1  0
 30 64  1  0
 30 65  1  0
 31 32  2  0
 31 33  1  0
 33 34  1  6
 34 66  1  0
 34 67  1  0
 34 68  1  0
M  END
>  <i_m_ct_stereo_status>  (63) 
1

>  <s_m_source_file>  (63) 
/var/tmp/pbs.5076255.sched01/tmprv8ptrg5/026yimkau.sdf

>  <i_m_source_file_index>  (63) 
29

>  <i_lp_mmshare_version>  (63) 
48012

>  <i_f3d_flags>  (63) 
0

>  <s_epik_input>  (63) 
W0NIM11bQ0BASF0xW0NIMl1DKD1PKUMoPU8pW0NASF0oW0NAQEhdMk9DKD1PKVtDQEhdM1tPSF0pW0NAXTEoW0NIM10pQyg9QzJbQ0BdMzRbT0hdKVtDQEBdKFtDSDNdKShbQ0gyXVtDSDJdNClbQ0BAXTU2W0NIMl1bQ0gyXVtDQEBIXShDKD1PKVtDSDJdNSlDNihbQ0gzXSlbQ0gzXQ==

>  <s_epik_cmdline>  (63) 
J2VwaWtfcHl0aG9uJywgJy1waHQnLCAnMi4wJywgJy1waCcsICc3LjAnLCAnLXRuJywgJzgnLCAnLW1hJywgJzIwMCcsICctaW1hZScsICc8aW5maWxlLm1hZT4nLCAnLW9tYWUnLCAnPG91dGZpbGUubWFlPic=

>  <r_lp_tautomer_probability>  (63) 
1

>  <r_epik_Ionization_Penalty>  (63) 
0.00175486

>  <r_epik_Ionization_Penalty_Charging>  (63) 
0

>  <r_epik_Ionization_Penalty_Neutral>  (63) 
0.00175486

>  <r_epik_State_Penalty>  (63) 
0.00118498

>  <r_epik_Charging_Adjusted_Penalty>  (63) 
0.00118498

>  <i_epik_Tot_Q>  (63) 
0

>  <i_epik_Tot_abs_Q>  (63) 
0

>  <s_epik_Chemistry_Notes>  (63) 
This compound has an ester and may undergo hydrolysis at high or low pH.

>  <s_lp_Force_Field>  (63) 
OPLS3e

>  <r_lp_Energy>  (63) 
81.6954

>  <b_lp_Chiralities_Consistent>  (63) 
1

>  <s_lp_Variant>  (63) 
18:0-1

>  <s_i_glide_gridfile>  (63) 
pfpi4k_grid

>  <i_i_glide_lignum>  (63) 
29

>  <i_i_glide_rotatable_bonds>  (63) 
3

>  <r_i_docking_score>  (63) 
-2.13858

>  <r_i_glide_ligand_efficiency>  (63) 
-0.0628993

>  <r_i_glide_ligand_efficiency_sa>  (63) 
-0.203769

>  <r_i_glide_ligand_efficiency_ln>  (63) 
-0.472472

>  <r_i_glide_gscore>  (63) 
-2.13858

>  <r_i_glide_lipo>  (63) 
-0.214087

>  <r_i_glide_hbond>  (63) 
0

>  <r_i_glide_metal>  (63) 
-0

>  <r_i_glide_rewards>  (63) 
-0.200764

>  <r_i_glide_evdw>  (63) 
-24.2641

>  <r_i_glide_ecoul>  (63) 
-3.74757

>  <r_i_glide_erotb>  (63) 
0.0912554

>  <r_i_glide_esite>  (63) 
-0.0396392

>  <r_i_glide_emodel>  (63) 
-28.7183

>  <r_i_glide_energy>  (63) 
-28.0117

>  <r_i_glide_einternal>  (63) 
6.9746

>  <r_i_glide_intrahb_reward>  (63) 
-0

>  <i_i_glide_confnum>  (63) 
2

>  <i_i_glide_posenum>  (63) 
10

>  <r_i_glide_eff_state_penalty>  (63) 
0

>  <ligand_id>  (63) 
18

>  <original_smiles>  (63) 
CC1CC(=O)C(=O)C2C3OC(=O)C(O)C4(O)CCC(C)(C56CCC(C(=O)C5)C6(C)C)C(=C34)C12C

>  <smiles>  (63) 
[H]OC1([H])C(=O)OC2([H])C3=C(C4(C([H])([H])[H])C2([H])C(=O)C(=O)C([H])([H])C4([H])C([H])([H])[H])C(C([H])([H])[H])(C24C([H])([H])C(=O)C([H])(C([H])([H])C2([H])[H])C4(C([H])([H])[H])C([H])([H])[H])C([H])([H])C([H])([H])C31O[H]

$$$$
18:0:2
     RDKit          3D

 68 73  0  0  1  0  0  0  0  0999 V2000
    5.0352   -4.4104   -1.6394 C   0  0  0  0  0  0  0  0  0  0  0  0
    3.9596   -3.8003   -0.7363 C   0  0  2  0  0  0  0  0  0  0  0  0
    3.4250   -2.5259   -1.4132 C   0  0  0  0  0  0  0  0  0  0  0  0
    4.3202   -1.2953   -1.2321 C   0  0  0  0  0  0  0  0  0  0  0  0
    4.2627   -0.3791   -2.0484 O   0  0  0  0  0  0  0  0  0  0  0  0
    5.2977   -1.2408   -0.0384 C   0  0  0  0  0  0  0  0  0  0  0  0
    6.0545   -0.2873    0.1408 O   0  0  0  0  0  0  0  0  0  0  0  0
    5.3866   -2.4354    0.9026 C   0  0  2  0  0  0  0  0  0  0  0  0
    6.7663   -3.0751    1.0374 C   0  0  2  0  0  0  0  0  0  0  0  0
    7.4488   -3.2325   -0.1877 O   0  0  0  0  0  0  0  0  0  0  0  0
    8.4321   -4.1139   -0.3277 C   0  0  0  0  0  0  0  0  0  0  0  0
    9.0376   -4.2282   -1.3764 O   0  0  0  0  0  0  0  0  0  0  0  0
    8.7859   -4.9895    0.9154 C   0  0  1  0  0  0  0  0  0  0  0  0
    9.6684   -4.2190    1.6806 O   0  0  0  0  0  0  0  0  0  0  0  0
    7.5473   -5.4220    1.7413 C   0  0  2  0  0  0  0  0  0  0  0  0
    7.9336   -5.6100    3.0888 O   0  0  0  0  0  0  0  0  0  0  0  0
    7.0537   -6.7587    1.2208 C   0  0  0  0  0  0  0  0  0  0  0  0
    5.7504   -7.1612    1.8901 C   0  0  0  0  0  0  0  0  0  0  0  0
    4.5442   -6.1623    1.8110 C   0  0  1  0  0  0  0  0  0  0  0  0
    3.6871   -6.6406    0.6282 C   0  0  0  0  0  0  0  0  0  0  0  0
    3.7658   -6.2361    3.2101 C   0  0  1  0  0  0  0  0  0  0  0  0
    4.5849   -5.6947    4.4445 C   0  0  0  0  0  0  0  0  0  0  0  0
    3.8448   -6.3039    5.6621 C   0  0  0  0  0  0  0  0  0  0  0  0
    2.6731   -7.0862    5.0163 C   0  0  1  0  0  0  0  0  0  0  0  0
    1.7220   -6.0476    4.4484 C   0  0  0  0  0  0  0  0  0  0  0  0
    0.6157   -5.7309    4.8872 O   0  0  0  0  0  0  0  0  0  0  0  0
    2.4082   -5.4548    3.2455 C   0  0  0  0  0  0  0  0  0  0  0  0
    3.3091   -7.6564    3.7328 C   0  0  0  0  0  0  0  0  0  0  0  0
    2.2715   -8.4038    2.8390 C   0  0  0  0  0  0  0  0  0  0  0  0
    4.4190   -8.6923    4.0815 C   0  0  0  0  0  0  0  0  0  0  0  0
    5.0820   -4.7334    1.4876 C   0  0  0  0  0  0  0  0  0  0  0  0
    6.3944   -4.4293    1.5829 C   0  0  0  0  0  0  0  0  0  0  0  0
    4.3280   -3.5640    0.7759 C   0  0  2  0  0  0  0  0  0  0  0  0
    3.0756   -3.0553    1.5081 C   0  0  0  0  0  0  0  0  0  0  0  0
    5.8080   -3.6940   -1.9413 H   0  0  0  0  0  0  0  0  0  0  0  0
    4.6039   -4.7933   -2.5620 H   0  0  0  0  0  0  0  0  0  0  0  0
    5.5267   -5.2410   -1.1240 H   0  0  0  0  0  0  0  0  0  0  0  0
    3.1164   -4.4889   -0.7667 H   0  0  0  0  0  0  0  0  0  0  0  0
    3.3298   -2.6909   -2.4850 H   0  0  0  0  0  0  0  0  0  0  0  0
    2.4271   -2.2903   -1.0500 H   0  0  0  0  0  0  0  0  0  0  0  0
    5.2346   -2.0066    1.8925 H   0  0  0  0  0  0  0  0  0  0  0  0
    7.4028   -2.5481    1.7126 H   0  0  0  0  0  0  0  0  0  0  0  0
    9.3167   -5.8798    0.5887 H   0  0  0  0  0  0  0  0  0  0  0  0
    9.7198   -4.5739    2.5790 H   0  0  0  0  0  0  0  0  0  0  0  0
    7.1777   -5.9376    3.5523 H   0  0  0  0  0  0  0  0  0  0  0  0
    6.8834   -6.6277    0.1576 H   0  0  0  0  0  0  0  0  0  0  0  0
    7.7910   -7.5570    1.3914 H   0  0  0  0  0  0  0  0  0  0  0  0
    5.4788   -8.1427    1.5124 H   0  0  0  0  0  0  0  0  0  0  0  0
    6.0951   -7.3025    2.9095 H   0  0  0  0  0  0  0  0  0  0  0  0
    3.4230   -7.7002    0.7104 H   0  0  0  0  0  0  0  0  0  0  0  0
    4.2259   -6.6313   -0.3156 H   0  0  0  0  0  0  0  0  0  0  0  0
    2.7559   -6.1044    0.5215 H   0  0  0  0  0  0  0  0  0  0  0  0
    5.6230   -6.0324    4.4738 H   0  0  0  0  0  0  0  0  0  0  0  0
    4.6345   -4.6041    4.4859 H   0  0  0  0  0  0  0  0  0  0  0  0
    4.4888   -6.9923    6.2133 H   0  0  0  0  0  0  0  0  0  0  0  0
    3.5221   -5.5473    6.3789 H   0  0  0  0  0  0  0  0  0  0  0  0
    2.1843   -7.8238    5.6538 H   0  0  0  0  0  0  0  0  0  0  0  0
    2.5017   -4.3943    3.4678 H   0  0  0  0  0  0  0  0  0  0  0  0
    1.7903   -5.6108    2.3641 H   0  0  0  0  0  0  0  0  0  0  0  0
    1.6776   -9.1067    3.4189 H   0  0  0  0  0  0  0  0  0  0  0  0
    2.7644   -9.0022    2.0773 H   0  0  0  0  0  0  0  0  0  0  0  0
    1.5689   -7.7553    2.3143 H   0  0  0  0  0  0  0  0  0  0  0  0
    4.0578   -9.4619    4.7648 H   0  0  0  0  0  0  0  0  0  0  0  0
    5.2980   -8.2591    4.5521 H   0  0  0  0  0  0  0  0  0  0  0  0
    4.7651   -9.2150    3.1896 H   0  0  0  0  0  0  0  0  0  0  0  0
    2.7271   -2.0922    1.1373 H   0  0  0  0  0  0  0  0  0  0  0  0
    3.2967   -2.8860    2.5617 H   0  0  0  0  0  0  0  0  0  0  0  0
    2.2381   -3.7357    1.3764 H   0  0  0  0  0  0  0  0  0  0  0  0
  1  2  1  0
  1 35  1  0
  1 36  1  0
  1 37  1  0
  2 33  1  0
  2  3  1  0
  2 38  1  1
  3  4  1  0
  3 39  1  0
  3 40  1  0
  4  5  2  0
  4  6  1  0
  6  7  2  0
  6  8  1  0
  8 33  1  0
  8  9  1  0
  8 41  1  1
  9 32  1  0
  9 10  1  0
  9 42  1  1
 10 11  1  0
 11 12  2  0
 11 13  1  0
 13 14  1  0
 13 15  1  0
 13 43  1  6
 14 44  1  0
 15 32  1  0
 15 16  1  1
 15 17  1  0
 16 45  1  0
 17 18  1  0
 17 46  1  0
 17 47  1  0
 18 19  1  0
 18 48  1  0
 18 49  1  0
 19 20  1  6
 19 21  1  0
 19 31  1  0
 20 50  1  0
 20 51  1  0
 20 52  1  0
 21 27  1  6
 21 28  1  0
 21 22  1  0
 22 23  1  0
 22 53  1  0
 22 54  1  0
 23 24  1  0
 23 55  1  0
 23 56  1  0
 24 25  1  0
 24 28  1  0
 24 57  1  1
 25 26  2  0
 25 27  1  0
 27 58  1  0
 27 59  1  0
 28 29  1  0
 28 30  1  0
 29 60  1  0
 29 61  1  0
 29 62  1  0
 30 63  1  0
 30 64  1  0
 30 65  1  0
 31 32  2  0
 31 33  1  0
 33 34  1  1
 34 66  1  0
 34 67  1  0
 34 68  1  0
M  END
>  <i_m_ct_stereo_status>  (64) 
1

>  <s_m_source_file>  (64) 
/var/tmp/pbs.5076255.sched01/tmprv8ptrg5/026yimkau.sdf

>  <i_m_source_file_index>  (64) 
29

>  <i_lp_mmshare_version>  (64) 
48012

>  <i_f3d_flags>  (64) 
0

>  <s_epik_input>  (64) 
W0NIM11bQ0BASF0xW0NIMl1DKD1PKUMoPU8pW0NASF0oW0NAQEhdMk9DKD1PKVtDQEhdM1tPSF0pW0NAXTEoW0NIM10pQyg9QzJbQ0BdMzRbT0hdKVtDQEBdKFtDSDNdKShbQ0gyXVtDSDJdNClbQ0BAXTU2W0NIMl1bQ0gyXVtDQEBIXShDKD1PKVtDSDJdNSlDNihbQ0gzXSlbQ0gzXQ==

>  <s_epik_cmdline>  (64) 
J2VwaWtfcHl0aG9uJywgJy1waHQnLCAnMi4wJywgJy1waCcsICc3LjAnLCAnLXRuJywgJzgnLCAnLW1hJywgJzIwMCcsICctaW1hZScsICc8aW5maWxlLm1hZT4nLCAnLW9tYWUnLCAnPG91dGZpbGUubWFlPic=

>  <r_lp_tautomer_probability>  (64) 
1

>  <r_epik_Ionization_Penalty>  (64) 
0.00175486

>  <r_epik_Ionization_Penalty_Charging>  (64) 
0

>  <r_epik_Ionization_Penalty_Neutral>  (64) 
0.00175486

>  <r_epik_State_Penalty>  (64) 
0.00118498

>  <r_epik_Charging_Adjusted_Penalty>  (64) 
0.00118498

>  <i_epik_Tot_Q>  (64) 
0

>  <i_epik_Tot_abs_Q>  (64) 
0

>  <s_epik_Chemistry_Notes>  (64) 
This compound has an ester and may undergo hydrolysis at high or low pH.

>  <s_lp_Force_Field>  (64) 
OPLS3e

>  <r_lp_Energy>  (64) 
81.6954

>  <b_lp_Chiralities_Consistent>  (64) 
1

>  <s_lp_Variant>  (64) 
18:0-1

>  <s_i_glide_gridfile>  (64) 
pfpi4k_grid

>  <i_i_glide_lignum>  (64) 
29

>  <i_i_glide_rotatable_bonds>  (64) 
3

>  <r_i_docking_score>  (64) 
-1.87955

>  <r_i_glide_ligand_efficiency>  (64) 
-0.0552809

>  <r_i_glide_ligand_efficiency_sa>  (64) 
-0.179089

>  <r_i_glide_ligand_efficiency_ln>  (64) 
-0.415245

>  <r_i_glide_gscore>  (64) 
-1.87955

>  <r_i_glide_lipo>  (64) 
-0.572082

>  <r_i_glide_hbond>  (64) 
-0.0569787

>  <r_i_glide_metal>  (64) 
-0

>  <r_i_glide_rewards>  (64) 
-0.203587

>  <r_i_glide_evdw>  (64) 
-11.393

>  <r_i_glide_ecoul>  (64) 
-3.45645

>  <r_i_glide_erotb>  (64) 
0.0912554

>  <r_i_glide_esite>  (64) 
-0.0500402

>  <r_i_glide_emodel>  (64) 
-15.385

>  <r_i_glide_energy>  (64) 
-14.8495

>  <r_i_glide_einternal>  (64) 
6.83489

>  <r_i_glide_intrahb_reward>  (64) 
-0

>  <i_i_glide_confnum>  (64) 
3

>  <i_i_glide_posenum>  (64) 
1

>  <r_i_glide_eff_state_penalty>  (64) 
0

>  <ligand_id>  (64) 
18

>  <original_smiles>  (64) 
CC1CC(=O)C(=O)C2C3OC(=O)C(O)C4(O)CCC(C)(C56CCC(C(=O)C5)C6(C)C)C(=C34)C12C

>  <smiles>  (64) 
[H]OC1([H])C(=O)OC2([H])C3=C(C4(C([H])([H])[H])C2([H])C(=O)C(=O)C([H])([H])C4([H])C([H])([H])[H])C(C([H])([H])[H])(C24C([H])([H])C(=O)C([H])(C([H])([H])C2([H])[H])C4(C([H])([H])[H])C([H])([H])[H])C([H])([H])C([H])([H])C31O[H]

$$$$
19:0:0
     RDKit          3D

 26 28  0  0  1  0  0  0  0  0999 V2000
    3.5878   -0.8035    0.8511 C   0  0  0  0  0  0  0  0  0  0  0  0
    2.8042   -0.0560    1.8734 C   0  0  0  0  0  0  0  0  0  0  0  0
    3.1558    0.4345    3.1003 C   0  0  0  0  0  0  0  0  0  0  0  0
    2.0110    1.0692    3.6692 C   0  0  0  0  0  0  0  0  0  0  0  0
    0.9864    0.9533    2.7781 C   0  0  0  0  0  0  0  0  0  0  0  0
    1.4693    0.2656    1.6808 N   0  0  0  0  0  0  0  0  0  0  0  0
   -0.3821    1.4305    2.9307 C   0  0  0  0  0  0  0  0  0  0  0  0
   -1.2427    1.2117    2.0807 O   0  0  0  0  0  0  0  0  0  0  0  0
   -0.6366    2.1518    4.2286 C   0  0  0  0  0  0  0  0  0  0  0  0
   -1.9186    2.6916    4.5325 C   0  0  0  0  0  0  0  0  0  0  0  0
   -2.9832    2.6027    3.6759 O   0  0  0  0  0  0  0  0  0  0  0  0
   -2.1486    3.3422    5.7636 C   0  0  0  0  0  0  0  0  0  0  0  0
   -1.1094    3.4846    6.7002 C   0  0  0  0  0  0  0  0  0  0  0  0
    0.1626    2.9602    6.4129 C   0  0  0  0  0  0  0  0  0  0  0  0
    0.4113    2.2962    5.1915 C   0  0  0  0  0  0  0  0  0  0  0  0
    1.7937    1.7587    4.9539 C   0  0  0  0  0  0  0  0  0  0  0  0
    2.7139    1.8640    5.7633 O   0  0  0  0  0  0  0  0  0  0  0  0
    0.9423    0.0329    0.8289 H   0  0  0  0  0  0  0  0  0  0  0  0
    4.6125   -0.9470    1.1890 H   0  0  0  0  0  0  0  0  0  0  0  0
    3.6233   -0.2577   -0.0914 H   0  0  0  0  0  0  0  0  0  0  0  0
    3.1420   -1.7779    0.6593 H   0  0  0  0  0  0  0  0  0  0  0  0
    4.1366    0.3519    3.5468 H   0  0  0  0  0  0  0  0  0  0  0  0
   -2.8764    1.9477    2.9922 H   0  0  0  0  0  0  0  0  0  0  0  0
   -3.1301    3.7445    5.9821 H   0  0  0  0  0  0  0  0  0  0  0  0
   -1.2857    3.9935    7.6386 H   0  0  0  0  0  0  0  0  0  0  0  0
    0.9530    3.0722    7.1425 H   0  0  0  0  0  0  0  0  0  0  0  0
  1  2  1  0
  1 19  1  0
  1 20  1  0
  1 21  1  0
  2  6  1  0
  2  3  2  0
  3  4  1  0
  3 22  1  0
  4 16  1  0
  4  5  2  0
  5  6  1  0
  5  7  1  0
  6 18  1  0
  7  8  2  0
  7  9  1  0
  9 15  2  0
  9 10  1  0
 10 11  1  0
 10 12  2  0
 11 23  1  0
 12 13  1  0
 12 24  1  0
 13 14  2  0
 13 25  1  0
 14 15  1  0
 14 26  1  0
 15 16  1  0
 16 17  2  0
M  END
>  <i_m_ct_stereo_status>  (65) 
1

>  <s_m_source_file>  (65) 
/var/tmp/pbs.5076255.sched01/tmprv8ptrg5/026yimkau.sdf

>  <i_m_source_file_index>  (65) 
30

>  <i_lp_mmshare_version>  (65) 
48012

>  <i_f3d_flags>  (65) 
0

>  <s_epik_input>  (65) 
W0NIM11jKFtjSF0xKVtuSF1jKGMxMilDKD1PKWMzYyhDMj1PKVtjSF1bY0hdW2NIXWMzW09IXQ==

>  <s_epik_cmdline>  (65) 
J2VwaWtfcHl0aG9uJywgJy1waHQnLCAnMi4wJywgJy1waCcsICc3LjAnLCAnLXRuJywgJzgnLCAnLW1hJywgJzIwMCcsICctaW1hZScsICc8aW5maWxlLm1hZT4nLCAnLW9tYWUnLCAnPG91dGZpbGUubWFlPic=

>  <r_lp_tautomer_probability>  (65) 
1

>  <r_epik_Ionization_Penalty>  (65) 
0.0090816

>  <r_epik_Ionization_Penalty_Charging>  (65) 
0

>  <r_epik_Ionization_Penalty_Neutral>  (65) 
0.0090816

>  <r_epik_State_Penalty>  (65) 
-0

>  <r_epik_Charging_Adjusted_Penalty>  (65) 
0

>  <i_epik_Tot_Q>  (65) 
0

>  <i_epik_Tot_abs_Q>  (65) 
0

>  <s_lp_Force_Field>  (65) 
OPLS3e

>  <r_lp_Energy>  (65) 
19.6049

>  <b_lp_Chiralities_Consistent>  (65) 
1

>  <s_lp_Variant>  (65) 
19:0-1

>  <s_i_glide_gridfile>  (65) 
pfpi4k_grid

>  <i_i_glide_lignum>  (65) 
30

>  <i_i_glide_rotatable_bonds>  (65) 
1

>  <r_i_docking_score>  (65) 
-4.25212

>  <r_i_glide_ligand_efficiency>  (65) 
-0.250125

>  <r_i_glide_ligand_efficiency_sa>  (65) 
-0.643141

>  <r_i_glide_ligand_efficiency_ln>  (65) 
-1.10928

>  <r_i_glide_gscore>  (65) 
-4.25212

>  <r_i_glide_lipo>  (65) 
-0.0392609

>  <r_i_glide_hbond>  (65) 
-0.15585

>  <r_i_glide_metal>  (65) 
-0

>  <r_i_glide_rewards>  (65) 
-2.35989

>  <r_i_glide_evdw>  (65) 
-17.8464

>  <r_i_glide_ecoul>  (65) 
-4.49541

>  <r_i_glide_erotb>  (65) 
0

>  <r_i_glide_esite>  (65) 
-0.130481

>  <r_i_glide_emodel>  (65) 
-34.6615

>  <r_i_glide_energy>  (65) 
-22.3418

>  <r_i_glide_einternal>  (65) 
0.312826

>  <r_i_glide_intrahb_reward>  (65) 
-0.5

>  <i_i_glide_confnum>  (65) 
1

>  <i_i_glide_posenum>  (65) 
24

>  <r_i_glide_eff_state_penalty>  (65) 
0

>  <ligand_id>  (65) 
19

>  <original_smiles>  (65) 
Cc1cc2c([nH]1)C(=O)c1c(O)cccc1C2=O

>  <smiles>  (65) 
[H]Oc1c([H])c([H])c([H])c2c1C(=O)c1c(c([H])c(C([H])([H])[H])n1[H])C2=O

$$$$
19:0:1
     RDKit          3D

 26 28  0  0  1  0  0  0  0  0999 V2000
    2.6181   -2.4963    1.4956 C   0  0  0  0  0  0  0  0  0  0  0  0
    1.8246   -1.7012    2.4746 C   0  0  0  0  0  0  0  0  0  0  0  0
    1.6451   -1.8450    3.8276 C   0  0  0  0  0  0  0  0  0  0  0  0
    0.7786   -0.8027    4.2728 C   0  0  0  0  0  0  0  0  0  0  0  0
    0.4496   -0.0449    3.1857 C   0  0  0  0  0  0  0  0  0  0  0  0
    1.0851   -0.5948    2.0874 N   0  0  0  0  0  0  0  0  0  0  0  0
   -0.4224    1.1210    3.1355 C   0  0  0  0  0  0  0  0  0  0  0  0
   -0.6578    1.7040    2.0807 O   0  0  0  0  0  0  0  0  0  0  0  0
   -0.9965    1.5044    4.4769 C   0  0  0  0  0  0  0  0  0  0  0  0
   -1.8587    2.6290    4.6197 C   0  0  0  0  0  0  0  0  0  0  0  0
   -2.2006    3.4356    3.5669 O   0  0  0  0  0  0  0  0  0  0  0  0
   -2.3893    2.9579    5.8855 C   0  0  0  0  0  0  0  0  0  0  0  0
   -2.0653    2.2022    7.0251 C   0  0  0  0  0  0  0  0  0  0  0  0
   -1.2058    1.0983    6.9021 C   0  0  0  0  0  0  0  0  0  0  0  0
   -0.6743    0.7369    5.6428 C   0  0  0  0  0  0  0  0  0  0  0  0
    0.2306   -0.4593    5.5960 C   0  0  0  0  0  0  0  0  0  0  0  0
    0.5047   -1.1420    6.5820 O   0  0  0  0  0  0  0  0  0  0  0  0
    1.0024   -0.2595    1.1263 H   0  0  0  0  0  0  0  0  0  0  0  0
    3.1264   -3.3214    1.9923 H   0  0  0  0  0  0  0  0  0  0  0  0
    3.3711   -1.8747    1.0147 H   0  0  0  0  0  0  0  0  0  0  0  0
    1.9784   -2.9114    0.7191 H   0  0  0  0  0  0  0  0  0  0  0  0
    2.0895   -2.6189    4.4385 H   0  0  0  0  0  0  0  0  0  0  0  0
   -1.7618    3.1955    2.7576 H   0  0  0  0  0  0  0  0  0  0  0  0
   -3.0465    3.8104    5.9872 H   0  0  0  0  0  0  0  0  0  0  0  0
   -2.4614    2.4769    7.9937 H   0  0  0  0  0  0  0  0  0  0  0  0
   -0.9470    0.5386    7.7905 H   0  0  0  0  0  0  0  0  0  0  0  0
  1  2  1  0
  1 19  1  0
  1 20  1  0
  1 21  1  0
  2  6  1  0
  2  3  2  0
  3  4  1  0
  3 22  1  0
  4 16  1  0
  4  5  2  0
  5  6  1  0
  5  7  1  0
  6 18  1  0
  7  8  2  0
  7  9  1  0
  9 15  2  0
  9 10  1  0
 10 11  1  0
 10 12  2  0
 11 23  1  0
 12 13  1  0
 12 24  1  0
 13 14  2  0
 13 25  1  0
 14 15  1  0
 14 26  1  0
 15 16  1  0
 16 17  2  0
M  END
>  <i_m_ct_stereo_status>  (66) 
1

>  <s_m_source_file>  (66) 
/var/tmp/pbs.5076255.sched01/tmprv8ptrg5/026yimkau.sdf

>  <i_m_source_file_index>  (66) 
30

>  <i_lp_mmshare_version>  (66) 
48012

>  <i_f3d_flags>  (66) 
0

>  <s_epik_input>  (66) 
W0NIM11jKFtjSF0xKVtuSF1jKGMxMilDKD1PKWMzYyhDMj1PKVtjSF1bY0hdW2NIXWMzW09IXQ==

>  <s_epik_cmdline>  (66) 
J2VwaWtfcHl0aG9uJywgJy1waHQnLCAnMi4wJywgJy1waCcsICc3LjAnLCAnLXRuJywgJzgnLCAnLW1hJywgJzIwMCcsICctaW1hZScsICc8aW5maWxlLm1hZT4nLCAnLW9tYWUnLCAnPG91dGZpbGUubWFlPic=

>  <r_lp_tautomer_probability>  (66) 
1

>  <r_epik_Ionization_Penalty>  (66) 
0.0090816

>  <r_epik_Ionization_Penalty_Charging>  (66) 
0

>  <r_epik_Ionization_Penalty_Neutral>  (66) 
0.0090816

>  <r_epik_State_Penalty>  (66) 
-0

>  <r_epik_Charging_Adjusted_Penalty>  (66) 
0

>  <i_epik_Tot_Q>  (66) 
0

>  <i_epik_Tot_abs_Q>  (66) 
0

>  <s_lp_Force_Field>  (66) 
OPLS3e

>  <r_lp_Energy>  (66) 
19.6049

>  <b_lp_Chiralities_Consistent>  (66) 
1

>  <s_lp_Variant>  (66) 
19:0-1

>  <s_i_glide_gridfile>  (66) 
pfpi4k_grid

>  <i_i_glide_lignum>  (66) 
30

>  <i_i_glide_rotatable_bonds>  (66) 
1

>  <r_i_docking_score>  (66) 
-3.95213

>  <r_i_glide_ligand_efficiency>  (66) 
-0.232478

>  <r_i_glide_ligand_efficiency_sa>  (66) 
-0.597767

>  <r_i_glide_ligand_efficiency_ln>  (66) 
-1.03102

>  <r_i_glide_gscore>  (66) 
-3.95213

>  <r_i_glide_lipo>  (66) 
-0.0656756

>  <r_i_glide_hbond>  (66) 
-0.12766

>  <r_i_glide_metal>  (66) 
-0

>  <r_i_glide_rewards>  (66) 
-2.35989

>  <r_i_glide_evdw>  (66) 
-18.667

>  <r_i_glide_ecoul>  (66) 
-2.23162

>  <r_i_glide_erotb>  (66) 
0

>  <r_i_glide_esite>  (66) 
-0.130804

>  <r_i_glide_emodel>  (66) 
-32.9078

>  <r_i_glide_energy>  (66) 
-20.8987

>  <r_i_glide_einternal>  (66) 
0.0516713

>  <r_i_glide_intrahb_reward>  (66) 
-0.5

>  <i_i_glide_confnum>  (66) 
2

>  <i_i_glide_posenum>  (66) 
26

>  <r_i_glide_eff_state_penalty>  (66) 
0

>  <ligand_id>  (66) 
19

>  <original_smiles>  (66) 
Cc1cc2c([nH]1)C(=O)c1c(O)cccc1C2=O

>  <smiles>  (66) 
[H]Oc1c([H])c([H])c([H])c2c1C(=O)c1c(c([H])c(C([H])([H])[H])n1[H])C2=O

$$$$
19:0:2
     RDKit          3D

 26 28  0  0  1  0  0  0  0  0999 V2000
    3.6228   -0.1894    0.8725 C   0  0  0  0  0  0  0  0  0  0  0  0
    2.7062    0.4436    1.8613 C   0  0  0  0  0  0  0  0  0  0  0  0
    2.6133    1.7201    2.3485 C   0  0  0  0  0  0  0  0  0  0  0  0
    1.5551    1.7778    3.2836 C   0  0  0  0  0  0  0  0  0  0  0  0
    1.0194    0.5358    3.3666 C   0  0  0  0  0  0  0  0  0  0  0  0
    1.7165   -0.2868    2.4975 N   0  0  0  0  0  0  0  0  0  0  0  0
   -0.0828    0.1077    4.2052 C   0  0  0  0  0  0  0  0  0  0  0  0
   -0.4821   -1.0575    4.1959 O   0  0  0  0  0  0  0  0  0  0  0  0
   -0.6524    1.2113    5.0639 C   0  0  0  0  0  0  0  0  0  0  0  0
   -1.7260    0.9682    5.9642 C   0  0  0  0  0  0  0  0  0  0  0  0
   -2.2763   -0.2770    6.0781 O   0  0  0  0  0  0  0  0  0  0  0  0
   -2.2508    2.0060    6.7614 C   0  0  0  0  0  0  0  0  0  0  0  0
   -1.7144    3.2995    6.6882 C   0  0  0  0  0  0  0  0  0  0  0  0
   -0.6465    3.5600    5.8149 C   0  0  0  0  0  0  0  0  0  0  0  0
   -0.1116    2.5343    5.0030 C   0  0  0  0  0  0  0  0  0  0  0  0
    1.0316    2.8809    4.1055 C   0  0  0  0  0  0  0  0  0  0  0  0
    1.5497    3.9937    4.0537 O   0  0  0  0  0  0  0  0  0  0  0  0
    1.5142   -1.2660    2.3473 H   0  0  0  0  0  0  0  0  0  0  0  0
    4.3280    0.5457    0.4887 H   0  0  0  0  0  0  0  0  0  0  0  0
    3.0597   -0.5992    0.0323 H   0  0  0  0  0  0  0  0  0  0  0  0
    4.1989   -1.0000    1.3231 H   0  0  0  0  0  0  0  0  0  0  0  0
    3.2505    2.5476    2.0829 H   0  0  0  0  0  0  0  0  0  0  0  0
   -2.0028   -0.8483    5.3659 H   0  0  0  0  0  0  0  0  0  0  0  0
   -3.0853    1.7997    7.4204 H   0  0  0  0  0  0  0  0  0  0  0  0
   -2.1261    4.0886    7.3021 H   0  0  0  0  0  0  0  0  0  0  0  0
   -0.2235    4.5528    5.7716 H   0  0  0  0  0  0  0  0  0  0  0  0
  1  2  1  0
  1 19  1  0
  1 20  1  0
  1 21  1  0
  2  6  1  0
  2  3  2  0
  3  4  1  0
  3 22  1  0
  4 16  1  0
  4  5  2  0
  5  6  1  0
  5  7  1  0
  6 18  1  0
  7  8  2  0
  7  9  1  0
  9 15  2  0
  9 10  1  0
 10 11  1  0
 10 12  2  0
 11 23  1  0
 12 13  1  0
 12 24  1  0
 13 14  2  0
 13 25  1  0
 14 15  1  0
 14 26  1  0
 15 16  1  0
 16 17  2  0
M  END
>  <i_m_ct_stereo_status>  (67) 
1

>  <s_m_source_file>  (67) 
/var/tmp/pbs.5076255.sched01/tmprv8ptrg5/026yimkau.sdf

>  <i_m_source_file_index>  (67) 
30

>  <i_lp_mmshare_version>  (67) 
48012

>  <i_f3d_flags>  (67) 
0

>  <s_epik_input>  (67) 
W0NIM11jKFtjSF0xKVtuSF1jKGMxMilDKD1PKWMzYyhDMj1PKVtjSF1bY0hdW2NIXWMzW09IXQ==

>  <s_epik_cmdline>  (67) 
J2VwaWtfcHl0aG9uJywgJy1waHQnLCAnMi4wJywgJy1waCcsICc3LjAnLCAnLXRuJywgJzgnLCAnLW1hJywgJzIwMCcsICctaW1hZScsICc8aW5maWxlLm1hZT4nLCAnLW9tYWUnLCAnPG91dGZpbGUubWFlPic=

>  <r_lp_tautomer_probability>  (67) 
1

>  <r_epik_Ionization_Penalty>  (67) 
0.0090816

>  <r_epik_Ionization_Penalty_Charging>  (67) 
0

>  <r_epik_Ionization_Penalty_Neutral>  (67) 
0.0090816

>  <r_epik_State_Penalty>  (67) 
-0

>  <r_epik_Charging_Adjusted_Penalty>  (67) 
0

>  <i_epik_Tot_Q>  (67) 
0

>  <i_epik_Tot_abs_Q>  (67) 
0

>  <s_lp_Force_Field>  (67) 
OPLS3e

>  <r_lp_Energy>  (67) 
19.6049

>  <b_lp_Chiralities_Consistent>  (67) 
1

>  <s_lp_Variant>  (67) 
19:0-1

>  <s_i_glide_gridfile>  (67) 
pfpi4k_grid

>  <i_i_glide_lignum>  (67) 
30

>  <i_i_glide_rotatable_bonds>  (67) 
1

>  <r_i_docking_score>  (67) 
-3.85519

>  <r_i_glide_ligand_efficiency>  (67) 
-0.226776

>  <r_i_glide_ligand_efficiency_sa>  (67) 
-0.583105

>  <r_i_glide_ligand_efficiency_ln>  (67) 
-1.00573

>  <r_i_glide_gscore>  (67) 
-3.85519

>  <r_i_glide_lipo>  (67) 
-0.0613953

>  <r_i_glide_hbond>  (67) 
0

>  <r_i_glide_metal>  (67) 
-0

>  <r_i_glide_rewards>  (67) 
-2.35989

>  <r_i_glide_evdw>  (67) 
-15.1021

>  <r_i_glide_ecoul>  (67) 
-4.02607

>  <r_i_glide_erotb>  (67) 
0

>  <r_i_glide_esite>  (67) 
-0.074891

>  <r_i_glide_emodel>  (67) 
-30.8776

>  <r_i_glide_energy>  (67) 
-19.1281

>  <r_i_glide_einternal>  (67) 
0.153981

>  <r_i_glide_intrahb_reward>  (67) 
-0.5

>  <i_i_glide_confnum>  (67) 
2

>  <i_i_glide_posenum>  (67) 
37

>  <r_i_glide_eff_state_penalty>  (67) 
0

>  <ligand_id>  (67) 
19

>  <original_smiles>  (67) 
Cc1cc2c([nH]1)C(=O)c1c(O)cccc1C2=O

>  <smiles>  (67) 
[H]Oc1c([H])c([H])c([H])c2c1C(=O)c1c(c([H])c(C([H])([H])[H])n1[H])C2=O

$$$$
20:0:0
     RDKit          3D

 42 47  0  0  1  0  0  0  0  0999 V2000
    2.5881    0.1535   -4.8139 C   0  0  0  0  0  0  0  0  0  0  0  0
    3.9124   -0.2549   -4.5713 O   0  0  0  0  0  0  0  0  0  0  0  0
    3.9755   -1.2565   -3.6156 C   0  0  0  0  0  0  0  0  0  0  0  0
    3.7044   -0.8225   -2.3145 O   0  0  0  0  0  0  0  0  0  0  0  0
    4.2556   -1.6194   -1.2546 C   0  0  1  0  0  0  0  0  0  0  0  0
    5.7796   -1.1344   -0.9532 C   0  0  0  0  0  0  0  0  0  0  0  0
    6.3492   -1.9358    0.3440 C   0  0  1  0  0  0  0  0  0  0  0  0
    7.7160   -1.6260    0.4822 O   0  0  0  0  0  0  0  0  0  0  0  0
    5.5737   -1.7524    1.6766 C   0  0  1  0  0  0  0  0  0  0  0  0
    4.5120   -0.6518    1.3236 C   0  0  0  0  0  0  0  0  0  0  0  0
    3.6261   -1.1661    0.1158 C   0  0  2  0  0  0  0  0  0  0  0  0
    3.4137   -2.5670    0.4341 C   0  0  2  0  0  0  0  0  0  0  0  0
    3.4120   -3.0273    1.9023 C   0  0  0  0  0  0  0  0  0  0  0  0
    4.9058   -3.1891    2.0671 C   0  0  1  0  0  0  0  0  0  0  0  0
    5.2433   -4.3079    0.9241 C   0  0  1  0  0  0  0  0  0  0  0  0
    4.1913   -4.7081   -0.4016 C   0  0  0  0  0  0  0  0  0  0  0  0
    3.9971   -3.3543   -1.4855 C   0  0  1  0  0  0  0  0  0  0  0  0
    4.3730   -3.8820   -2.7674 O   0  0  0  0  0  0  0  0  0  0  0  0
    4.6962   -3.3520   -0.3670 C   0  0  2  0  0  0  0  0  0  0  0  0
    6.1298   -3.4442    0.1141 C   0  0  1  0  0  0  0  0  0  0  0  0
    2.5792    0.9287   -5.5793 H   0  0  0  0  0  0  0  0  0  0  0  0
    2.1737    0.5430   -3.8888 H   0  0  0  0  0  0  0  0  0  0  0  0
    1.9318   -0.6560   -5.1208 H   0  0  0  0  0  0  0  0  0  0  0  0
    3.2552   -2.0347   -3.8758 H   0  0  0  0  0  0  0  0  0  0  0  0
    4.9884   -1.6565   -3.6776 H   0  0  0  0  0  0  0  0  0  0  0  0
    6.3819   -1.3970   -1.8202 H   0  0  0  0  0  0  0  0  0  0  0  0
    5.8331   -0.0641   -0.8130 H   0  0  0  0  0  0  0  0  0  0  0  0
    7.7884   -0.7820    0.9124 H   0  0  0  0  0  0  0  0  0  0  0  0
    6.2227   -1.4161    2.4879 H   0  0  0  0  0  0  0  0  0  0  0  0
    3.8893   -0.4518    2.1972 H   0  0  0  0  0  0  0  0  0  0  0  0
    4.9804    0.3111    1.1085 H   0  0  0  0  0  0  0  0  0  0  0  0
    2.6859   -0.6174    0.0359 H   0  0  0  0  0  0  0  0  0  0  0  0
    2.4118   -2.8182    0.0566 H   0  0  0  0  0  0  0  0  0  0  0  0
    2.9285   -2.3419    2.6040 H   0  0  0  0  0  0  0  0  0  0  0  0
    2.9207   -3.9950    2.0086 H   0  0  0  0  0  0  0  0  0  0  0  0
    5.1821   -3.5249    3.0694 H   0  0  0  0  0  0  0  0  0  0  0  0
    5.7725   -5.1671    1.3354 H   0  0  0  0  0  0  0  0  0  0  0  0
    4.6356   -5.5624   -0.9394 H   0  0  0  0  0  0  0  0  0  0  0  0
    3.2345   -5.1187   -0.0536 H   0  0  0  0  0  0  0  0  0  0  0  0
    3.9041   -4.7118   -2.8384 H   0  0  0  0  0  0  0  0  0  0  0  0
    5.4582   -3.2536   -1.2001 H   0  0  0  0  0  0  0  0  0  0  0  0
    6.9049   -4.0095   -0.4380 H   0  0  0  0  0  0  0  0  0  0  0  0
  1  2  1  0
  1 21  1  0
  1 22  1  0
  1 23  1  0
  2  3  1  0
  3  4  1  0
  3 24  1  0
  3 25  1  0
  5  4  1  6
  5 11  1  0
  5 17  1  0
  5  6  1  0
  6  7  1  0
  6 26  1  0
  6 27  1  0
  7 20  1  0
  7  8  1  1
  7  9  1  0
  8 28  1  0
  9 14  1  0
  9 10  1  0
  9 29  1  1
 10 11  1  0
 10 30  1  0
 10 31  1  0
 11 12  1  0
 11 32  1  6
 12 19  1  0
 12 13  1  0
 12 33  1  6
 13 14  1  0
 13 34  1  0
 13 35  1  0
 14 15  1  0
 14 36  1  1
 15 20  1  0
 15 16  1  0
 15 37  1  1
 16 17  1  0
 16 38  1  0
 16 39  1  0
 17 18  1  1
 17 19  1  0
 18 40  1  0
 19 20  1  0
 19 41  1  1
 20 42  1  6
M  END
>  <i_m_ct_stereo_status>  (68) 
1

>  <s_m_source_file>  (68) 
/var/tmp/pbs.5076255.sched01/tmprv8ptrg5/026yimkau.sdf

>  <i_m_source_file_index>  (68) 
31

>  <i_lp_mmshare_version>  (68) 
48012

>  <i_f3d_flags>  (68) 
0

>  <s_epik_input>  (68) 
W0NIM11PW0NIMl1PW0NAXTEyW0NASF0zW0NASF00W0NAQEhdNVtDQEBdMihbT0hdKVtDSDJdW0NAQEhdNltDQEhdKFtDSDJdNClbQ0BIXShbQ0gyXTMpW0NAQF0oW0NIMl0xKShbT0hdKVtDQEhdNTY=

>  <s_epik_cmdline>  (68) 
J2VwaWtfcHl0aG9uJywgJy1waHQnLCAnMi4wJywgJy1waCcsICc3LjAnLCAnLXRuJywgJzgnLCAnLW1hJywgJzIwMCcsICctaW1hZScsICc8aW5maWxlLm1hZT4nLCAnLW9tYWUnLCAnPG91dGZpbGUubWFlPic=

>  <r_lp_tautomer_probability>  (68) 
1

>  <r_epik_Ionization_Penalty>  (68) 
1.59516e-06

>  <r_epik_Ionization_Penalty_Charging>  (68) 
0

>  <r_epik_Ionization_Penalty_Neutral>  (68) 
1.59516e-06

>  <r_epik_State_Penalty>  (68) 
-0

>  <r_epik_Charging_Adjusted_Penalty>  (68) 
0

>  <i_epik_Tot_Q>  (68) 
0

>  <i_epik_Tot_abs_Q>  (68) 
0

>  <s_epik_Chemistry_Notes>  (68) 
This compound contains an acetal/aminal-like group ( X-CH(R)-Y where X, Y are N, S, or O) that may be acid/base labile, releasing an aldehyde.

>  <s_lp_Force_Field>  (68) 
OPLS3e

>  <r_lp_Energy>  (68) 
454.558

>  <b_lp_Chiralities_Consistent>  (68) 
1

>  <s_lp_Variant>  (68) 
20:0-1

>  <s_i_glide_gridfile>  (68) 
pfpi4k_grid

>  <i_i_glide_lignum>  (68) 
31

>  <i_i_glide_rotatable_bonds>  (68) 
5

>  <r_i_docking_score>  (68) 
-4.09891

>  <r_i_glide_ligand_efficiency>  (68) 
-0.204946

>  <r_i_glide_ligand_efficiency_sa>  (68) 
-0.556308

>  <r_i_glide_ligand_efficiency_ln>  (68) 
-1.02582

>  <r_i_glide_gscore>  (68) 
-4.09891

>  <r_i_glide_lipo>  (68) 
-0.477008

>  <r_i_glide_hbond>  (68) 
-0.170409

>  <r_i_glide_metal>  (68) 
-0

>  <r_i_glide_rewards>  (68) 
-1.83484

>  <r_i_glide_evdw>  (68) 
-18.2482

>  <r_i_glide_ecoul>  (68) 
-7.79692

>  <r_i_glide_erotb>  (68) 
0.465295

>  <r_i_glide_esite>  (68) 
0

>  <r_i_glide_emodel>  (68) 
-26.7475

>  <r_i_glide_energy>  (68) 
-26.0451

>  <r_i_glide_einternal>  (68) 
9.77242

>  <r_i_glide_intrahb_reward>  (68) 
-0

>  <i_i_glide_confnum>  (68) 
4

>  <i_i_glide_posenum>  (68) 
17

>  <r_i_glide_eff_state_penalty>  (68) 
0

>  <ligand_id>  (68) 
20

>  <original_smiles>  (68) 
COCOC12CC3(O)C4CC1C1CC4C4CC2(O)C1C43

>  <smiles>  (68) 
[H]OC12C([H])([H])C3(OC([H])([H])OC([H])([H])[H])C4([H])C([H])([H])C1([H])C1([H])C([H])([H])C4([H])C4([H])C2([H])C1([H])C([H])([H])C43O[H]

$$$$
20:0:1
     RDKit          3D

 42 47  0  0  1  0  0  0  0  0999 V2000
    3.1669   -5.6771    3.3583 C   0  0  0  0  0  0  0  0  0  0  0  0
    2.4050   -4.7874    2.5502 O   0  0  0  0  0  0  0  0  0  0  0  0
    2.5531   -3.4571    2.9200 C   0  0  0  0  0  0  0  0  0  0  0  0
    3.8645   -2.9995    2.7828 O   0  0  0  0  0  0  0  0  0  0  0  0
    4.4071   -2.8448    1.4700 C   0  0  1  0  0  0  0  0  0  0  0  0
    5.9017   -2.2253    1.7045 C   0  0  0  0  0  0  0  0  0  0  0  0
    6.6518   -2.1131    0.2673 C   0  0  1  0  0  0  0  0  0  0  0  0
    7.8820   -1.4545    0.4290 O   0  0  0  0  0  0  0  0  0  0  0  0
    6.8410   -3.4314   -0.5257 C   0  0  1  0  0  0  0  0  0  0  0  0
    6.3438   -4.5294    0.4760 C   0  0  0  0  0  0  0  0  0  0  0  0
    4.8482   -4.2214    0.8417 C   0  0  2  0  0  0  0  0  0  0  0  0
    4.2500   -3.7737   -0.3914 C   0  0  2  0  0  0  0  0  0  0  0  0
    4.7967   -4.3103   -1.7106 C   0  0  0  0  0  0  0  0  0  0  0  0
    5.9338   -3.3319   -1.8709 C   0  0  1  0  0  0  0  0  0  0  0  0
    5.1245   -1.9111   -1.9120 C   0  0  1  0  0  0  0  0  0  0  0  0
    3.4821   -1.6946   -1.3694 C   0  0  0  0  0  0  0  0  0  0  0  0
    3.3512   -1.9690    0.3503 C   0  0  1  0  0  0  0  0  0  0  0  0
    2.6838   -0.8032    0.8831 O   0  0  0  0  0  0  0  0  0  0  0  0
    4.4525   -2.0748   -0.3629 C   0  0  2  0  0  0  0  0  0  0  0  0
    5.7292   -1.3446   -0.6943 C   0  0  1  0  0  0  0  0  0  0  0  0
    3.0776   -6.6844    2.9512 H   0  0  0  0  0  0  0  0  0  0  0  0
    2.8215   -5.6774    4.3916 H   0  0  0  0  0  0  0  0  0  0  0  0
    4.2294   -5.4222    3.3609 H   0  0  0  0  0  0  0  0  0  0  0  0
    1.8544   -2.8409    2.3539 H   0  0  0  0  0  0  0  0  0  0  0  0
    2.2774   -3.3509    3.9712 H   0  0  0  0  0  0  0  0  0  0  0  0
    5.8089   -1.2328    2.1528 H   0  0  0  0  0  0  0  0  0  0  0  0
    6.4514   -2.8208    2.4291 H   0  0  0  0  0  0  0  0  0  0  0  0
    7.7537   -0.7197    1.0160 H   0  0  0  0  0  0  0  0  0  0  0  0
    7.8883   -3.6113   -0.7869 H   0  0  0  0  0  0  0  0  0  0  0  0
    6.4110   -5.5172    0.0250 H   0  0  0  0  0  0  0  0  0  0  0  0
    6.9800   -4.5981    1.3608 H   0  0  0  0  0  0  0  0  0  0  0  0
    4.3380   -5.1251    1.1584 H   0  0  0  0  0  0  0  0  0  0  0  0
    3.2033   -4.1055   -0.3760 H   0  0  0  0  0  0  0  0  0  0  0  0
    5.0301   -5.3753   -1.6667 H   0  0  0  0  0  0  0  0  0  0  0  0
    4.0909   -4.1793   -2.5286 H   0  0  0  0  0  0  0  0  0  0  0  0
    6.5116   -3.5211   -2.7782 H   0  0  0  0  0  0  0  0  0  0  0  0
    5.3572   -1.3431   -2.8085 H   0  0  0  0  0  0  0  0  0  0  0  0
    3.1705   -0.6722   -1.6198 H   0  0  0  0  0  0  0  0  0  0  0  0
    2.7700   -2.3086   -1.9475 H   0  0  0  0  0  0  0  0  0  0  0  0
    1.9252   -0.6597    0.3122 H   0  0  0  0  0  0  0  0  0  0  0  0
    4.6032   -1.1828    0.3132 H   0  0  0  0  0  0  0  0  0  0  0  0
    5.7691   -0.2463   -0.7001 H   0  0  0  0  0  0  0  0  0  0  0  0
  1  2  1  0
  1 21  1  0
  1 22  1  0
  1 23  1  0
  2  3  1  0
  3  4  1  0
  3 24  1  0
  3 25  1  0
  5  4  1  1
  5 11  1  0
  5 17  1  0
  5  6  1  0
  6  7  1  0
  6 26  1  0
  6 27  1  0
  7 20  1  0
  7  8  1  1
  7  9  1  0
  8 28  1  0
  9 14  1  0
  9 10  1  0
  9 29  1  6
 10 11  1  0
 10 30  1  0
 10 31  1  0
 11 12  1  0
 11 32  1  1
 12 19  1  0
 12 13  1  0
 12 33  1  1
 13 14  1  0
 13 34  1  0
 13 35  1  0
 14 15  1  0
 14 36  1  6
 15 20  1  0
 15 16  1  0
 15 37  1  6
 16 17  1  0
 16 38  1  0
 16 39  1  0
 17 18  1  6
 17 19  1  0
 18 40  1  0
 19 20  1  0
 19 41  1  6
 20 42  1  6
M  END
>  <i_m_ct_stereo_status>  (69) 
1

>  <s_m_source_file>  (69) 
/var/tmp/pbs.5076255.sched01/tmprv8ptrg5/026yimkau.sdf

>  <i_m_source_file_index>  (69) 
31

>  <i_lp_mmshare_version>  (69) 
48012

>  <i_f3d_flags>  (69) 
0

>  <s_epik_input>  (69) 
W0NIM11PW0NIMl1PW0NAXTEyW0NASF0zW0NASF00W0NAQEhdNVtDQEBdMihbT0hdKVtDSDJdW0NAQEhdNltDQEhdKFtDSDJdNClbQ0BIXShbQ0gyXTMpW0NAQF0oW0NIMl0xKShbT0hdKVtDQEhdNTY=

>  <s_epik_cmdline>  (69) 
J2VwaWtfcHl0aG9uJywgJy1waHQnLCAnMi4wJywgJy1waCcsICc3LjAnLCAnLXRuJywgJzgnLCAnLW1hJywgJzIwMCcsICctaW1hZScsICc8aW5maWxlLm1hZT4nLCAnLW9tYWUnLCAnPG91dGZpbGUubWFlPic=

>  <r_lp_tautomer_probability>  (69) 
1

>  <r_epik_Ionization_Penalty>  (69) 
1.59516e-06

>  <r_epik_Ionization_Penalty_Charging>  (69) 
0

>  <r_epik_Ionization_Penalty_Neutral>  (69) 
1.59516e-06

>  <r_epik_State_Penalty>  (69) 
-0

>  <r_epik_Charging_Adjusted_Penalty>  (69) 
0

>  <i_epik_Tot_Q>  (69) 
0

>  <i_epik_Tot_abs_Q>  (69) 
0

>  <s_epik_Chemistry_Notes>  (69) 
This compound contains an acetal/aminal-like group ( X-CH(R)-Y where X, Y are N, S, or O) that may be acid/base labile, releasing an aldehyde.

>  <s_lp_Force_Field>  (69) 
OPLS3e

>  <r_lp_Energy>  (69) 
454.558

>  <b_lp_Chiralities_Consistent>  (69) 
1

>  <s_lp_Variant>  (69) 
20:0-1

>  <s_i_glide_gridfile>  (69) 
pfpi4k_grid

>  <i_i_glide_lignum>  (69) 
31

>  <i_i_glide_rotatable_bonds>  (69) 
5

>  <r_i_docking_score>  (69) 
-3.85521

>  <r_i_glide_ligand_efficiency>  (69) 
-0.192761

>  <r_i_glide_ligand_efficiency_sa>  (69) 
-0.523233

>  <r_i_glide_ligand_efficiency_ln>  (69) 
-0.964833

>  <r_i_glide_gscore>  (69) 
-3.85521

>  <r_i_glide_lipo>  (69) 
-0.622032

>  <r_i_glide_hbond>  (69) 
-0.258605

>  <r_i_glide_metal>  (69) 
-0

>  <r_i_glide_rewards>  (69) 
-1.51129

>  <r_i_glide_evdw>  (69) 
-13.7285

>  <r_i_glide_ecoul>  (69) 
-8.27413

>  <r_i_glide_erotb>  (69) 
0.465295

>  <r_i_glide_esite>  (69) 
-0.00103291

>  <r_i_glide_emodel>  (69) 
-26.8377

>  <r_i_glide_energy>  (69) 
-22.0026

>  <r_i_glide_einternal>  (69) 
1.1694

>  <r_i_glide_intrahb_reward>  (69) 
-0

>  <i_i_glide_confnum>  (69) 
4

>  <i_i_glide_posenum>  (69) 
5

>  <r_i_glide_eff_state_penalty>  (69) 
0

>  <ligand_id>  (69) 
20

>  <original_smiles>  (69) 
COCOC12CC3(O)C4CC1C1CC4C4CC2(O)C1C43

>  <smiles>  (69) 
[H]OC12C([H])([H])C3(OC([H])([H])OC([H])([H])[H])C4([H])C([H])([H])C1([H])C1([H])C([H])([H])C4([H])C4([H])C2([H])C1([H])C([H])([H])C43O[H]

$$$$
20:0:2
     RDKit          3D

 42 47  0  0  1  0  0  0  0  0999 V2000
    3.3116   -5.8152    3.2350 C   0  0  0  0  0  0  0  0  0  0  0  0
    2.4998   -4.9254    2.4725 O   0  0  0  0  0  0  0  0  0  0  0  0
    2.6600   -3.5976    2.8493 C   0  0  0  0  0  0  0  0  0  0  0  0
    3.9564   -3.1171    2.6747 O   0  0  0  0  0  0  0  0  0  0  0  0
    4.4511   -2.9139    1.3490 C   0  0  1  0  0  0  0  0  0  0  0  0
    5.9420   -2.2924    1.5383 C   0  0  0  0  0  0  0  0  0  0  0  0
    6.6386   -2.1315    0.0784 C   0  0  1  0  0  0  0  0  0  0  0  0
    7.8830   -1.4839    0.1584 O   0  0  0  0  0  0  0  0  0  0  0  0
    6.8113   -3.4234   -0.7535 C   0  0  1  0  0  0  0  0  0  0  0  0
    6.3583   -4.5436    0.2398 C   0  0  0  0  0  0  0  0  0  0  0  0
    4.8756   -4.2636    0.6571 C   0  0  2  0  0  0  0  0  0  0  0  0
    4.2456   -3.7763   -0.5401 C   0  0  2  0  0  0  0  0  0  0  0  0
    4.7511   -4.2777   -1.8809 C   0  0  0  0  0  0  0  0  0  0  0  0
    5.8540   -3.2762   -2.0606 C   0  0  1  0  0  0  0  0  0  0  0  0
    5.0277   -1.8757   -2.0308 C   0  0  1  0  0  0  0  0  0  0  0  0
    3.4127   -1.7136   -1.4132 C   0  0  0  0  0  0  0  0  0  0  0  0
    3.3546   -2.0261    0.3020 C   0  0  1  0  0  0  0  0  0  0  0  0
    2.7097   -0.8699    0.8848 O   0  0  0  0  0  0  0  0  0  0  0  0
    4.4348   -2.0962   -0.4786 C   0  0  2  0  0  0  0  0  0  0  0  0
    5.6915   -1.3422   -0.8292 C   0  0  1  0  0  0  0  0  0  0  0  0
    3.2345   -6.8141    2.8032 H   0  0  0  0  0  0  0  0  0  0  0  0
    3.0057   -5.8474    4.2797 H   0  0  0  0  0  0  0  0  0  0  0  0
    4.3716   -5.5437    3.2207 H   0  0  0  0  0  0  0  0  0  0  0  0
    1.9370   -2.9864    2.3122 H   0  0  0  0  0  0  0  0  0  0  0  0
    2.4050   -3.5029    3.9052 H   0  0  0  0  0  0  0  0  0  0  0  0
    5.8695   -1.3105    2.0158 H   0  0  0  0  0  0  0  0  0  0  0  0
    6.5316   -2.8967    2.2260 H   0  0  0  0  0  0  0  0  0  0  0  0
    8.4220   -1.9721    0.7520 H   0  0  0  0  0  0  0  0  0  0  0  0
    7.8486   -3.5908   -1.0590 H   0  0  0  0  0  0  0  0  0  0  0  0
    6.4078   -5.5241   -0.2382 H   0  0  0  0  0  0  0  0  0  0  0  0
    7.0284   -4.6417    1.0991 H   0  0  0  0  0  0  0  0  0  0  0  0
    4.3859   -5.1871    0.9122 H   0  0  0  0  0  0  0  0  0  0  0  0
    3.2058   -4.1252   -0.4935 H   0  0  0  0  0  0  0  0  0  0  0  0
    5.0177   -5.3345   -1.8849 H   0  0  0  0  0  0  0  0  0  0  0  0
    4.0167   -4.1332   -2.6686 H   0  0  0  0  0  0  0  0  0  0  0  0
    6.4049   -3.4468   -2.9898 H   0  0  0  0  0  0  0  0  0  0  0  0
    5.2081   -1.2857   -2.9236 H   0  0  0  0  0  0  0  0  0  0  0  0
    3.0620   -0.7065   -1.6451 H   0  0  0  0  0  0  0  0  0  0  0  0
    2.6977   -2.3189   -1.9755 H   0  0  0  0  0  0  0  0  0  0  0  0
    1.9538   -0.6988    0.3183 H   0  0  0  0  0  0  0  0  0  0  0  0
    4.5732   -1.2283    0.2365 H   0  0  0  0  0  0  0  0  0  0  0  0
    5.7024   -0.2526   -0.7818 H   0  0  0  0  0  0  0  0  0  0  0  0
  1  2  1  0
  1 21  1  0
  1 22  1  0
  1 23  1  0
  2  3  1  0
  3  4  1  0
  3 24  1  0
  3 25  1  0
  5  4  1  1
  5 11  1  0
  5 17  1  0
  5  6  1  0
  6  7  1  0
  6 26  1  0
  6 27  1  0
  7 20  1  0
  7  8  1  1
  7  9  1  0
  8 28  1  0
  9 14  1  0
  9 10  1  0
  9 29  1  6
 10 11  1  0
 10 30  1  0
 10 31  1  0
 11 12  1  0
 11 32  1  1
 12 19  1  0
 12 13  1  0
 12 33  1  1
 13 14  1  0
 13 34  1  0
 13 35  1  0
 14 15  1  0
 14 36  1  6
 15 20  1  0
 15 16  1  0
 15 37  1  6
 16 17  1  0
 16 38  1  0
 16 39  1  0
 17 18  1  6
 17 19  1  0
 18 40  1  0
 19 20  1  0
 19 41  1  6
 20 42  1  6
M  END
>  <i_m_ct_stereo_status>  (70) 
1

>  <s_m_source_file>  (70) 
/var/tmp/pbs.5076255.sched01/tmprv8ptrg5/026yimkau.sdf

>  <i_m_source_file_index>  (70) 
31

>  <i_lp_mmshare_version>  (70) 
48012

>  <i_f3d_flags>  (70) 
0

>  <s_epik_input>  (70) 
W0NIM11PW0NIMl1PW0NAXTEyW0NASF0zW0NASF00W0NAQEhdNVtDQEBdMihbT0hdKVtDSDJdW0NAQEhdNltDQEhdKFtDSDJdNClbQ0BIXShbQ0gyXTMpW0NAQF0oW0NIMl0xKShbT0hdKVtDQEhdNTY=

>  <s_epik_cmdline>  (70) 
J2VwaWtfcHl0aG9uJywgJy1waHQnLCAnMi4wJywgJy1waCcsICc3LjAnLCAnLXRuJywgJzgnLCAnLW1hJywgJzIwMCcsICctaW1hZScsICc8aW5maWxlLm1hZT4nLCAnLW9tYWUnLCAnPG91dGZpbGUubWFlPic=

>  <r_lp_tautomer_probability>  (70) 
1

>  <r_epik_Ionization_Penalty>  (70) 
1.59516e-06

>  <r_epik_Ionization_Penalty_Charging>  (70) 
0

>  <r_epik_Ionization_Penalty_Neutral>  (70) 
1.59516e-06

>  <r_epik_State_Penalty>  (70) 
-0

>  <r_epik_Charging_Adjusted_Penalty>  (70) 
0

>  <i_epik_Tot_Q>  (70) 
0

>  <i_epik_Tot_abs_Q>  (70) 
0

>  <s_epik_Chemistry_Notes>  (70) 
This compound contains an acetal/aminal-like group ( X-CH(R)-Y where X, Y are N, S, or O) that may be acid/base labile, releasing an aldehyde.

>  <s_lp_Force_Field>  (70) 
OPLS3e

>  <r_lp_Energy>  (70) 
454.558

>  <b_lp_Chiralities_Consistent>  (70) 
1

>  <s_lp_Variant>  (70) 
20:0-1

>  <s_i_glide_gridfile>  (70) 
pfpi4k_grid

>  <i_i_glide_lignum>  (70) 
31

>  <i_i_glide_rotatable_bonds>  (70) 
5

>  <r_i_docking_score>  (70) 
-3.3685

>  <r_i_glide_ligand_efficiency>  (70) 
-0.168425

>  <r_i_glide_ligand_efficiency_sa>  (70) 
-0.457175

>  <r_i_glide_ligand_efficiency_ln>  (70) 
-0.843024

>  <r_i_glide_gscore>  (70) 
-3.3685

>  <r_i_glide_lipo>  (70) 
-0.594889

>  <r_i_glide_hbond>  (70) 
-0.0854037

>  <r_i_glide_metal>  (70) 
-0

>  <r_i_glide_rewards>  (70) 
-1.51129

>  <r_i_glide_evdw>  (70) 
-12.877

>  <r_i_glide_ecoul>  (70) 
-6.64693

>  <r_i_glide_erotb>  (70) 
0.465295

>  <r_i_glide_esite>  (70) 
-0.00131527

>  <r_i_glide_emodel>  (70) 
-23.6494

>  <r_i_glide_energy>  (70) 
-19.5239

>  <r_i_glide_einternal>  (70) 
0.944803

>  <r_i_glide_intrahb_reward>  (70) 
-0

>  <i_i_glide_confnum>  (70) 
4

>  <i_i_glide_posenum>  (70) 
1

>  <r_i_glide_eff_state_penalty>  (70) 
0

>  <ligand_id>  (70) 
20

>  <original_smiles>  (70) 
COCOC12CC3(O)C4CC1C1CC4C4CC2(O)C1C43

>  <smiles>  (70) 
[H]OC12C([H])([H])C3(OC([H])([H])OC([H])([H])[H])C4([H])C([H])([H])C1([H])C1([H])C([H])([H])C4([H])C4([H])C2([H])C1([H])C([H])([H])C43O[H]

$$$$
22:0:0
     RDKit          3D

 36 39  0  0  1  0  0  0  0  0999 V2000
    4.8017   -3.6130    2.0109 C   0  0  0  0  0  0  0  0  0  0  0  0
    5.5222   -3.8625    0.6750 C   0  0  2  0  0  0  0  0  0  0  0  0
    6.7094   -2.8988    0.5229 C   0  0  0  0  0  0  0  0  0  0  0  0
    6.1881   -1.4501    0.5791 C   0  0  2  0  0  0  0  0  0  0  0  0
    5.4684   -1.1893    1.9160 C   0  0  0  0  0  0  0  0  0  0  0  0
    4.2839   -2.1615    2.0458 C   0  0  1  0  0  0  0  0  0  0  0  0
    3.2934   -1.9284    0.8842 C   0  0  0  0  0  0  0  0  0  0  0  0
    3.9913   -2.1786   -0.4742 C   0  0  2  0  0  0  0  0  0  0  0  0
    3.0165   -1.8985   -1.5822 N   0  0  0  0  0  0  0  0  0  0  0  0
    2.7058   -3.0155   -2.4924 C   0  0  0  0  0  0  0  0  0  0  0  0
    3.6953   -3.2027   -3.6284 C   0  0  0  0  0  0  0  0  0  0  0  0
    2.3339   -2.5997   -3.8984 C   0  0  0  0  0  0  0  0  0  0  0  0
    4.5415   -3.6427   -0.4834 C   0  0  0  0  0  0  0  0  0  0  0  0
    5.2037   -1.2153   -0.5890 C   0  0  0  0  0  0  0  0  0  0  0  0
    5.4816   -3.7936    2.8452 H   0  0  0  0  0  0  0  0  0  0  0  0
    3.9718   -4.3109    2.1314 H   0  0  0  0  0  0  0  0  0  0  0  0
    5.8803   -4.8886    0.6416 H   0  0  0  0  0  0  0  0  0  0  0  0
    7.4374   -3.0752    1.3134 H   0  0  0  0  0  0  0  0  0  0  0  0
    7.2285   -3.0783   -0.4201 H   0  0  0  0  0  0  0  0  0  0  0  0
    7.0291   -0.7651    0.4968 H   0  0  0  0  0  0  0  0  0  0  0  0
    6.1540   -1.3148    2.7539 H   0  0  0  0  0  0  0  0  0  0  0  0
    5.1171   -0.1587    1.9616 H   0  0  0  0  0  0  0  0  0  0  0  0
    3.7794   -1.9853    2.9931 H   0  0  0  0  0  0  0  0  0  0  0  0
    2.4367   -2.5960    0.9909 H   0  0  0  0  0  0  0  0  0  0  0  0
    2.9019   -0.9090    0.9287 H   0  0  0  0  0  0  0  0  0  0  0  0
    2.1217   -1.5802   -1.1835 H   0  0  0  0  0  0  0  0  0  0  0  0
    2.1817   -3.8589   -2.0539 H   0  0  0  0  0  0  0  0  0  0  0  0
    4.5547   -2.5411   -3.6962 H   0  0  0  0  0  0  0  0  0  0  0  0
    3.8679   -4.2196   -3.9756 H   0  0  0  0  0  0  0  0  0  0  0  0
    1.6090   -3.2189   -4.4191 H   0  0  0  0  0  0  0  0  0  0  0  0
    2.3031   -1.5409   -4.1459 H   0  0  0  0  0  0  0  0  0  0  0  0
    5.0727   -3.8608   -1.4102 H   0  0  0  0  0  0  0  0  0  0  0  0
    3.7332   -4.3671   -0.3844 H   0  0  0  0  0  0  0  0  0  0  0  0
    4.8570   -0.1833   -0.5617 H   0  0  0  0  0  0  0  0  0  0  0  0
    5.7235   -1.3543   -1.5401 H   0  0  0  0  0  0  0  0  0  0  0  0
    3.3540   -1.1194   -2.1254 H   0  0  0  0  0  0  0  0  0  0  0  0
  1  6  1  0
  1  2  1  0
  1 15  1  0
  1 16  1  0
  2 13  1  0
  2  3  1  0
  2 17  1  1
  3  4  1  0
  3 18  1  0
  3 19  1  0
  4 14  1  0
  4  5  1  0
  4 20  1  6
  5  6  1  0
  5 21  1  0
  5 22  1  0
  6  7  1  0
  6 23  1  1
  7  8  1  0
  7 24  1  0
  7 25  1  0
  8  9  1  6
  8 13  1  0
  8 14  1  0
  9 10  1  0
  9 26  1  0
  9 36  1  0
 10 12  1  0
 10 11  1  0
 10 27  1  0
 11 12  1  0
 11 28  1  0
 11 29  1  0
 12 30  1  0
 12 31  1  0
 13 32  1  0
 13 33  1  0
 14 34  1  0
 14 35  1  0
M  CHG  1   9   1
M  END
>  <i_m_ct_stereo_status>  (71) 
1

>  <s_m_source_file>  (71) 
/var/tmp/pbs.5076255.sched01/tmprv8ptrg5/026yimkau.sdf

>  <i_m_source_file_index>  (71) 
33

>  <i_lp_mmshare_version>  (71) 
48012

>  <i_f3d_flags>  (71) 
0

>  <s_epik_input>  (71) 
W0NIMl0xW0NAQEhdKFtDSDJdMilbQ0gyXVtDQEBIXShbQ0gyXTMpW0NIMl1bQ0BIXTFbQ0gyXUMyM1tOSF1bQ0hdNFtDSDJdW0NIMl00

>  <s_epik_cmdline>  (71) 
J2VwaWtfcHl0aG9uJywgJy1waHQnLCAnMi4wJywgJy1waCcsICc3LjAnLCAnLXRuJywgJzgnLCAnLW1hJywgJzIwMCcsICctaW1hZScsICc8aW5maWxlLm1hZT4nLCAnLW9tYWUnLCAnPG91dGZpbGUubWFlPic=

>  <r_epik_Ionization_Penalty>  (71) 
0.0019124

>  <r_epik_Ionization_Penalty_Charging>  (71) 
0.0019124

>  <r_epik_Ionization_Penalty_Neutral>  (71) 
0

>  <r_epik_State_Penalty>  (71) 
0.0013024

>  <r_epik_Charging_Adjusted_Penalty>  (71) 
0.0032148

>  <i_epik_Tot_Q>  (71) 
1

>  <i_epik_Tot_abs_Q>  (71) 
1

>  <s_lp_Force_Field>  (71) 
OPLS3e

>  <r_lp_Energy>  (71) 
9.60108

>  <b_lp_Chiralities_Consistent>  (71) 
1

>  <s_lp_Variant>  (71) 
22:0-1

>  <s_i_glide_gridfile>  (71) 
pfpi4k_grid

>  <i_i_glide_lignum>  (71) 
33

>  <i_i_glide_rotatable_bonds>  (71) 
2

>  <r_i_docking_score>  (71) 
-4.42965

>  <r_i_glide_ligand_efficiency>  (71) 
-0.316403

>  <r_i_glide_ligand_efficiency_sa>  (71) 
-0.762577

>  <r_i_glide_ligand_efficiency_ln>  (71) 
-1.21725

>  <r_i_glide_gscore>  (71) 
-4.42965

>  <r_i_glide_lipo>  (71) 
-0.861181

>  <r_i_glide_hbond>  (71) 
-0.2

>  <r_i_glide_metal>  (71) 
-0

>  <r_i_glide_rewards>  (71) 
-2.09781

>  <r_i_glide_evdw>  (71) 
-18.6483

>  <r_i_glide_ecoul>  (71) 
-7.43905

>  <r_i_glide_erotb>  (71) 
0.871588

>  <r_i_glide_esite>  (71) 
-0.0939668

>  <r_i_glide_emodel>  (71) 
-33.0013

>  <r_i_glide_energy>  (71) 
-26.0874

>  <r_i_glide_einternal>  (71) 
3.96108

>  <r_i_glide_intrahb_reward>  (71) 
-0

>  <i_i_glide_confnum>  (71) 
1

>  <i_i_glide_posenum>  (71) 
5

>  <r_i_glide_eff_state_penalty>  (71) 
0

>  <ligand_id>  (71) 
22

>  <original_smiles>  (71) 
C1C2CC3CC1CC(NC1CC1)(C2)C3

>  <smiles>  (71) 
[H]C1([H])C2([H])C([H])([H])C3([H])C([H])([H])C1([H])C([H])([H])C([N+]([H])([H])C1([H])C([H])([H])C1([H])[H])(C2([H])[H])C3([H])[H]

$$$$
22:0:1
     RDKit          3D

 36 39  0  0  1  0  0  0  0  0999 V2000
    4.4574   -2.9617    1.8461 C   0  0  0  0  0  0  0  0  0  0  0  0
    4.5687   -3.8617    0.6017 C   0  0  2  0  0  0  0  0  0  0  0  0
    6.0047   -3.8132    0.0374 C   0  0  0  0  0  0  0  0  0  0  0  0
    6.4024   -2.3532   -0.3078 C   0  0  2  0  0  0  0  0  0  0  0  0
    6.2747   -1.4623    0.9363 C   0  0  0  0  0  0  0  0  0  0  0  0
    4.8193   -1.5162    1.4558 C   0  0  1  0  0  0  0  0  0  0  0  0
    3.8588   -1.0239    0.3470 C   0  0  0  0  0  0  0  0  0  0  0  0
    4.0065   -1.9247   -0.9255 C   0  0  2  0  0  0  0  0  0  0  0  0
    3.0673   -1.4078   -1.9508 N   0  0  0  0  0  0  0  0  0  0  0  0
    3.1408   -1.8997   -3.3667 C   0  0  0  0  0  0  0  0  0  0  0  0
    2.4900   -3.2549   -3.5965 C   0  0  0  0  0  0  0  0  0  0  0  0
    3.9829   -3.1277   -3.7011 C   0  0  0  0  0  0  0  0  0  0  0  0
    3.5904   -3.3702   -0.4656 C   0  0  0  0  0  0  0  0  0  0  0  0
    5.5005   -1.7867   -1.3962 C   0  0  0  0  0  0  0  0  0  0  0  0
    5.1247   -3.3399    2.6241 H   0  0  0  0  0  0  0  0  0  0  0  0
    3.4393   -3.0133    2.2351 H   0  0  0  0  0  0  0  0  0  0  0  0
    4.3038   -4.8906    0.8504 H   0  0  0  0  0  0  0  0  0  0  0  0
    6.6994   -4.2511    0.7620 H   0  0  0  0  0  0  0  0  0  0  0  0
    6.0726   -4.4408   -0.8478 H   0  0  0  0  0  0  0  0  0  0  0  0
    7.4319   -2.3472   -0.6559 H   0  0  0  0  0  0  0  0  0  0  0  0
    6.9842   -1.7769    1.7104 H   0  0  0  0  0  0  0  0  0  0  0  0
    6.5388   -0.4331    0.6682 H   0  0  0  0  0  0  0  0  0  0  0  0
    4.7281   -0.8805    2.3323 H   0  0  0  0  0  0  0  0  0  0  0  0
    2.8269   -1.0237    0.7270 H   0  0  0  0  0  0  0  0  0  0  0  0
    4.0831    0.0255    0.1134 H   0  0  0  0  0  0  0  0  0  0  0  0
    2.1001   -1.4896   -1.5957 H   0  0  0  0  0  0  0  0  0  0  0  0
    2.9070   -1.1297   -4.1025 H   0  0  0  0  0  0  0  0  0  0  0  0
    2.0854   -3.7900   -2.7353 H   0  0  0  0  0  0  0  0  0  0  0  0
    1.9815   -3.5019   -4.5341 H   0  0  0  0  0  0  0  0  0  0  0  0
    4.4496   -3.0628   -4.6858 H   0  0  0  0  0  0  0  0  0  0  0  0
    4.5280   -3.7325   -2.9754 H   0  0  0  0  0  0  0  0  0  0  0  0
    3.6188   -4.1291   -1.2415 H   0  0  0  0  0  0  0  0  0  0  0  0
    2.5534   -3.3674   -0.0857 H   0  0  0  0  0  0  0  0  0  0  0  0
    5.7185   -0.7284   -1.5791 H   0  0  0  0  0  0  0  0  0  0  0  0
    5.7820   -2.3254   -2.2850 H   0  0  0  0  0  0  0  0  0  0  0  0
    3.2158   -0.4079   -2.0127 H   0  0  0  0  0  0  0  0  0  0  0  0
  1  6  1  0
  1  2  1  0
  1 15  1  0
  1 16  1  0
  2 13  1  0
  2  3  1  0
  2 17  1  1
  3  4  1  0
  3 18  1  0
  3 19  1  0
  4 14  1  0
  4  5  1  0
  4 20  1  6
  5  6  1  0
  5 21  1  0
  5 22  1  0
  6  7  1  0
  6 23  1  1
  7  8  1  0
  7 24  1  0
  7 25  1  0
  8  9  1  6
  8 13  1  0
  8 14  1  0
  9 10  1  0
  9 26  1  0
  9 36  1  0
 10 12  1  0
 10 11  1  0
 10 27  1  0
 11 12  1  0
 11 28  1  0
 11 29  1  0
 12 30  1  0
 12 31  1  0
 13 32  1  0
 13 33  1  0
 14 34  1  0
 14 35  1  0
M  CHG  1   9   1
M  END
>  <i_m_ct_stereo_status>  (72) 
1

>  <s_m_source_file>  (72) 
/var/tmp/pbs.5076255.sched01/tmprv8ptrg5/026yimkau.sdf

>  <i_m_source_file_index>  (72) 
33

>  <i_lp_mmshare_version>  (72) 
48012

>  <i_f3d_flags>  (72) 
0

>  <s_epik_input>  (72) 
W0NIMl0xW0NAQEhdKFtDSDJdMilbQ0gyXVtDQEBIXShbQ0gyXTMpW0NIMl1bQ0BIXTFbQ0gyXUMyM1tOSF1bQ0hdNFtDSDJdW0NIMl00

>  <s_epik_cmdline>  (72) 
J2VwaWtfcHl0aG9uJywgJy1waHQnLCAnMi4wJywgJy1waCcsICc3LjAnLCAnLXRuJywgJzgnLCAnLW1hJywgJzIwMCcsICctaW1hZScsICc8aW5maWxlLm1hZT4nLCAnLW9tYWUnLCAnPG91dGZpbGUubWFlPic=

>  <r_epik_Ionization_Penalty>  (72) 
0.0019124

>  <r_epik_Ionization_Penalty_Charging>  (72) 
0.0019124

>  <r_epik_Ionization_Penalty_Neutral>  (72) 
0

>  <r_epik_State_Penalty>  (72) 
0.0013024

>  <r_epik_Charging_Adjusted_Penalty>  (72) 
0.0032148

>  <i_epik_Tot_Q>  (72) 
1

>  <i_epik_Tot_abs_Q>  (72) 
1

>  <s_lp_Force_Field>  (72) 
OPLS3e

>  <r_lp_Energy>  (72) 
9.60108

>  <b_lp_Chiralities_Consistent>  (72) 
1

>  <s_lp_Variant>  (72) 
22:0-1

>  <s_i_glide_gridfile>  (72) 
pfpi4k_grid

>  <i_i_glide_lignum>  (72) 
33

>  <i_i_glide_rotatable_bonds>  (72) 
2

>  <r_i_docking_score>  (72) 
-4.3359

>  <r_i_glide_ligand_efficiency>  (72) 
-0.309707

>  <r_i_glide_ligand_efficiency_sa>  (72) 
-0.746439

>  <r_i_glide_ligand_efficiency_ln>  (72) 
-1.19149

>  <r_i_glide_gscore>  (72) 
-4.3359

>  <r_i_glide_lipo>  (72) 
-0.896341

>  <r_i_glide_hbond>  (72) 
-0.2

>  <r_i_glide_metal>  (72) 
-0

>  <r_i_glide_rewards>  (72) 
-2.09781

>  <r_i_glide_evdw>  (72) 
-20.3251

>  <r_i_glide_ecoul>  (72) 
-5.98055

>  <r_i_glide_erotb>  (72) 
0.871588

>  <r_i_glide_esite>  (72) 
-0.1

>  <r_i_glide_emodel>  (72) 
-29.2471

>  <r_i_glide_energy>  (72) 
-26.3056

>  <r_i_glide_einternal>  (72) 
8.98893

>  <r_i_glide_intrahb_reward>  (72) 
-0

>  <i_i_glide_confnum>  (72) 
1

>  <i_i_glide_posenum>  (72) 
32

>  <r_i_glide_eff_state_penalty>  (72) 
0

>  <ligand_id>  (72) 
22

>  <original_smiles>  (72) 
C1C2CC3CC1CC(NC1CC1)(C2)C3

>  <smiles>  (72) 
[H]C1([H])C2([H])C([H])([H])C3([H])C([H])([H])C1([H])C([H])([H])C([N+]([H])([H])C1([H])C([H])([H])C1([H])[H])(C2([H])[H])C3([H])[H]

$$$$
22:0:2
     RDKit          3D

 36 39  0  0  1  0  0  0  0  0999 V2000
    4.1706   -3.5559    1.7292 C   0  0  0  0  0  0  0  0  0  0  0  0
    3.9887   -4.3242    0.4061 C   0  0  2  0  0  0  0  0  0  0  0  0
    5.3701   -4.6054   -0.2147 C   0  0  0  0  0  0  0  0  0  0  0  0
    6.0855   -3.2686   -0.4760 C   0  0  2  0  0  0  0  0  0  0  0  0
    6.2600   -2.4768    0.8288 C   0  0  0  0  0  0  0  0  0  0  0  0
    4.8706   -2.2144    1.4405 C   0  0  1  0  0  0  0  0  0  0  0  0
    4.0165   -1.3818    0.4589 C   0  0  0  0  0  0  0  0  0  0  0  0
    3.8456   -2.1486   -0.8814 C   0  0  2  0  0  0  0  0  0  0  0  0
    3.0160   -1.3238   -1.8039 N   0  0  0  0  0  0  0  0  0  0  0  0
    3.0138   -1.6827   -3.2444 C   0  0  0  0  0  0  0  0  0  0  0  0
    4.2066   -1.1867   -4.0279 C   0  0  0  0  0  0  0  0  0  0  0  0
    2.8835   -0.4834   -4.1803 C   0  0  0  0  0  0  0  0  0  0  0  0
    3.1376   -3.4916   -0.5773 C   0  0  0  0  0  0  0  0  0  0  0  0
    5.2561   -2.4404   -1.4576 C   0  0  0  0  0  0  0  0  0  0  0  0
    4.7590   -4.1457    2.4283 H   0  0  0  0  0  0  0  0  0  0  0  0
    3.2050   -3.3849    2.2063 H   0  0  0  0  0  0  0  0  0  0  0  0
    3.4886   -5.2701    0.6026 H   0  0  0  0  0  0  0  0  0  0  0  0
    5.9684   -5.2298    0.4440 H   0  0  0  0  0  0  0  0  0  0  0  0
    5.2441   -5.1589   -1.1460 H   0  0  0  0  0  0  0  0  0  0  0  0
    7.0623   -3.4616   -0.9189 H   0  0  0  0  0  0  0  0  0  0  0  0
    6.8873   -3.0302    1.5249 H   0  0  0  0  0  0  0  0  0  0  0  0
    6.7682   -1.5331    0.6329 H   0  0  0  0  0  0  0  0  0  0  0  0
    4.9962   -1.6707    2.3743 H   0  0  0  0  0  0  0  0  0  0  0  0
    3.0424   -1.1777    0.9091 H   0  0  0  0  0  0  0  0  0  0  0  0
    4.4910   -0.4118    0.2933 H   0  0  0  0  0  0  0  0  0  0  0  0
    2.0515   -1.3142   -1.4491 H   0  0  0  0  0  0  0  0  0  0  0  0
    2.5198   -2.6190   -3.4946 H   0  0  0  0  0  0  0  0  0  0  0  0
    4.9882   -0.6326   -3.5216 H   0  0  0  0  0  0  0  0  0  0  0  0
    4.5448   -1.8264   -4.8287 H   0  0  0  0  0  0  0  0  0  0  0  0
    2.3491   -0.6289   -5.1157 H   0  0  0  0  0  0  0  0  0  0  0  0
    2.8283    0.5231   -3.7779 H   0  0  0  0  0  0  0  0  0  0  0  0
    2.9808   -4.0556   -1.4969 H   0  0  0  0  0  0  0  0  0  0  0  0
    2.1538   -3.3101   -0.1447 H   0  0  0  0  0  0  0  0  0  0  0  0
    5.7898   -1.5100   -1.6611 H   0  0  0  0  0  0  0  0  0  0  0  0
    5.1929   -3.0108   -2.3873 H   0  0  0  0  0  0  0  0  0  0  0  0
    3.3515   -0.3706   -1.7458 H   0  0  0  0  0  0  0  0  0  0  0  0
  1  6  1  0
  1  2  1  0
  1 15  1  0
  1 16  1  0
  2 13  1  0
  2  3  1  0
  2 17  1  1
  3  4  1  0
  3 18  1  0
  3 19  1  0
  4 14  1  0
  4  5  1  0
  4 20  1  6
  5  6  1  0
  5 21  1  0
  5 22  1  0
  6  7  1  0
  6 23  1  1
  7  8  1  0
  7 24  1  0
  7 25  1  0
  8  9  1  6
  8 13  1  0
  8 14  1  0
  9 10  1  0
  9 26  1  0
  9 36  1  0
 10 12  1  0
 10 11  1  0
 10 27  1  0
 11 12  1  0
 11 28  1  0
 11 29  1  0
 12 30  1  0
 12 31  1  0
 13 32  1  0
 13 33  1  0
 14 34  1  0
 14 35  1  0
M  CHG  1   9   1
M  END
>  <i_m_ct_stereo_status>  (73) 
1

>  <s_m_source_file>  (73) 
/var/tmp/pbs.5076255.sched01/tmprv8ptrg5/026yimkau.sdf

>  <i_m_source_file_index>  (73) 
33

>  <i_lp_mmshare_version>  (73) 
48012

>  <i_f3d_flags>  (73) 
0

>  <s_epik_input>  (73) 
W0NIMl0xW0NAQEhdKFtDSDJdMilbQ0gyXVtDQEBIXShbQ0gyXTMpW0NIMl1bQ0BIXTFbQ0gyXUMyM1tOSF1bQ0hdNFtDSDJdW0NIMl00

>  <s_epik_cmdline>  (73) 
J2VwaWtfcHl0aG9uJywgJy1waHQnLCAnMi4wJywgJy1waCcsICc3LjAnLCAnLXRuJywgJzgnLCAnLW1hJywgJzIwMCcsICctaW1hZScsICc8aW5maWxlLm1hZT4nLCAnLW9tYWUnLCAnPG91dGZpbGUubWFlPic=

>  <r_epik_Ionization_Penalty>  (73) 
0.0019124

>  <r_epik_Ionization_Penalty_Charging>  (73) 
0.0019124

>  <r_epik_Ionization_Penalty_Neutral>  (73) 
0

>  <r_epik_State_Penalty>  (73) 
0.0013024

>  <r_epik_Charging_Adjusted_Penalty>  (73) 
0.0032148

>  <i_epik_Tot_Q>  (73) 
1

>  <i_epik_Tot_abs_Q>  (73) 
1

>  <s_lp_Force_Field>  (73) 
OPLS3e

>  <r_lp_Energy>  (73) 
9.60108

>  <b_lp_Chiralities_Consistent>  (73) 
1

>  <s_lp_Variant>  (73) 
22:0-1

>  <s_i_glide_gridfile>  (73) 
pfpi4k_grid

>  <i_i_glide_lignum>  (73) 
33

>  <i_i_glide_rotatable_bonds>  (73) 
2

>  <r_i_docking_score>  (73) 
-4.16511

>  <r_i_glide_ligand_efficiency>  (73) 
-0.297508

>  <r_i_glide_ligand_efficiency_sa>  (73) 
-0.717036

>  <r_i_glide_ligand_efficiency_ln>  (73) 
-1.14456

>  <r_i_glide_gscore>  (73) 
-4.16511

>  <r_i_glide_lipo>  (73) 
-0.662667

>  <r_i_glide_hbond>  (73) 
-0.179911

>  <r_i_glide_metal>  (73) 
-0

>  <r_i_glide_rewards>  (73) 
-2.09781

>  <r_i_glide_evdw>  (73) 
-16.0475

>  <r_i_glide_ecoul>  (73) 
-7.9595

>  <r_i_glide_erotb>  (73) 
0.871588

>  <r_i_glide_esite>  (73) 
-0.1

>  <r_i_glide_emodel>  (73) 
-31.4229

>  <r_i_glide_energy>  (73) 
-24.007

>  <r_i_glide_einternal>  (73) 
0.868117

>  <r_i_glide_intrahb_reward>  (73) 
-0

>  <i_i_glide_confnum>  (73) 
1

>  <i_i_glide_posenum>  (73) 
21

>  <r_i_glide_eff_state_penalty>  (73) 
0

>  <ligand_id>  (73) 
22

>  <original_smiles>  (73) 
C1C2CC3CC1CC(NC1CC1)(C2)C3

>  <smiles>  (73) 
[H]C1([H])C2([H])C([H])([H])C3([H])C([H])([H])C1([H])C([H])([H])C([N+]([H])([H])C1([H])C([H])([H])C1([H])[H])(C2([H])[H])C3([H])[H]

$$$$
24:0:0
     RDKit          3D

 78 84  0  0  1  0  0  0  0  0999 V2000
    3.7790   -3.8457   -0.4866 C   0  0  0  0  0  0  0  0  0  0  0  0
    4.5342   -3.6804    0.8530 C   0  0  2  0  0  0  0  0  0  0  0  0
    3.7501   -2.6475    1.7413 C   0  0  0  0  0  0  0  0  0  0  0  0
    3.7467   -1.2139    1.1605 C   0  0  0  0  0  0  0  0  0  0  0  0
    5.1879   -0.7212    0.9531 C   0  0  1  0  0  0  0  0  0  0  0  0
    5.8055   -0.5634    2.2117 O   0  0  0  0  0  0  0  0  0  0  0  0
    6.0104   -1.6926    0.0761 C   0  0  0  0  0  0  0  0  0  0  0  0
    5.9363   -3.1470    0.5141 C   0  0  0  0  0  0  0  0  0  0  0  0
    7.0458   -3.9036    0.5292 C   0  0  0  0  0  0  0  0  0  0  0  0
    7.0783   -5.3661    0.9034 C   0  0  0  0  0  0  0  0  0  0  0  0
    5.6487   -6.0187    0.8765 C   0  0  2  0  0  0  0  0  0  0  0  0
    4.5878   -5.0968    1.5332 C   0  0  1  0  0  0  0  0  0  0  0  0
    4.7654   -5.1185    3.0636 C   0  0  0  0  0  0  0  0  0  0  0  0
    4.6986   -6.5499    3.5909 C   0  0  0  0  0  0  0  0  0  0  0  0
    5.7057   -7.5570    2.9964 C   0  0  1  0  0  0  0  0  0  0  0  0
    7.0744   -7.2447    3.6351 C   0  0  0  0  0  0  0  0  0  0  0  0
    5.2803   -9.0312    3.2343 C   0  0  1  0  0  0  0  0  0  0  0  0
    4.6997   -9.3458    4.6277 C   0  0  0  0  0  0  0  0  0  0  0  0
    5.4429   -9.7265    5.5354 O   0  0  0  0  0  0  0  0  0  0  0  0
    3.3891   -9.1516    4.7826 N   0  0  0  0  0  0  0  0  0  0  0  0
    2.5990   -9.2508    6.0121 C   0  0  2  0  0  0  0  0  0  0  0  0
    1.0900   -9.0469    5.6975 C   0  0  1  0  0  0  0  0  0  0  0  0
    0.2769   -9.2508    7.0014 C   0  0  0  0  0  0  0  0  0  0  0  0
    0.7228   -8.2109    8.0533 C   0  0  2  0  0  0  0  0  0  0  0  0
    0.4770   -6.7796    7.5143 C   0  0  0  0  0  0  0  0  0  0  0  0
    1.2576   -6.5784    6.2222 C   0  0  2  0  0  0  0  0  0  0  0  0
    0.8236   -7.6167    5.1657 C   0  0  0  0  0  0  0  0  0  0  0  0
    2.7676   -6.7492    6.4981 C   0  0  0  0  0  0  0  0  0  0  0  0
    3.0229   -8.1858    7.0611 C   0  0  1  0  0  0  0  0  0  0  0  0
    2.2331   -8.3982    8.3552 C   0  0  0  0  0  0  0  0  0  0  0  0
    4.3656   -9.4573    2.0583 C   0  0  0  0  0  0  0  0  0  0  0  0
    4.4733   -8.3316    1.0237 C   0  0  0  0  0  0  0  0  0  0  0  0
    5.6675   -7.4547    1.4437 C   0  0  1  0  0  0  0  0  0  0  0  0
    2.7842   -4.2561   -0.3378 H   0  0  0  0  0  0  0  0  0  0  0  0
    4.3223   -4.5055   -1.1540 H   0  0  0  0  0  0  0  0  0  0  0  0
    3.6726   -2.9108   -1.0340 H   0  0  0  0  0  0  0  0  0  0  0  0
    2.7217   -2.9851    1.9071 H   0  0  0  0  0  0  0  0  0  0  0  0
    4.1915   -2.5775    2.7407 H   0  0  0  0  0  0  0  0  0  0  0  0
    3.2101   -1.1973    0.2123 H   0  0  0  0  0  0  0  0  0  0  0  0
    3.1985   -0.5345    1.8127 H   0  0  0  0  0  0  0  0  0  0  0  0
    5.1591    0.2591    0.4710 H   0  0  0  0  0  0  0  0  0  0  0  0
    6.6932   -0.2282    2.0729 H   0  0  0  0  0  0  0  0  0  0  0  0
    5.6218   -1.6708   -0.9429 H   0  0  0  0  0  0  0  0  0  0  0  0
    7.0518   -1.3665    0.0056 H   0  0  0  0  0  0  0  0  0  0  0  0
    7.9964   -3.4650    0.2976 H   0  0  0  0  0  0  0  0  0  0  0  0
    7.7192   -5.9146    0.1818 H   0  0  0  0  0  0  0  0  0  0  0  0
    7.5425   -5.3723    1.8554 H   0  0  0  0  0  0  0  0  0  0  0  0
    5.3665   -6.1373   -0.1690 H   0  0  0  0  0  0  0  0  0  0  0  0
    3.6073   -5.5411    1.3830 H   0  0  0  0  0  0  0  0  0  0  0  0
    5.6875   -4.6472    3.3721 H   0  0  0  0  0  0  0  0  0  0  0  0
    3.9595   -4.5863    3.5691 H   0  0  0  0  0  0  0  0  0  0  0  0
    4.8834   -6.5147    4.6546 H   0  0  0  0  0  0  0  0  0  0  0  0
    3.6718   -6.9018    3.4275 H   0  0  0  0  0  0  0  0  0  0  0  0
    7.8713   -7.8083    3.1382 H   0  0  0  0  0  0  0  0  0  0  0  0
    7.0928   -7.5569    4.6918 H   0  0  0  0  0  0  0  0  0  0  0  0
    7.3215   -6.2109    3.5912 H   0  0  0  0  0  0  0  0  0  0  0  0
    6.1838   -9.6450    3.1490 H   0  0  0  0  0  0  0  0  0  0  0  0
    2.8900   -8.8028    3.9834 H   0  0  0  0  0  0  0  0  0  0  0  0
    2.7460  -10.2608    6.4085 H   0  0  0  0  0  0  0  0  0  0  0  0
    0.7635   -9.7830    4.9589 H   0  0  0  0  0  0  0  0  0  0  0  0
   -0.7853   -9.1607    6.7867 H   0  0  0  0  0  0  0  0  0  0  0  0
    0.4350  -10.2524    7.3741 H   0  0  0  0  0  0  0  0  0  0  0  0
    0.1529   -8.3543    8.9835 H   0  0  0  0  0  0  0  0  0  0  0  0
   -0.5882   -6.6265    7.3091 H   0  0  0  0  0  0  0  0  0  0  0  0
    0.7548   -6.0301    8.2527 H   0  0  0  0  0  0  0  0  0  0  0  0
    1.0988   -5.5776    5.8345 H   0  0  0  0  0  0  0  0  0  0  0  0
    1.3562   -7.4499    4.2236 H   0  0  0  0  0  0  0  0  0  0  0  0
   -0.2330   -7.4956    4.9157 H   0  0  0  0  0  0  0  0  0  0  0  0
    3.2430   -6.5846    5.6002 H   0  0  0  0  0  0  0  0  0  0  0  0
    3.1155   -6.0007    7.2326 H   0  0  0  0  0  0  0  0  0  0  0  0
    4.0803   -8.2859    7.2883 H   0  0  0  0  0  0  0  0  0  0  0  0
    2.5646   -7.6769    9.1058 H   0  0  0  0  0  0  0  0  0  0  0  0
    2.4244   -9.3916    8.7610 H   0  0  0  0  0  0  0  0  0  0  0  0
    4.7307  -10.4089    1.6627 H   0  0  0  0  0  0  0  0  0  0  0  0
    3.3102   -9.6298    2.3025 H   0  0  0  0  0  0  0  0  0  0  0  0
    4.5868   -8.7448    0.0149 H   0  0  0  0  0  0  0  0  0  0  0  0
    3.5252   -7.7771    1.0217 H   0  0  0  0  0  0  0  0  0  0  0  0
    6.5470   -7.9716    1.0530 H   0  0  0  0  0  0  0  0  0  0  0  0
  2  1  1  6
  1 34  1  0
  1 35  1  0
  1 36  1  0
  2  8  1  0
  2 12  1  0
  2  3  1  0
  3  4  1  0
  3 37  1  0
  3 38  1  0
  4  5  1  0
  4 39  1  0
  4 40  1  0
  5  6  1  0
  5  7  1  0
  5 41  1  6
  6 42  1  0
  7  8  1  0
  7 43  1  0
  7 44  1  0
  8  9  2  0
  9 10  1  0
  9 45  1  0
 10 11  1  0
 10 46  1  0
 10 47  1  0
 11 33  1  0
 11 12  1  0
 11 48  1  6
 12 13  1  0
 12 49  1  1
 13 14  1  0
 13 50  1  0
 13 51  1  0
 14 15  1  0
 14 52  1  0
 14 53  1  0
 15 33  1  0
 15 16  1  1
 15 17  1  0
 16 54  1  0
 16 55  1  0
 16 56  1  0
 17 18  1  0
 17 31  1  0
 17 57  1  6
 18 19  2  0
 18 20  1  0
 20 21  1  0
 20 58  1  0
 21 29  1  0
 21 22  1  0
 21 59  1  1
 22 27  1  0
 22 23  1  0
 22 60  1  6
 23 24  1  0
 23 61  1  0
 23 62  1  0
 24 30  1  0
 24 25  1  0
 24 63  1  1
 25 26  1  0
 25 64  1  0
 25 65  1  0
 26 27  1  0
 26 28  1  0
 26 66  1  6
 27 67  1  0
 27 68  1  0
 28 29  1  0
 28 69  1  0
 28 70  1  0
 29 30  1  0
 29 71  1  1
 30 72  1  0
 30 73  1  0
 31 32  1  0
 31 74  1  0
 31 75  1  0
 32 33  1  0
 32 76  1  0
 32 77  1  0
 33 78  1  6
M  END
>  <i_m_ct_stereo_status>  (74) 
1

>  <s_m_source_file>  (74) 
/var/tmp/pbs.5076255.sched01/tmprv8ptrg5/026yimkau.sdf

>  <i_m_source_file_index>  (74) 
35

>  <i_lp_mmshare_version>  (74) 
48012

>  <i_f3d_flags>  (74) 
0

>  <s_epik_input>  (74) 
W0NIMl0xW0NIMl1bQ0BASF0oW09IXSlbQ0gyXUMoW0NAXTEyW0NIM10pPVtDSF1bQ0gyXVtDQEBIXTNbQ0BIXTJbQ0gyXVtDSDJdW0NAXTQoW0NIM10pW0NASF0zW0NIMl1bQ0gyXVtDQEBIXTRDKD1PKVtOSF1bQ0BIXShbQ0BASF01NilbQ0BIXTdbQ0gyXVtDQEBIXShbQ0gyXTYpW0NIMl1bQ0BASF0oW0NIMl01KVtDSDJdNw==

>  <s_epik_cmdline>  (74) 
J2VwaWtfcHl0aG9uJywgJy1waHQnLCAnMi4wJywgJy1waCcsICc3LjAnLCAnLXRuJywgJzgnLCAnLW1hJywgJzIwMCcsICctaW1hZScsICc8aW5maWxlLm1hZT4nLCAnLW9tYWUnLCAnPG91dGZpbGUubWFlPic=

>  <r_lp_tautomer_probability>  (74) 
1

>  <r_epik_Ionization_Penalty>  (74) 
1.39644e-06

>  <r_epik_Ionization_Penalty_Charging>  (74) 
0

>  <r_epik_Ionization_Penalty_Neutral>  (74) 
1.39644e-06

>  <r_epik_State_Penalty>  (74) 
-0

>  <r_epik_Charging_Adjusted_Penalty>  (74) 
0

>  <i_epik_Tot_Q>  (74) 
0

>  <i_epik_Tot_abs_Q>  (74) 
0

>  <s_lp_Force_Field>  (74) 
OPLS3e

>  <r_lp_Energy>  (74) 
47.3237

>  <b_lp_Chiralities_Consistent>  (74) 
1

>  <s_lp_Variant>  (74) 
24:0-1

>  <s_i_glide_gridfile>  (74) 
pfpi4k_grid

>  <i_i_glide_lignum>  (74) 
35

>  <i_i_glide_rotatable_bonds>  (74) 
4

>  <r_i_docking_score>  (74) 
-3.03129

>  <r_i_glide_ligand_efficiency>  (74) 
-0.0918573

>  <r_i_glide_ligand_efficiency_sa>  (74) 
-0.294635

>  <r_i_glide_ligand_efficiency_ln>  (74) 
-0.674144

>  <r_i_glide_gscore>  (74) 
-3.03129

>  <r_i_glide_lipo>  (74) 
-0.690046

>  <r_i_glide_hbond>  (74) 
-0.373807

>  <r_i_glide_metal>  (74) 
-0

>  <r_i_glide_rewards>  (74) 
-0.329429

>  <r_i_glide_evdw>  (74) 
-29.7911

>  <r_i_glide_ecoul>  (74) 
-2.91908

>  <r_i_glide_erotb>  (74) 
0.29496

>  <r_i_glide_esite>  (74) 
-0.00555185

>  <r_i_glide_emodel>  (74) 
-36.2645

>  <r_i_glide_energy>  (74) 
-32.7102

>  <r_i_glide_einternal>  (74) 
5.14216

>  <r_i_glide_intrahb_reward>  (74) 
-0

>  <i_i_glide_confnum>  (74) 
2

>  <i_i_glide_posenum>  (74) 
1

>  <r_i_glide_eff_state_penalty>  (74) 
0

>  <ligand_id>  (74) 
24

>  <original_smiles>  (74) 
CC12CCC(O)CC1=CCC1C2CCC2(C)C(C(=O)NC3C4CC5CC(C4)CC3C5)CCC12

>  <smiles>  (74) 
[H]OC1([H])C([H])([H])C2=C([H])C([H])([H])C3([H])C([H])(C([H])([H])C([H])([H])C4(C([H])([H])[H])C([H])(C(=O)N([H])C5([H])C6([H])C([H])([H])C7([H])C([H])([H])C([H])(C6([H])[H])C([H])([H])C5([H])C7([H])[H])C([H])([H])C([H])([H])C34[H])C2(C([H])([H])[H])C([H])([H])C1([H])[H]

$$$$
24:0:1
     RDKit          3D

 78 84  0  0  1  0  0  0  0  0999 V2000
   -2.6664    2.4388    6.8777 C   0  0  0  0  0  0  0  0  0  0  0  0
   -1.1731    2.5936    7.2237 C   0  0  2  0  0  0  0  0  0  0  0  0
   -0.8608    1.7252    8.4847 C   0  0  0  0  0  0  0  0  0  0  0  0
   -1.5719    2.2216    9.7613 C   0  0  0  0  0  0  0  0  0  0  0  0
   -1.2138    3.6874   10.0464 C   0  0  1  0  0  0  0  0  0  0  0  0
    0.1539    3.7917   10.3752 O   0  0  0  0  0  0  0  0  0  0  0  0
   -1.5159    4.5948    8.8393 C   0  0  0  0  0  0  0  0  0  0  0  0
   -0.9504    4.0841    7.5225 C   0  0  0  0  0  0  0  0  0  0  0  0
   -0.3506    4.9306    6.6706 C   0  0  0  0  0  0  0  0  0  0  0  0
    0.1998    4.5395    5.3078 C   0  0  0  0  0  0  0  0  0  0  0  0
   -0.3667    3.1581    4.8341 C   0  0  2  0  0  0  0  0  0  0  0  0
   -0.3720    2.1071    5.9738 C   0  0  1  0  0  0  0  0  0  0  0  0
    1.0703    1.6195    6.2315 C   0  0  0  0  0  0  0  0  0  0  0  0
    1.6890    1.0417    4.9514 C   0  0  0  0  0  0  0  0  0  0  0  0
    1.7343    2.0498    3.7853 C   0  0  1  0  0  0  0  0  0  0  0  0
    2.8386    3.1040    4.0560 C   0  0  0  0  0  0  0  0  0  0  0  0
    1.9895    1.3487    2.4053 C   0  0  1  0  0  0  0  0  0  0  0  0
    3.0159    0.1978    2.4209 C   0  0  0  0  0  0  0  0  0  0  0  0
    3.9183    0.1983    3.2681 O   0  0  0  0  0  0  0  0  0  0  0  0
    2.8801   -0.7631    1.5038 N   0  0  0  0  0  0  0  0  0  0  0  0
    3.6779   -1.9830    1.4474 C   0  0  2  0  0  0  0  0  0  0  0  0
    5.2088   -1.7017    1.3612 C   0  0  1  0  0  0  0  0  0  0  0  0
    5.9704   -3.0377    1.3608 C   0  0  0  0  0  0  0  0  0  0  0  0
    5.5481   -3.8589    0.1288 C   0  0  2  0  0  0  0  0  0  0  0  0
    5.8775   -3.0581   -1.1516 C   0  0  0  0  0  0  0  0  0  0  0  0
    5.0936   -1.7267   -1.1497 C   0  0  2  0  0  0  0  0  0  0  0  0
    5.5225   -0.8993    0.0821 C   0  0  0  0  0  0  0  0  0  0  0  0
    3.5765   -2.0111   -1.0785 C   0  0  0  0  0  0  0  0  0  0  0  0
    3.2622   -2.8074    0.2099 C   0  0  1  0  0  0  0  0  0  0  0  0
    4.0346   -4.1442    0.1963 C   0  0  0  0  0  0  0  0  0  0  0  0
    0.6047    0.9202    1.8694 C   0  0  0  0  0  0  0  0  0  0  0  0
   -0.4332    1.6335    2.7327 C   0  0  0  0  0  0  0  0  0  0  0  0
    0.3600    2.6667    3.5632 C   0  0  1  0  0  0  0  0  0  0  0  0
   -2.9093    1.4020    6.6146 H   0  0  0  0  0  0  0  0  0  0  0  0
   -2.9517    3.0779    6.0394 H   0  0  0  0  0  0  0  0  0  0  0  0
   -3.3346    2.7327    7.6893 H   0  0  0  0  0  0  0  0  0  0  0  0
   -1.1000    0.6764    8.2943 H   0  0  0  0  0  0  0  0  0  0  0  0
    0.2129    1.7313    8.7028 H   0  0  0  0  0  0  0  0  0  0  0  0
   -2.6492    2.1403    9.6511 H   0  0  0  0  0  0  0  0  0  0  0  0
   -1.3295    1.5838   10.6161 H   0  0  0  0  0  0  0  0  0  0  0  0
   -1.7968    4.0343   10.9072 H   0  0  0  0  0  0  0  0  0  0  0  0
    0.3091    3.2610   11.1541 H   0  0  0  0  0  0  0  0  0  0  0  0
   -2.5919    4.6592    8.7023 H   0  0  0  0  0  0  0  0  0  0  0  0
   -1.1811    5.6180    9.0368 H   0  0  0  0  0  0  0  0  0  0  0  0
   -0.2078    5.9622    6.9476 H   0  0  0  0  0  0  0  0  0  0  0  0
   -0.1021    5.3133    4.5689 H   0  0  0  0  0  0  0  0  0  0  0  0
    1.2601    4.5515    5.4210 H   0  0  0  0  0  0  0  0  0  0  0  0
   -1.4051    3.3134    4.5312 H   0  0  0  0  0  0  0  0  0  0  0  0
   -0.8618    1.2119    5.6028 H   0  0  0  0  0  0  0  0  0  0  0  0
    1.6978    2.4127    6.6297 H   0  0  0  0  0  0  0  0  0  0  0  0
    1.1072    0.8078    6.9666 H   0  0  0  0  0  0  0  0  0  0  0  0
    2.6815    0.7103    5.2526 H   0  0  0  0  0  0  0  0  0  0  0  0
    1.1344    0.1397    4.6672 H   0  0  0  0  0  0  0  0  0  0  0  0
    2.8227    3.8995    3.2905 H   0  0  0  0  0  0  0  0  0  0  0  0
    3.8620    2.6548    3.9813 H   0  0  0  0  0  0  0  0  0  0  0  0
    2.7276    3.5646    5.0126 H   0  0  0  0  0  0  0  0  0  0  0  0
    2.3860    2.0871    1.7040 H   0  0  0  0  0  0  0  0  0  0  0  0
    2.1547   -0.6539    0.7977 H   0  0  0  0  0  0  0  0  0  0  0  0
    3.4633   -2.5529    2.3564 H   0  0  0  0  0  0  0  0  0  0  0  0
    5.5923   -1.1548    2.2179 H   0  0  0  0  0  0  0  0  0  0  0  0
    7.0413   -2.8426    1.3518 H   0  0  0  0  0  0  0  0  0  0  0  0
    5.7594   -3.5801    2.2827 H   0  0  0  0  0  0  0  0  0  0  0  0
    6.0956   -4.7992    0.1246 H   0  0  0  0  0  0  0  0  0  0  0  0
    6.9454   -2.8553   -1.1972 H   0  0  0  0  0  0  0  0  0  0  0  0
    5.6247   -3.6445   -2.0331 H   0  0  0  0  0  0  0  0  0  0  0  0
    5.3086   -1.1628   -2.0562 H   0  0  0  0  0  0  0  0  0  0  0  0
    5.0014    0.0577    0.0899 H   0  0  0  0  0  0  0  0  0  0  0  0
    6.5855   -0.6625    0.0533 H   0  0  0  0  0  0  0  0  0  0  0  0
    3.0219   -1.0742   -1.0925 H   0  0  0  0  0  0  0  0  0  0  0  0
    3.2395   -2.5636   -1.9560 H   0  0  0  0  0  0  0  0  0  0  0  0
    2.1933   -3.0122    0.2582 H   0  0  0  0  0  0  0  0  0  0  0  0
    3.7263   -4.7408   -0.6609 H   0  0  0  0  0  0  0  0  0  0  0  0
    3.7952   -4.7238    1.0866 H   0  0  0  0  0  0  0  0  0  0  0  0
    0.5121    1.2216    0.8282 H   0  0  0  0  0  0  0  0  0  0  0  0
    0.4185   -0.1554    1.9031 H   0  0  0  0  0  0  0  0  0  0  0  0
   -1.2193    2.0773    2.1080 H   0  0  0  0  0  0  0  0  0  0  0  0
   -0.9301    0.8844    3.3626 H   0  0  0  0  0  0  0  0  0  0  0  0
    0.4446    3.5421    2.9262 H   0  0  0  0  0  0  0  0  0  0  0  0
  2  1  1  6
  1 34  1  0
  1 35  1  0
  1 36  1  0
  2  8  1  0
  2 12  1  0
  2  3  1  0
  3  4  1  0
  3 37  1  0
  3 38  1  0
  4  5  1  0
  4 39  1  0
  4 40  1  0
  5  6  1  0
  5  7  1  0
  5 41  1  1
  6 42  1  0
  7  8  1  0
  7 43  1  0
  7 44  1  0
  8  9  2  0
  9 10  1  0
  9 45  1  0
 10 11  1  0
 10 46  1  0
 10 47  1  0
 11 33  1  0
 11 12  1  0
 11 48  1  6
 12 13  1  0
 12 49  1  6
 13 14  1  0
 13 50  1  0
 13 51  1  0
 14 15  1  0
 14 52  1  0
 14 53  1  0
 15 33  1  0
 15 16  1  1
 15 17  1  0
 16 54  1  0
 16 55  1  0
 16 56  1  0
 17 18  1  0
 17 31  1  0
 17 57  1  6
 18 19  2  0
 18 20  1  0
 20 21  1  0
 20 58  1  0
 21 29  1  0
 21 22  1  0
 21 59  1  1
 22 27  1  0
 22 23  1  0
 22 60  1  1
 23 24  1  0
 23 61  1  0
 23 62  1  0
 24 30  1  0
 24 25  1  0
 24 63  1  6
 25 26  1  0
 25 64  1  0
 25 65  1  0
 26 27  1  0
 26 28  1  0
 26 66  1  6
 27 67  1  0
 27 68  1  0
 28 29  1  0
 28 69  1  0
 28 70  1  0
 29 30  1  0
 29 71  1  1
 30 72  1  0
 30 73  1  0
 31 32  1  0
 31 74  1  0
 31 75  1  0
 32 33  1  0
 32 76  1  0
 32 77  1  0
 33 78  1  6
M  END
>  <i_m_ct_stereo_status>  (75) 
1

>  <s_m_source_file>  (75) 
/var/tmp/pbs.5076255.sched01/tmprv8ptrg5/026yimkau.sdf

>  <i_m_source_file_index>  (75) 
35

>  <i_lp_mmshare_version>  (75) 
48012

>  <i_f3d_flags>  (75) 
0

>  <s_epik_input>  (75) 
W0NIMl0xW0NIMl1bQ0BASF0oW09IXSlbQ0gyXUMoW0NAXTEyW0NIM10pPVtDSF1bQ0gyXVtDQEBIXTNbQ0BIXTJbQ0gyXVtDSDJdW0NAXTQoW0NIM10pW0NASF0zW0NIMl1bQ0gyXVtDQEBIXTRDKD1PKVtOSF1bQ0BIXShbQ0BASF01NilbQ0BIXTdbQ0gyXVtDQEBIXShbQ0gyXTYpW0NIMl1bQ0BASF0oW0NIMl01KVtDSDJdNw==

>  <s_epik_cmdline>  (75) 
J2VwaWtfcHl0aG9uJywgJy1waHQnLCAnMi4wJywgJy1waCcsICc3LjAnLCAnLXRuJywgJzgnLCAnLW1hJywgJzIwMCcsICctaW1hZScsICc8aW5maWxlLm1hZT4nLCAnLW9tYWUnLCAnPG91dGZpbGUubWFlPic=

>  <r_lp_tautomer_probability>  (75) 
1

>  <r_epik_Ionization_Penalty>  (75) 
1.39644e-06

>  <r_epik_Ionization_Penalty_Charging>  (75) 
0

>  <r_epik_Ionization_Penalty_Neutral>  (75) 
1.39644e-06

>  <r_epik_State_Penalty>  (75) 
-0

>  <r_epik_Charging_Adjusted_Penalty>  (75) 
0

>  <i_epik_Tot_Q>  (75) 
0

>  <i_epik_Tot_abs_Q>  (75) 
0

>  <s_lp_Force_Field>  (75) 
OPLS3e

>  <r_lp_Energy>  (75) 
47.3237

>  <b_lp_Chiralities_Consistent>  (75) 
1

>  <s_lp_Variant>  (75) 
24:0-1

>  <s_i_glide_gridfile>  (75) 
pfpi4k_grid

>  <i_i_glide_lignum>  (75) 
35

>  <i_i_glide_rotatable_bonds>  (75) 
4

>  <r_i_docking_score>  (75) 
-2.92548

>  <r_i_glide_ligand_efficiency>  (75) 
-0.088651

>  <r_i_glide_ligand_efficiency_sa>  (75) 
-0.284351

>  <r_i_glide_ligand_efficiency_ln>  (75) 
-0.650612

>  <r_i_glide_gscore>  (75) 
-2.92548

>  <r_i_glide_lipo>  (75) 
-0.480779

>  <r_i_glide_hbond>  (75) 
-0.108732

>  <r_i_glide_metal>  (75) 
-0

>  <r_i_glide_rewards>  (75) 
-0.373632

>  <r_i_glide_evdw>  (75) 
-36.2588

>  <r_i_glide_ecoul>  (75) 
-2.64952

>  <r_i_glide_erotb>  (75) 
0.29496

>  <r_i_glide_esite>  (75) 
-0.0469304

>  <r_i_glide_emodel>  (75) 
-42.2083

>  <r_i_glide_energy>  (75) 
-38.9084

>  <r_i_glide_einternal>  (75) 
5.79191

>  <r_i_glide_intrahb_reward>  (75) 
-0

>  <i_i_glide_confnum>  (75) 
3

>  <i_i_glide_posenum>  (75) 
17

>  <r_i_glide_eff_state_penalty>  (75) 
0

>  <ligand_id>  (75) 
24

>  <original_smiles>  (75) 
CC12CCC(O)CC1=CCC1C2CCC2(C)C(C(=O)NC3C4CC5CC(C4)CC3C5)CCC12

>  <smiles>  (75) 
[H]OC1([H])C([H])([H])C2=C([H])C([H])([H])C3([H])C([H])(C([H])([H])C([H])([H])C4(C([H])([H])[H])C([H])(C(=O)N([H])C5([H])C6([H])C([H])([H])C7([H])C([H])([H])C([H])(C6([H])[H])C([H])([H])C5([H])C7([H])[H])C([H])([H])C([H])([H])C34[H])C2(C([H])([H])[H])C([H])([H])C1([H])[H]

$$$$
24:0:2
     RDKit          3D

 78 84  0  0  1  0  0  0  0  0999 V2000
    5.0957   -4.6483    0.6402 C   0  0  0  0  0  0  0  0  0  0  0  0
    4.5479   -3.2213    0.3648 C   0  0  2  0  0  0  0  0  0  0  0  0
    3.5293   -3.2851   -0.8251 C   0  0  0  0  0  0  0  0  0  0  0  0
    4.1931   -3.6444   -2.1722 C   0  0  0  0  0  0  0  0  0  0  0  0
    5.3071   -2.6745   -2.5372 C   0  0  1  0  0  0  0  0  0  0  0  0
    4.7302   -1.4050   -2.7651 O   0  0  0  0  0  0  0  0  0  0  0  0
    6.3512   -2.5928   -1.4072 C   0  0  0  0  0  0  0  0  0  0  0  0
    5.7649   -2.3583   -0.0173 C   0  0  0  0  0  0  0  0  0  0  0  0
    6.3145   -1.4476    0.8081 C   0  0  0  0  0  0  0  0  0  0  0  0
    5.8108   -1.1385    2.2002 C   0  0  0  0  0  0  0  0  0  0  0  0
    4.8890   -2.2683    2.7547 C   0  0  2  0  0  0  0  0  0  0  0  0
    3.8542   -2.7256    1.6904 C   0  0  1  0  0  0  0  0  0  0  0  0
    2.7533   -1.6413    1.5516 C   0  0  0  0  0  0  0  0  0  0  0  0
    2.0663   -1.3729    2.8973 C   0  0  0  0  0  0  0  0  0  0  0  0
    3.0426   -0.8959    3.9980 C   0  0  1  0  0  0  0  0  0  0  0  0
    3.4454    0.5790    3.7223 C   0  0  0  0  0  0  0  0  0  0  0  0
    2.4050   -1.0462    5.4248 C   0  0  1  0  0  0  0  0  0  0  0  0
    0.9144   -0.6392    5.5170 C   0  0  0  0  0  0  0  0  0  0  0  0
    0.0026   -1.4776    5.4862 O   0  0  0  0  0  0  0  0  0  0  0  0
    0.6742    0.6681    5.6277 N   0  0  0  0  0  0  0  0  0  0  0  0
   -0.6294    1.2677    5.8737 C   0  0  2  0  0  0  0  0  0  0  0  0
   -0.7036    2.6889    5.2725 C   0  0  1  0  0  0  0  0  0  0  0  0
   -2.1159    3.2560    5.5294 C   0  0  0  0  0  0  0  0  0  0  0  0
   -2.3694    3.3308    7.0532 C   0  0  2  0  0  0  0  0  0  0  0  0
   -1.3144    4.2417    7.7131 C   0  0  0  0  0  0  0  0  0  0  0  0
    0.0925    3.6654    7.4613 C   0  0  2  0  0  0  0  0  0  0  0  0
    0.3513    3.6063    5.9387 C   0  0  0  0  0  0  0  0  0  0  0  0
    0.1870    2.2498    8.0662 C   0  0  0  0  0  0  0  0  0  0  0  0
   -0.8747    1.3438    7.4003 C   0  0  1  0  0  0  0  0  0  0  0  0
   -2.2771    1.9221    7.6614 C   0  0  0  0  0  0  0  0  0  0  0  0
    2.6934   -2.4894    5.9221 C   0  0  0  0  0  0  0  0  0  0  0  0
    3.7195   -3.0691    4.9452 C   0  0  0  0  0  0  0  0  0  0  0  0
    4.2320   -1.8772    4.0999 C   0  0  1  0  0  0  0  0  0  0  0  0
    4.3029   -5.3358    0.9549 H   0  0  0  0  0  0  0  0  0  0  0  0
    5.8631   -4.6375    1.4173 H   0  0  0  0  0  0  0  0  0  0  0  0
    5.5975   -5.1011   -0.2174 H   0  0  0  0  0  0  0  0  0  0  0  0
    2.7266   -3.9903   -0.5978 H   0  0  0  0  0  0  0  0  0  0  0  0
    3.0188   -2.3246   -0.9580 H   0  0  0  0  0  0  0  0  0  0  0  0
    4.6333   -4.6369   -2.1242 H   0  0  0  0  0  0  0  0  0  0  0  0
    3.4434   -3.6951   -2.9603 H   0  0  0  0  0  0  0  0  0  0  0  0
    5.8143   -3.0336   -3.4385 H   0  0  0  0  0  0  0  0  0  0  0  0
    4.1542   -1.2260   -2.0336 H   0  0  0  0  0  0  0  0  0  0  0  0
    6.8972   -3.5269   -1.3346 H   0  0  0  0  0  0  0  0  0  0  0  0
    7.1146   -1.8575   -1.6485 H   0  0  0  0  0  0  0  0  0  0  0  0
    7.1628   -0.8696    0.4737 H   0  0  0  0  0  0  0  0  0  0  0  0
    6.7094   -1.0884    2.8263 H   0  0  0  0  0  0  0  0  0  0  0  0
    5.3499   -0.1759    2.1350 H   0  0  0  0  0  0  0  0  0  0  0  0
    5.4966   -3.1479    2.9925 H   0  0  0  0  0  0  0  0  0  0  0  0
    3.2933   -3.5737    2.0830 H   0  0  0  0  0  0  0  0  0  0  0  0
    3.1480   -0.7279    1.1143 H   0  0  0  0  0  0  0  0  0  0  0  0
    1.9527   -1.9712    0.8894 H   0  0  0  0  0  0  0  0  0  0  0  0
    1.2852   -0.6355    2.7227 H   0  0  0  0  0  0  0  0  0  0  0  0
    1.5413   -2.2917    3.1904 H   0  0  0  0  0  0  0  0  0  0  0  0
    4.2397    0.8820    4.4030 H   0  0  0  0  0  0  0  0  0  0  0  0
    2.6066    1.2819    3.9301 H   0  0  0  0  0  0  0  0  0  0  0  0
    3.8189    0.6972    2.7275 H   0  0  0  0  0  0  0  0  0  0  0  0
    2.9672   -0.3930    6.1000 H   0  0  0  0  0  0  0  0  0  0  0  0
    1.4750    1.2882    5.6167 H   0  0  0  0  0  0  0  0  0  0  0  0
   -1.4147    0.6644    5.4023 H   0  0  0  0  0  0  0  0  0  0  0  0
   -0.5258    2.6418    4.1964 H   0  0  0  0  0  0  0  0  0  0  0  0
   -2.1952    4.2413    5.0765 H   0  0  0  0  0  0  0  0  0  0  0  0
   -2.8714    2.6354    5.0466 H   0  0  0  0  0  0  0  0  0  0  0  0
   -3.3609    3.7323    7.2496 H   0  0  0  0  0  0  0  0  0  0  0  0
   -1.3722    5.2456    7.2993 H   0  0  0  0  0  0  0  0  0  0  0  0
   -1.5085    4.3283    8.7824 H   0  0  0  0  0  0  0  0  0  0  0  0
    0.8370    4.3059    7.9307 H   0  0  0  0  0  0  0  0  0  0  0  0
    1.3644    3.2542    5.7445 H   0  0  0  0  0  0  0  0  0  0  0  0
    0.3007    4.6053    5.5062 H   0  0  0  0  0  0  0  0  0  0  0  0
    1.1899    1.8520    7.9187 H   0  0  0  0  0  0  0  0  0  0  0  0
    0.0349    2.2836    9.1463 H   0  0  0  0  0  0  0  0  0  0  0  0
   -0.8140    0.3460    7.8346 H   0  0  0  0  0  0  0  0  0  0  0  0
   -2.4779    1.9602    8.7317 H   0  0  0  0  0  0  0  0  0  0  0  0
   -3.0360    1.2832    7.2174 H   0  0  0  0  0  0  0  0  0  0  0  0
    3.0951   -2.4524    6.9399 H   0  0  0  0  0  0  0  0  0  0  0  0
    1.8187   -3.1491    5.9601 H   0  0  0  0  0  0  0  0  0  0  0  0
    4.5179   -3.5945    5.4791 H   0  0  0  0  0  0  0  0  0  0  0  0
    3.2234   -3.8240    4.3305 H   0  0  0  0  0  0  0  0  0  0  0  0
    5.0177   -1.4436    4.7181 H   0  0  0  0  0  0  0  0  0  0  0  0
  2  1  1  1
  1 34  1  0
  1 35  1  0
  1 36  1  0
  2  8  1  0
  2 12  1  0
  2  3  1  0
  3  4  1  0
  3 37  1  0
  3 38  1  0
  4  5  1  0
  4 39  1  0
  4 40  1  0
  5  6  1  0
  5  7  1  0
  5 41  1  6
  6 42  1  0
  7  8  1  0
  7 43  1  0
  7 44  1  0
  8  9  2  0
  9 10  1  0
  9 45  1  0
 10 11  1  0
 10 46  1  0
 10 47  1  0
 11 33  1  0
 11 12  1  0
 11 48  1  1
 12 13  1  0
 12 49  1  1
 13 14  1  0
 13 50  1  0
 13 51  1  0
 14 15  1  0
 14 52  1  0
 14 53  1  0
 15 33  1  0
 15 16  1  6
 15 17  1  0
 16 54  1  0
 16 55  1  0
 16 56  1  0
 17 18  1  0
 17 31  1  0
 17 57  1  1
 18 19  2  0
 18 20  1  0
 20 21  1  0
 20 58  1  0
 21 29  1  0
 21 22  1  0
 21 59  1  6
 22 27  1  0
 22 23  1  0
 22 60  1  6
 23 24  1  0
 23 61  1  0
 23 62  1  0
 24 30  1  0
 24 25  1  0
 24 63  1  6
 25 26  1  0
 25 64  1  0
 25 65  1  0
 26 27  1  0
 26 28  1  0
 26 66  1  1
 27 67  1  0
 27 68  1  0
 28 29  1  0
 28 69  1  0
 28 70  1  0
 29 30  1  0
 29 71  1  1
 30 72  1  0
 30 73  1  0
 31 32  1  0
 31 74  1  0
 31 75  1  0
 32 33  1  0
 32 76  1  0
 32 77  1  0
 33 78  1  1
M  END
>  <i_m_ct_stereo_status>  (76) 
1

>  <s_m_source_file>  (76) 
/var/tmp/pbs.5076255.sched01/tmprv8ptrg5/026yimkau.sdf

>  <i_m_source_file_index>  (76) 
35

>  <i_lp_mmshare_version>  (76) 
48012

>  <i_f3d_flags>  (76) 
0

>  <s_epik_input>  (76) 
W0NIMl0xW0NIMl1bQ0BASF0oW09IXSlbQ0gyXUMoW0NAXTEyW0NIM10pPVtDSF1bQ0gyXVtDQEBIXTNbQ0BIXTJbQ0gyXVtDSDJdW0NAXTQoW0NIM10pW0NASF0zW0NIMl1bQ0gyXVtDQEBIXTRDKD1PKVtOSF1bQ0BIXShbQ0BASF01NilbQ0BIXTdbQ0gyXVtDQEBIXShbQ0gyXTYpW0NIMl1bQ0BASF0oW0NIMl01KVtDSDJdNw==

>  <s_epik_cmdline>  (76) 
J2VwaWtfcHl0aG9uJywgJy1waHQnLCAnMi4wJywgJy1waCcsICc3LjAnLCAnLXRuJywgJzgnLCAnLW1hJywgJzIwMCcsICctaW1hZScsICc8aW5maWxlLm1hZT4nLCAnLW9tYWUnLCAnPG91dGZpbGUubWFlPic=

>  <r_lp_tautomer_probability>  (76) 
1

>  <r_epik_Ionization_Penalty>  (76) 
1.39644e-06

>  <r_epik_Ionization_Penalty_Charging>  (76) 
0

>  <r_epik_Ionization_Penalty_Neutral>  (76) 
1.39644e-06

>  <r_epik_State_Penalty>  (76) 
-0

>  <r_epik_Charging_Adjusted_Penalty>  (76) 
0

>  <i_epik_Tot_Q>  (76) 
0

>  <i_epik_Tot_abs_Q>  (76) 
0

>  <s_lp_Force_Field>  (76) 
OPLS3e

>  <r_lp_Energy>  (76) 
47.3237

>  <b_lp_Chiralities_Consistent>  (76) 
1

>  <s_lp_Variant>  (76) 
24:0-1

>  <s_i_glide_gridfile>  (76) 
pfpi4k_grid

>  <i_i_glide_lignum>  (76) 
35

>  <i_i_glide_rotatable_bonds>  (76) 
4

>  <r_i_docking_score>  (76) 
-2.34883

>  <r_i_glide_ligand_efficiency>  (76) 
-0.0711768

>  <r_i_glide_ligand_efficiency_sa>  (76) 
-0.228302

>  <r_i_glide_ligand_efficiency_ln>  (76) 
-0.522368

>  <r_i_glide_gscore>  (76) 
-2.34883

>  <r_i_glide_lipo>  (76) 
-0.657892

>  <r_i_glide_hbond>  (76) 
0

>  <r_i_glide_metal>  (76) 
-0

>  <r_i_glide_rewards>  (76) 
-0.329429

>  <r_i_glide_evdw>  (76) 
-30.815

>  <r_i_glide_ecoul>  (76) 
-0.728142

>  <r_i_glide_erotb>  (76) 
0.29496

>  <r_i_glide_esite>  (76) 
-0.00650105

>  <r_i_glide_emodel>  (76) 
-35.7768

>  <r_i_glide_energy>  (76) 
-31.5431

>  <r_i_glide_einternal>  (76) 
0.70096

>  <r_i_glide_intrahb_reward>  (76) 
-0

>  <i_i_glide_confnum>  (76) 
4

>  <i_i_glide_posenum>  (76) 
2

>  <r_i_glide_eff_state_penalty>  (76) 
0

>  <ligand_id>  (76) 
24

>  <original_smiles>  (76) 
CC12CCC(O)CC1=CCC1C2CCC2(C)C(C(=O)NC3C4CC5CC(C4)CC3C5)CCC12

>  <smiles>  (76) 
[H]OC1([H])C([H])([H])C2=C([H])C([H])([H])C3([H])C([H])(C([H])([H])C([H])([H])C4(C([H])([H])[H])C([H])(C(=O)N([H])C5([H])C6([H])C([H])([H])C7([H])C([H])([H])C([H])(C6([H])[H])C([H])([H])C5([H])C7([H])[H])C([H])([H])C([H])([H])C34[H])C2(C([H])([H])[H])C([H])([H])C1([H])[H]

$$$$
25:0:0
     RDKit          3D

 78 84  0  0  1  0  0  0  0  0999 V2000
    2.2225   -0.7582    4.9442 C   0  0  0  0  0  0  0  0  0  0  0  0
    3.1509   -1.0682    3.9200 O   0  0  0  0  0  0  0  0  0  0  0  0
    4.2170   -1.8335    4.2128 C   0  0  0  0  0  0  0  0  0  0  0  0
    4.4784   -2.2886    5.3273 O   0  0  0  0  0  0  0  0  0  0  0  0
    5.1531   -2.0908    3.0155 C   0  0  2  0  0  0  0  0  0  0  0  0
    5.8354   -0.7372    2.7251 C   0  0  0  0  0  0  0  0  0  0  0  0
    4.4396   -2.7657    1.7827 C   0  0  2  0  0  0  0  0  0  0  0  0
    3.7549   -4.2312    1.9493 C   0  0  1  0  0  0  0  0  0  0  0  0
    2.2384   -3.9102    2.1505 C   0  0  0  0  0  0  0  0  0  0  0  0
    3.9587   -4.9027    0.4988 C   0  0  2  0  0  0  0  0  0  0  0  0
    4.9765   -6.0555    0.2179 C   0  0  0  0  0  0  0  0  0  0  0  0
    5.0887   -7.1866    1.2354 C   0  0  2  0  0  0  0  0  0  0  0  0
    3.7639   -7.5054    1.6264 O   0  0  0  0  0  0  0  0  0  0  0  0
    3.5355   -8.2686    2.6843 C   0  0  0  0  0  0  0  0  0  0  0  0
    4.0373   -9.3790    2.8743 O   0  0  0  0  0  0  0  0  0  0  0  0
    2.7331   -7.5366    3.7119 C   0  0  2  0  0  0  0  0  0  0  0  0
    2.0184   -8.4644    4.6760 C   0  0  0  0  0  0  0  0  0  0  0  0
    1.9210   -6.4482    3.2318 O   0  0  0  0  0  0  0  0  0  0  0  0
    3.0856   -6.0455    3.9957 C   0  0  1  0  0  0  0  0  0  0  0  0
    2.8514   -5.5140    5.4229 C   0  0  1  0  0  0  0  0  0  0  0  0
    1.5654   -5.8044    5.9355 O   0  0  0  0  0  0  0  0  0  0  0  0
    4.0017   -5.8830    6.4239 C   0  0  1  0  0  0  0  0  0  0  0  0
    3.5297   -6.5608    7.7316 C   0  0  0  0  0  0  0  0  0  0  0  0
    5.1887   -6.6718    5.8033 C   0  0  0  0  0  0  0  0  0  0  0  0
    6.0702   -5.8507    4.8398 C   0  0  0  0  0  0  0  0  0  0  0  0
    5.5938   -5.6651    3.3716 C   0  0  1  0  0  0  0  0  0  0  0  0
    6.0113   -6.7924    2.4090 C   0  0  0  0  0  0  0  0  0  0  0  0
    7.0962   -7.3488    2.5373 O   0  0  0  0  0  0  0  0  0  0  0  0
    4.1461   -5.1375    3.2407 C   0  0  1  0  0  0  0  0  0  0  0  0
    4.2180   -3.6899   -0.4463 C   0  0  2  0  0  0  0  0  0  0  0  0
    2.7989   -3.0740   -0.7582 C   0  0  0  0  0  0  0  0  0  0  0  0
    4.8786   -3.7750   -1.8509 C   0  0  0  0  0  0  0  0  0  0  0  0
    5.2989   -2.3421   -2.2880 C   0  0  1  0  0  0  0  0  0  0  0  0
    4.5823   -1.2893   -1.6001 O   0  0  0  0  0  0  0  0  0  0  0  0
    5.4342   -1.4877   -0.4516 C   0  0  2  0  0  0  0  0  0  0  0  0
    6.3823   -1.8430   -1.4910 O   0  0  0  0  0  0  0  0  0  0  0  0
    5.1824   -2.7873    0.3906 C   0  0  1  0  0  0  0  0  0  0  0  0
    6.6070   -3.3740    0.6387 C   0  0  0  0  0  0  0  0  0  0  0  0
    1.4319   -0.1272    4.5360 H   0  0  0  0  0  0  0  0  0  0  0  0
    2.6976   -0.2166    5.7653 H   0  0  0  0  0  0  0  0  0  0  0  0
    1.7616   -1.6598    5.3415 H   0  0  0  0  0  0  0  0  0  0  0  0
    5.9197   -2.7743    3.3680 H   0  0  0  0  0  0  0  0  0  0  0  0
    6.2299   -0.2915    3.6398 H   0  0  0  0  0  0  0  0  0  0  0  0
    5.1404   -0.0134    2.2973 H   0  0  0  0  0  0  0  0  0  0  0  0
    6.6852   -0.8289    2.0582 H   0  0  0  0  0  0  0  0  0  0  0  0
    3.6629   -2.0301    1.5970 H   0  0  0  0  0  0  0  0  0  0  0  0
    1.6055   -4.7047    1.7617 H   0  0  0  0  0  0  0  0  0  0  0  0
    1.8744   -3.0097    1.6554 H   0  0  0  0  0  0  0  0  0  0  0  0
    1.9849   -3.7548    3.1977 H   0  0  0  0  0  0  0  0  0  0  0  0
    3.0214   -5.3904    0.2224 H   0  0  0  0  0  0  0  0  0  0  0  0
    4.6538   -6.5124   -0.7189 H   0  0  0  0  0  0  0  0  0  0  0  0
    5.9767   -5.7164   -0.0235 H   0  0  0  0  0  0  0  0  0  0  0  0
    5.5294   -8.0593    0.7547 H   0  0  0  0  0  0  0  0  0  0  0  0
    2.5809   -8.5466    5.6048 H   0  0  0  0  0  0  0  0  0  0  0  0
    1.8883   -9.4699    4.2756 H   0  0  0  0  0  0  0  0  0  0  0  0
    1.0201   -8.0859    4.9005 H   0  0  0  0  0  0  0  0  0  0  0  0
    2.8036   -4.4287    5.3719 H   0  0  0  0  0  0  0  0  0  0  0  0
    1.4869   -6.7368    6.0261 H   0  0  0  0  0  0  0  0  0  0  0  0
    4.4186   -4.9316    6.7545 H   0  0  0  0  0  0  0  0  0  0  0  0
    3.1030   -7.5512    7.5633 H   0  0  0  0  0  0  0  0  0  0  0  0
    2.7844   -5.9585    8.2503 H   0  0  0  0  0  0  0  0  0  0  0  0
    4.3602   -6.6888    8.4256 H   0  0  0  0  0  0  0  0  0  0  0  0
    5.8425   -6.9668    6.6270 H   0  0  0  0  0  0  0  0  0  0  0  0
    4.8795   -7.6177    5.3567 H   0  0  0  0  0  0  0  0  0  0  0  0
    6.2427   -4.8689    5.2792 H   0  0  0  0  0  0  0  0  0  0  0  0
    7.0608   -6.3104    4.8337 H   0  0  0  0  0  0  0  0  0  0  0  0
    6.2287   -4.8495    3.0695 H   0  0  0  0  0  0  0  0  0  0  0  0
    4.2598   -4.3414    3.9434 H   0  0  0  0  0  0  0  0  0  0  0  0
    2.6548   -2.8223   -1.8121 H   0  0  0  0  0  0  0  0  0  0  0  0
    2.6317   -2.1374   -0.2375 H   0  0  0  0  0  0  0  0  0  0  0  0
    1.9631   -3.7369   -0.5453 H   0  0  0  0  0  0  0  0  0  0  0  0
    5.7504   -4.4188   -1.8643 H   0  0  0  0  0  0  0  0  0  0  0  0
    4.1912   -4.2096   -2.5834 H   0  0  0  0  0  0  0  0  0  0  0  0
    5.4164   -2.1765   -3.3600 H   0  0  0  0  0  0  0  0  0  0  0  0
    5.7167   -0.5700    0.0610 H   0  0  0  0  0  0  0  0  0  0  0  0
    7.1083   -3.7241   -0.2645 H   0  0  0  0  0  0  0  0  0  0  0  0
    6.6249   -4.2044    1.3166 H   0  0  0  0  0  0  0  0  0  0  0  0
    7.2757   -2.6286    1.0618 H   0  0  0  0  0  0  0  0  0  0  0  0
  1  2  1  0
  1 39  1  0
  1 40  1  0
  1 41  1  0
  2  3  1  0
  3  4  2  0
  3  5  1  0
  5  6  1  0
  5  7  1  0
  5 42  1  1
  6 43  1  0
  6 44  1  0
  6 45  1  0
  7 37  1  0
  7  8  1  0
  7 46  1  6
  8 29  1  0
  8  9  1  1
  8 10  1  0
  9 47  1  0
  9 48  1  0
  9 49  1  0
 10 11  1  0
 10 30  1  0
 10 50  1  6
 11 12  1  0
 11 51  1  0
 11 52  1  0
 12 27  1  0
 12 13  1  0
 12 53  1  6
 13 14  1  0
 14 15  2  0
 14 16  1  0
 16 19  1  0
 16 17  1  1
 16 18  1  0
 17 54  1  0
 17 55  1  0
 17 56  1  0
 19 18  1  6
 19 29  1  0
 19 20  1  0
 20 21  1  0
 20 22  1  0
 20 57  1  6
 21 58  1  0
 22 23  1  0
 22 24  1  0
 22 59  1  1
 23 60  1  0
 23 61  1  0
 23 62  1  0
 24 25  1  0
 24 63  1  0
 24 64  1  0
 25 26  1  0
 25 65  1  0
 25 66  1  0
 26 27  1  0
 26 29  1  0
 26 67  1  6
 27 28  2  0
 29 68  1  1
 30 37  1  0
 30 31  1  6
 30 32  1  0
 31 69  1  0
 31 70  1  0
 31 71  1  0
 32 33  1  0
 32 72  1  0
 32 73  1  0
 33 36  1  0
 33 34  1  0
 33 74  1  6
 34 35  1  0
 35 36  1  0
 35 37  1  0
 35 75  1  1
 37 38  1  1
 38 76  1  0
 38 77  1  0
 38 78  1  0
M  END
>  <i_m_ct_stereo_status>  (77) 
1

>  <s_m_source_file>  (77) 
/var/tmp/pbs.5076255.sched01/tmprv8ptrg5/026yimkau.sdf

>  <i_m_source_file_index>  (77) 
36

>  <i_lp_mmshare_version>  (77) 
48012

>  <i_f3d_flags>  (77) 
2

>  <s_epik_input>  (77) 
TzFbQ0BIXTJPW0NAQEhdMVtDSDJdW0NAXTMoW0NIM10pW0NAXTIoW0NIM10pW0NASF0oW0NAQEhdKFtDSDNdKUMoPU8pT1tDSDNdKVtDQEBdKFtDSDNdKShbQ0BASF0zW0NIMl1bQ0BASF00T0MoPU8pW0NAQF0oTzUpKFtDQF01NjcpW0NIM10pW0NAQEhdN1tDQEhdKEM0PU8pW0NIMl1bQ0gyXVtDQEhdKFtDSDNdKVtDQEBIXTZbT0hd

>  <s_epik_cmdline>  (77) 
J2VwaWtfcHl0aG9uJywgJy1waHQnLCAnMi4wJywgJy1waCcsICc3LjAnLCAnLXRuJywgJzgnLCAnLW1hJywgJzIwMCcsICctaW1hZScsICc8aW5maWxlLm1hZT4nLCAnLW9tYWUnLCAnPG91dGZpbGUubWFlPic=

>  <r_lp_tautomer_probability>  (77) 
1

>  <r_epik_Ionization_Penalty>  (77) 
4.40799e-08

>  <r_epik_Ionization_Penalty_Charging>  (77) 
0

>  <r_epik_Ionization_Penalty_Neutral>  (77) 
4.40799e-08

>  <r_epik_State_Penalty>  (77) 
-0

>  <r_epik_Charging_Adjusted_Penalty>  (77) 
0

>  <i_epik_Tot_Q>  (77) 
0

>  <i_epik_Tot_abs_Q>  (77) 
0

>  <s_epik_Chemistry_Notes>  (77) 
This compound has an ester and may undergo hydrolysis at high or low pH. This compound contains an acetal/aminal-like group ( X-CH(R)-Y where X, Y are N, S, or O) that may be acid/base labile, releasing an aldehyde.

>  <s_lp_Force_Field>  (77) 
OPLS3e

>  <r_lp_Energy>  (77) 
162.374

>  <b_lp_Chiralities_Consistent>  (77) 
0

>  <s_lp_Variant>  (77) 
25:0-1

>  <s_i_glide_gridfile>  (77) 
pfpi4k_grid

>  <i_i_glide_lignum>  (77) 
36

>  <i_i_glide_rotatable_bonds>  (77) 
4

>  <r_i_docking_score>  (77) 
-2.23229

>  <r_i_glide_ligand_efficiency>  (77) 
-0.0587444

>  <r_i_glide_ligand_efficiency_sa>  (77) 
-0.197497

>  <r_i_glide_ligand_efficiency_ln>  (77) 
-0.481347

>  <r_i_glide_gscore>  (77) 
-2.23229

>  <r_i_glide_lipo>  (77) 
-0.519199

>  <r_i_glide_hbond>  (77) 
-0.153527

>  <r_i_glide_metal>  (77) 
-0

>  <r_i_glide_rewards>  (77) 
-0.10939

>  <r_i_glide_evdw>  (77) 
-24.8621

>  <r_i_glide_ecoul>  (77) 
-2.11735

>  <r_i_glide_erotb>  (77) 
0.145423

>  <r_i_glide_esite>  (77) 
-0.034885

>  <r_i_glide_emodel>  (77) 
-30.5123

>  <r_i_glide_energy>  (77) 
-26.9795

>  <r_i_glide_einternal>  (77) 
0.0587372

>  <r_i_glide_intrahb_reward>  (77) 
-0

>  <i_i_glide_confnum>  (77) 
4

>  <i_i_glide_posenum>  (77) 
21

>  <r_i_glide_eff_state_penalty>  (77) 
0

>  <ligand_id>  (77) 
25

>  <original_smiles>  (77) 
COC(=O)C(C)C1C2(C)C(CC3OC(=O)C4(C)OC45C(O)C(C)CCC(C3=O)C25)C2(C)CC3OC(O3)C12C

>  <smiles>  (77) 
[H]OC1([H])C([H])(C([H])([H])[H])C([H])([H])C([H])([H])C2([H])C(=O)C3([H])OC(=O)C4(C([H])([H])[H])OC14C2([H])C1(C([H])([H])[H])C([H])(C([H])(C(=O)OC([H])([H])[H])C([H])([H])[H])C2(C([H])([H])[H])C4([H])OC([H])(O4)C([H])([H])C2(C([H])([H])[H])C1([H])C3([H])[H]

$$$$
25:0:1
     RDKit          3D

 78 84  0  0  1  0  0  0  0  0999 V2000
    7.7645   -6.5128    1.9577 C   0  0  0  0  0  0  0  0  0  0  0  0
    6.6402   -5.9038    1.3454 O   0  0  0  0  0  0  0  0  0  0  0  0
    5.5638   -5.5746    2.0874 C   0  0  0  0  0  0  0  0  0  0  0  0
    5.4708   -5.7348    3.3089 O   0  0  0  0  0  0  0  0  0  0  0  0
    4.3946   -4.9995    1.2584 C   0  0  2  0  0  0  0  0  0  0  0  0
    4.0732   -6.0786    0.1920 C   0  0  0  0  0  0  0  0  0  0  0  0
    4.6976   -3.5377    0.7394 C   0  0  2  0  0  0  0  0  0  0  0  0
    4.7213   -2.2903    1.7852 C   0  0  1  0  0  0  0  0  0  0  0  0
    6.2178   -2.0579    2.0558 C   0  0  0  0  0  0  0  0  0  0  0  0
    4.2420   -1.0267    0.9338 C   0  0  2  0  0  0  0  0  0  0  0  0
    2.8648   -0.3829    1.1529 C   0  0  0  0  0  0  0  0  0  0  0  0
    2.2814   -0.1944    2.5496 C   0  0  2  0  0  0  0  0  0  0  0  0
    3.3433    0.3339    3.3140 O   0  0  0  0  0  0  0  0  0  0  0  0
    3.2646    0.3584    4.6192 C   0  0  0  0  0  0  0  0  0  0  0  0
    2.3573    0.8859    5.2695 O   0  0  0  0  0  0  0  0  0  0  0  0
    4.3473   -0.4788    5.2123 C   0  0  2  0  0  0  0  0  0  0  0  0
    4.6679   -0.0653    6.6452 C   0  0  0  0  0  0  0  0  0  0  0  0
    5.4930   -0.6954    4.3978 O   0  0  0  0  0  0  0  0  0  0  0  0
    4.6850   -1.8651    4.5809 C   0  0  1  0  0  0  0  0  0  0  0  0
    5.1818   -2.9739    5.5335 C   0  0  1  0  0  0  0  0  0  0  0  0
    6.2294   -2.5719    6.3920 O   0  0  0  0  0  0  0  0  0  0  0  0
    4.0350   -3.6904    6.3172 C   0  0  1  0  0  0  0  0  0  0  0  0
    4.2439   -3.7529    7.8504 C   0  0  0  0  0  0  0  0  0  0  0  0
    2.5989   -3.1977    5.9897 C   0  0  0  0  0  0  0  0  0  0  0  0
    2.1009   -3.5918    4.5847 C   0  0  0  0  0  0  0  0  0  0  0  0
    2.5459   -2.7311    3.3680 C   0  0  1  0  0  0  0  0  0  0  0  0
    1.6674   -1.4931    3.1274 C   0  0  0  0  0  0  0  0  0  0  0  0
    0.4787   -1.5222    3.4127 O   0  0  0  0  0  0  0  0  0  0  0  0
    4.0707   -2.5201    3.2568 C   0  0  1  0  0  0  0  0  0  0  0  0
    4.4226   -1.5066   -0.5470 C   0  0  2  0  0  0  0  0  0  0  0  0
    5.9438   -1.2659   -0.8528 C   0  0  0  0  0  0  0  0  0  0  0  0
    3.7346   -0.8895   -1.8032 C   0  0  0  0  0  0  0  0  0  0  0  0
    3.9097   -1.8612   -3.0148 C   0  0  1  0  0  0  0  0  0  0  0  0
    5.0569   -2.7420   -2.8561 O   0  0  0  0  0  0  0  0  0  0  0  0
    4.2433   -3.5733   -1.9780 C   0  0  2  0  0  0  0  0  0  0  0  0
    3.1779   -3.0911   -2.8487 O   0  0  0  0  0  0  0  0  0  0  0  0
    3.9505   -3.0052   -0.5359 C   0  0  1  0  0  0  0  0  0  0  0  0
    2.4220   -3.2324   -0.3154 C   0  0  0  0  0  0  0  0  0  0  0  0
    8.5037   -6.7735    1.2000 H   0  0  0  0  0  0  0  0  0  0  0  0
    7.5051   -7.4277    2.4951 H   0  0  0  0  0  0  0  0  0  0  0  0
    8.2247   -5.8165    2.6574 H   0  0  0  0  0  0  0  0  0  0  0  0
    3.5261   -4.9593    1.9123 H   0  0  0  0  0  0  0  0  0  0  0  0
    3.9961   -7.0676    0.6563 H   0  0  0  0  0  0  0  0  0  0  0  0
    4.8589   -6.1533   -0.5620 H   0  0  0  0  0  0  0  0  0  0  0  0
    3.1228   -5.9261   -0.3001 H   0  0  0  0  0  0  0  0  0  0  0  0
    5.6967   -3.6831    0.3438 H   0  0  0  0  0  0  0  0  0  0  0  0
    6.4611   -1.0212    2.3140 H   0  0  0  0  0  0  0  0  0  0  0  0
    6.8986   -2.2909    1.2389 H   0  0  0  0  0  0  0  0  0  0  0  0
    6.4916   -2.7072    2.8729 H   0  0  0  0  0  0  0  0  0  0  0  0
    4.8797   -0.1676    1.1544 H   0  0  0  0  0  0  0  0  0  0  0  0
    2.8476    0.5913    0.6645 H   0  0  0  0  0  0  0  0  0  0  0  0
    2.2170   -0.9795    0.5832 H   0  0  0  0  0  0  0  0  0  0  0  0
    1.4738    0.5369    2.4915 H   0  0  0  0  0  0  0  0  0  0  0  0
    4.1727   -0.7375    7.3432 H   0  0  0  0  0  0  0  0  0  0  0  0
    4.3446    0.9471    6.8661 H   0  0  0  0  0  0  0  0  0  0  0  0
    5.7426   -0.0998    6.8123 H   0  0  0  0  0  0  0  0  0  0  0  0
    5.6902   -3.7151    4.9288 H   0  0  0  0  0  0  0  0  0  0  0  0
    5.9122   -1.8826    6.9547 H   0  0  0  0  0  0  0  0  0  0  0  0
    4.0749   -4.7342    5.9992 H   0  0  0  0  0  0  0  0  0  0  0  0
    4.2125   -2.7708    8.3202 H   0  0  0  0  0  0  0  0  0  0  0  0
    5.1992   -4.2134    8.1039 H   0  0  0  0  0  0  0  0  0  0  0  0
    3.4755   -4.3614    8.3257 H   0  0  0  0  0  0  0  0  0  0  0  0
    1.9258   -3.6891    6.6938 H   0  0  0  0  0  0  0  0  0  0  0  0
    2.4611   -2.1348    6.1856 H   0  0  0  0  0  0  0  0  0  0  0  0
    2.3756   -4.6291    4.3943 H   0  0  0  0  0  0  0  0  0  0  0  0
    1.0124   -3.6144    4.6235 H   0  0  0  0  0  0  0  0  0  0  0  0
    2.2731   -3.3914    2.5579 H   0  0  0  0  0  0  0  0  0  0  0  0
    4.3602   -3.5470    3.3797 H   0  0  0  0  0  0  0  0  0  0  0  0
    6.0928   -0.8274   -1.8324 H   0  0  0  0  0  0  0  0  0  0  0  0
    6.5378   -2.1763   -0.8785 H   0  0  0  0  0  0  0  0  0  0  0  0
    6.4211   -0.5645   -0.1683 H   0  0  0  0  0  0  0  0  0  0  0  0
    2.6749   -0.6931   -1.6657 H   0  0  0  0  0  0  0  0  0  0  0  0
    4.2002    0.0689   -2.0578 H   0  0  0  0  0  0  0  0  0  0  0  0
    3.8115   -1.4225   -4.0120 H   0  0  0  0  0  0  0  0  0  0  0  0
    4.4355   -4.6383   -2.0821 H   0  0  0  0  0  0  0  0  0  0  0  0
    1.8196   -2.6745   -1.0098 H   0  0  0  0  0  0  0  0  0  0  0  0
    2.1068   -2.9795    0.6792 H   0  0  0  0  0  0  0  0  0  0  0  0
    2.0881   -4.2413   -0.5114 H   0  0  0  0  0  0  0  0  0  0  0  0
  1  2  1  0
  1 39  1  0
  1 40  1  0
  1 41  1  0
  2  3  1  0
  3  4  2  0
  3  5  1  0
  5  6  1  0
  5  7  1  0
  5 42  1  1
  6 43  1  0
  6 44  1  0
  6 45  1  0
  7 37  1  0
  7  8  1  0
  7 46  1  6
  8 29  1  0
  8  9  1  1
  8 10  1  0
  9 47  1  0
  9 48  1  0
  9 49  1  0
 10 11  1  0
 10 30  1  0
 10 50  1  6
 11 12  1  0
 11 51  1  0
 11 52  1  0
 12 27  1  0
 12 13  1  0
 12 53  1  6
 13 14  1  0
 14 15  2  0
 14 16  1  0
 16 19  1  0
 16 17  1  1
 16 18  1  0
 17 54  1  0
 17 55  1  0
 17 56  1  0
 19 18  1  6
 19 29  1  0
 19 20  1  0
 20 21  1  0
 20 22  1  0
 20 57  1  6
 21 58  1  0
 22 23  1  0
 22 24  1  0
 22 59  1  6
 23 60  1  0
 23 61  1  0
 23 62  1  0
 24 25  1  0
 24 63  1  0
 24 64  1  0
 25 26  1  0
 25 65  1  0
 25 66  1  0
 26 27  1  0
 26 29  1  0
 26 67  1  6
 27 28  2  0
 29 68  1  1
 30 37  1  0
 30 31  1  6
 30 32  1  0
 31 69  1  0
 31 70  1  0
 31 71  1  0
 32 33  1  0
 32 72  1  0
 32 73  1  0
 33 36  1  0
 33 34  1  0
 33 74  1  6
 34 35  1  0
 35 36  1  0
 35 37  1  0
 35 75  1  1
 37 38  1  1
 38 76  1  0
 38 77  1  0
 38 78  1  0
M  END
>  <i_m_ct_stereo_status>  (78) 
1

>  <s_m_source_file>  (78) 
/var/tmp/pbs.5076255.sched01/tmprv8ptrg5/026yimkau.sdf

>  <i_m_source_file_index>  (78) 
36

>  <i_lp_mmshare_version>  (78) 
48012

>  <i_f3d_flags>  (78) 
2

>  <s_epik_input>  (78) 
TzFbQ0BIXTJPW0NAQEhdMVtDSDJdW0NAXTMoW0NIM10pW0NAXTIoW0NIM10pW0NASF0oW0NAQEhdKFtDSDNdKUMoPU8pT1tDSDNdKVtDQEBdKFtDSDNdKShbQ0BASF0zW0NIMl1bQ0BASF00T0MoPU8pW0NAQF0oTzUpKFtDQF01NjcpW0NIM10pW0NAQEhdN1tDQEhdKEM0PU8pW0NIMl1bQ0gyXVtDQEhdKFtDSDNdKVtDQEBIXTZbT0hd

>  <s_epik_cmdline>  (78) 
J2VwaWtfcHl0aG9uJywgJy1waHQnLCAnMi4wJywgJy1waCcsICc3LjAnLCAnLXRuJywgJzgnLCAnLW1hJywgJzIwMCcsICctaW1hZScsICc8aW5maWxlLm1hZT4nLCAnLW9tYWUnLCAnPG91dGZpbGUubWFlPic=

>  <r_lp_tautomer_probability>  (78) 
1

>  <r_epik_Ionization_Penalty>  (78) 
4.40799e-08

>  <r_epik_Ionization_Penalty_Charging>  (78) 
0

>  <r_epik_Ionization_Penalty_Neutral>  (78) 
4.40799e-08

>  <r_epik_State_Penalty>  (78) 
-0

>  <r_epik_Charging_Adjusted_Penalty>  (78) 
0

>  <i_epik_Tot_Q>  (78) 
0

>  <i_epik_Tot_abs_Q>  (78) 
0

>  <s_epik_Chemistry_Notes>  (78) 
This compound has an ester and may undergo hydrolysis at high or low pH. This compound contains an acetal/aminal-like group ( X-CH(R)-Y where X, Y are N, S, or O) that may be acid/base labile, releasing an aldehyde.

>  <s_lp_Force_Field>  (78) 
OPLS3e

>  <r_lp_Energy>  (78) 
162.374

>  <b_lp_Chiralities_Consistent>  (78) 
0

>  <s_lp_Variant>  (78) 
25:0-1

>  <s_i_glide_gridfile>  (78) 
pfpi4k_grid

>  <i_i_glide_lignum>  (78) 
36

>  <i_i_glide_rotatable_bonds>  (78) 
4

>  <r_i_docking_score>  (78) 
-1.45754

>  <r_i_glide_ligand_efficiency>  (78) 
-0.0383562

>  <r_i_glide_ligand_efficiency_sa>  (78) 
-0.128953

>  <r_i_glide_ligand_efficiency_ln>  (78) 
-0.314288

>  <r_i_glide_gscore>  (78) 
-1.45754

>  <r_i_glide_lipo>  (78) 
-0.296211

>  <r_i_glide_hbond>  (78) 
0

>  <r_i_glide_metal>  (78) 
-0

>  <r_i_glide_rewards>  (78) 
-0.126316

>  <r_i_glide_evdw>  (78) 
-19.8959

>  <r_i_glide_ecoul>  (78) 
-0.987677

>  <r_i_glide_erotb>  (78) 
0.145423

>  <r_i_glide_esite>  (78) 
-0.0374868

>  <r_i_glide_emodel>  (78) 
-21.2757

>  <r_i_glide_energy>  (78) 
-20.8836

>  <r_i_glide_einternal>  (78) 
1.09331

>  <r_i_glide_intrahb_reward>  (78) 
-0

>  <i_i_glide_confnum>  (78) 
2

>  <i_i_glide_posenum>  (78) 
6

>  <r_i_glide_eff_state_penalty>  (78) 
0

>  <ligand_id>  (78) 
25

>  <original_smiles>  (78) 
COC(=O)C(C)C1C2(C)C(CC3OC(=O)C4(C)OC45C(O)C(C)CCC(C3=O)C25)C2(C)CC3OC(O3)C12C

>  <smiles>  (78) 
[H]OC1([H])C([H])(C([H])([H])[H])C([H])([H])C([H])([H])C2([H])C(=O)C3([H])OC(=O)C4(C([H])([H])[H])OC14C2([H])C1(C([H])([H])[H])C([H])(C([H])(C(=O)OC([H])([H])[H])C([H])([H])[H])C2(C([H])([H])[H])C4([H])OC([H])(O4)C([H])([H])C2(C([H])([H])[H])C1([H])C3([H])[H]

$$$$
26:0:0
     RDKit          3D

 67 73  0  0  1  0  0  0  0  0999 V2000
    2.1097   -4.0579    4.8815 C   0  0  0  0  0  0  0  0  0  0  0  0
    1.3654   -5.4024    4.7069 C   0  0  0  0  0  0  0  0  0  0  0  0
    1.9647   -6.5794    3.8441 C   0  0  1  0  0  0  0  0  0  0  0  0
    0.9440   -7.7100    4.0556 C   0  0  0  0  0  0  0  0  0  0  0  0
   -0.0645   -8.0111    3.2045 C   0  0  0  0  0  0  0  0  0  0  0  0
   -0.2381   -7.3014    1.8903 C   0  0  0  0  0  0  0  0  0  0  0  0
    1.1414   -6.9704    1.3255 C   0  0  1  0  0  0  0  0  0  0  0  0
    0.9846   -6.1923    0.1516 O   0  0  0  0  0  0  0  0  0  0  0  0
    2.0717   -6.1996    2.3022 C   0  0  2  0  0  0  0  0  0  0  0  0
    3.5569   -6.2477    1.7835 C   0  0  2  0  0  0  0  0  0  0  0  0
    4.1248   -7.6968    1.9026 C   0  0  1  0  0  0  0  0  0  0  0  0
    5.6731   -7.8386    1.8684 C   0  0  1  0  0  0  0  0  0  0  0  0
    6.6390   -7.2764    2.9449 C   0  0  0  0  0  0  0  0  0  0  0  0
    5.4669   -7.7042    3.8438 C   0  0  1  0  0  0  0  0  0  0  0  0
    5.5672   -8.8351    2.8847 O   0  0  0  0  0  0  0  0  0  0  0  0
    4.0138   -8.0594    3.3739 C   0  0  1  0  0  0  0  0  0  0  0  0
    3.3768   -7.0719    4.3295 C   0  0  1  0  0  0  0  0  0  0  0  0
    4.6667   -6.2870    4.0103 C   0  0  1  0  0  0  0  0  0  0  0  0
    5.1633   -5.4992    5.1008 O   0  0  0  0  0  0  0  0  0  0  0  0
    5.5895   -6.1742    6.2917 C   0  0  0  0  0  0  0  0  0  0  0  0
    4.3946   -5.3625    2.7461 C   0  0  1  0  0  0  0  0  0  0  0  0
    5.4216   -4.3402    2.1546 C   0  0  0  0  0  0  0  0  0  0  0  0
    4.8500   -3.6364    0.9348 C   0  0  0  0  0  0  0  0  0  0  0  0
    5.0664   -4.2152   -0.3346 C   0  0  0  0  0  0  0  0  0  0  0  0
    4.5413   -3.6289   -1.4835 C   0  0  0  0  0  0  0  0  0  0  0  0
    3.7899   -2.4396   -1.3867 C   0  0  0  0  0  0  0  0  0  0  0  0
    3.2208   -1.7886   -2.6446 C   0  0  0  0  0  0  0  0  0  0  0  0
    2.2972   -2.7309   -3.4348 C   0  0  0  0  0  0  0  0  0  0  0  0
    4.3489   -1.2558   -3.5309 C   0  0  0  0  0  0  0  0  0  0  0  0
    3.5726   -1.8613   -0.1243 C   0  0  0  0  0  0  0  0  0  0  0  0
    4.0872   -2.4627    1.0428 C   0  0  0  0  0  0  0  0  0  0  0  0
    1.6020   -3.3943    5.5994 H   0  0  0  0  0  0  0  0  0  0  0  0
    2.1778   -3.5120    3.9404 H   0  0  0  0  0  0  0  0  0  0  0  0
    3.1048   -4.2203    5.2852 H   0  0  0  0  0  0  0  0  0  0  0  0
    1.1629   -5.7819    5.7082 H   0  0  0  0  0  0  0  0  0  0  0  0
    0.3902   -5.1560    4.2800 H   0  0  0  0  0  0  0  0  0  0  0  0
    1.0142   -8.2594    4.9783 H   0  0  0  0  0  0  0  0  0  0  0  0
   -0.7860   -8.7900    3.4256 H   0  0  0  0  0  0  0  0  0  0  0  0
   -0.7835   -7.9410    1.1967 H   0  0  0  0  0  0  0  0  0  0  0  0
   -0.8348   -6.4045    2.0397 H   0  0  0  0  0  0  0  0  0  0  0  0
    1.5763   -7.9317    1.0470 H   0  0  0  0  0  0  0  0  0  0  0  0
    1.8309   -6.1293   -0.2805 H   0  0  0  0  0  0  0  0  0  0  0  0
    1.7482   -5.1595    2.2344 H   0  0  0  0  0  0  0  0  0  0  0  0
    3.5650   -5.9331    0.7408 H   0  0  0  0  0  0  0  0  0  0  0  0
    3.6325   -8.4339    1.2568 H   0  0  0  0  0  0  0  0  0  0  0  0
    6.1093   -8.2158    0.9621 H   0  0  0  0  0  0  0  0  0  0  0  0
    7.5523   -7.8849    3.0179 H   0  0  0  0  0  0  0  0  0  0  0  0
    6.8909   -6.2075    2.9856 H   0  0  0  0  0  0  0  0  0  0  0  0
    3.6060   -9.0598    3.6085 H   0  0  0  0  0  0  0  0  0  0  0  0
    3.3672   -7.5249    5.3202 H   0  0  0  0  0  0  0  0  0  0  0  0
    5.8332   -5.4204    7.0385 H   0  0  0  0  0  0  0  0  0  0  0  0
    6.4917   -6.7631    6.1334 H   0  0  0  0  0  0  0  0  0  0  0  0
    4.8322   -6.8098    6.7493 H   0  0  0  0  0  0  0  0  0  0  0  0
    3.6819   -4.6115    3.0960 H   0  0  0  0  0  0  0  0  0  0  0  0
    5.6434   -3.6186    2.9417 H   0  0  0  0  0  0  0  0  0  0  0  0
    6.3869   -4.7106    1.7723 H   0  0  0  0  0  0  0  0  0  0  0  0
    5.6249   -5.1391   -0.4012 H   0  0  0  0  0  0  0  0  0  0  0  0
    4.6990   -4.1173   -2.4392 H   0  0  0  0  0  0  0  0  0  0  0  0
    2.6174   -0.9333   -2.3297 H   0  0  0  0  0  0  0  0  0  0  0  0
    1.5146   -3.1414   -2.7977 H   0  0  0  0  0  0  0  0  0  0  0  0
    2.8393   -3.5711   -3.8743 H   0  0  0  0  0  0  0  0  0  0  0  0
    1.8134   -2.1998   -4.2570 H   0  0  0  0  0  0  0  0  0  0  0  0
    4.9735   -0.5605   -2.9727 H   0  0  0  0  0  0  0  0  0  0  0  0
    3.9630   -0.7365   -4.4081 H   0  0  0  0  0  0  0  0  0  0  0  0
    4.9941   -2.0642   -3.8828 H   0  0  0  0  0  0  0  0  0  0  0  0
    3.0051   -0.9415   -0.0500 H   0  0  0  0  0  0  0  0  0  0  0  0
    3.8935   -2.0064    2.0090 H   0  0  0  0  0  0  0  0  0  0  0  0
  1  2  1  0
  1 32  1  0
  1 33  1  0
  1 34  1  0
  3  2  1  1
  2 35  1  0
  2 36  1  0
  3  9  1  0
  3 17  1  0
  3  4  1  0
  4  5  2  0
  4 37  1  0
  5  6  1  0
  5 38  1  0
  6  7  1  0
  6 39  1  0
  6 40  1  0
  7  8  1  0
  7  9  1  0
  7 41  1  6
  8 42  1  0
  9 10  1  0
  9 43  1  1
 10 21  1  0
 10 11  1  0
 10 44  1  6
 11 16  1  0
 11 12  1  0
 11 45  1  6
 12 15  1  0
 12 13  1  0
 12 46  1  6
 13 14  1  0
 13 47  1  0
 13 48  1  0
 14 18  1  0
 14 15  1  6
 14 16  1  0
 16 17  1  0
 16 49  1  6
 17 18  1  0
 17 50  1  1
 18 19  1  1
 18 21  1  0
 19 20  1  0
 20 51  1  0
 20 52  1  0
 20 53  1  0
 21 22  1  0
 21 54  1  1
 22 23  1  0
 22 55  1  0
 22 56  1  0
 23 31  1  0
 23 24  2  0
 24 25  1  0
 24 57  1  0
 25 26  2  0
 25 58  1  0
 26 27  1  0
 26 30  1  0
 27 28  1  0
 27 29  1  0
 27 59  1  0
 28 60  1  0
 28 61  1  0
 28 62  1  0
 29 63  1  0
 29 64  1  0
 29 65  1  0
 30 31  2  0
 30 66  1  0
 31 67  1  0
M  END
>  <i_m_ct_stereo_status>  (79) 
1

>  <s_m_source_file>  (79) 
/var/tmp/pbs.5076255.sched01/tmprv8ptrg5/026yimkau.sdf

>  <i_m_source_file_index>  (79) 
37

>  <i_lp_mmshare_version>  (79) 
48012

>  <i_f3d_flags>  (79) 
0

>  <s_epik_input>  (79) 
W09IXVtDQEBIXTFbQ0gyXVtDSF09W0NIXVtDQF0oW0NIMl1bQ0gzXSkoW0NASF0xW0NAQEhdMltDQEhdKFtDQEhdM0M0NTYpW0NASF0oTzUpW0NIMl00KVtDQEBIXTNbQ0BdNihPW0NIM10pW0NASF0yW0NIMl1jN1tjSF1bY0hdYyhbQ0hdKFtDSDNdKVtDSDNdKVtjSF1bY0hdNw==

>  <s_epik_cmdline>  (79) 
J2VwaWtfcHl0aG9uJywgJy1waHQnLCAnMi4wJywgJy1waCcsICc3LjAnLCAnLXRuJywgJzgnLCAnLW1hJywgJzIwMCcsICctaW1hZScsICc8aW5maWxlLm1hZT4nLCAnLW9tYWUnLCAnPG91dGZpbGUubWFlPic=

>  <r_lp_tautomer_probability>  (79) 
1

>  <r_epik_Ionization_Penalty>  (79) 
5.24919e-07

>  <r_epik_Ionization_Penalty_Charging>  (79) 
0

>  <r_epik_Ionization_Penalty_Neutral>  (79) 
5.24919e-07

>  <r_epik_State_Penalty>  (79) 
-0

>  <r_epik_Charging_Adjusted_Penalty>  (79) 
0

>  <i_epik_Tot_Q>  (79) 
0

>  <i_epik_Tot_abs_Q>  (79) 
0

>  <s_lp_Force_Field>  (79) 
OPLS3e

>  <r_lp_Energy>  (79) 
189.123

>  <b_lp_Chiralities_Consistent>  (79) 
1

>  <s_lp_Variant>  (79) 
26:0-1

>  <s_i_glide_gridfile>  (79) 
pfpi4k_grid

>  <i_i_glide_lignum>  (79) 
37

>  <i_i_glide_rotatable_bonds>  (79) 
6

>  <r_i_docking_score>  (79) 
-3.31473

>  <r_i_glide_ligand_efficiency>  (79) 
-0.106927

>  <r_i_glide_ligand_efficiency_sa>  (79) 
-0.335897

>  <r_i_glide_ligand_efficiency_ln>  (79) 
-0.747572

>  <r_i_glide_gscore>  (79) 
-3.31473

>  <r_i_glide_lipo>  (79) 
-0.613484

>  <r_i_glide_hbond>  (79) 
-0.38807

>  <r_i_glide_metal>  (79) 
-0

>  <r_i_glide_rewards>  (79) 
-0.541475

>  <r_i_glide_evdw>  (79) 
-25.9392

>  <r_i_glide_ecoul>  (79) 
-4.65688

>  <r_i_glide_erotb>  (79) 
0.223796

>  <r_i_glide_esite>  (79) 
0

>  <r_i_glide_emodel>  (79) 
-35.3291

>  <r_i_glide_energy>  (79) 
-30.5961

>  <r_i_glide_einternal>  (79) 
2.36721

>  <r_i_glide_intrahb_reward>  (79) 
-0

>  <i_i_glide_confnum>  (79) 
4

>  <i_i_glide_posenum>  (79) 
8

>  <r_i_glide_eff_state_penalty>  (79) 
0

>  <ligand_id>  (79) 
26

>  <original_smiles>  (79) 
CCC12C=CCC(O)C1C1C3C4CC5(O4)C3C2C5(OC)C1Cc1ccc(C(C)C)cc1

>  <smiles>  (79) 
[H]OC1([H])C([H])([H])C([H])=C([H])C2(C([H])([H])C([H])([H])[H])C1([H])C1([H])C3([H])C4([H])OC5(C4([H])[H])C3([H])C2([H])C5(OC([H])([H])[H])C1([H])C([H])([H])c1c([H])c([H])c(C([H])(C([H])([H])[H])C([H])([H])[H])c([H])c1[H]

$$$$
26:0:1
     RDKit          3D

 67 73  0  0  1  0  0  0  0  0999 V2000
    0.9483   -4.1511    4.4763 C   0  0  0  0  0  0  0  0  0  0  0  0
    2.4009   -4.6394    4.7314 C   0  0  0  0  0  0  0  0  0  0  0  0
    2.8113   -5.9686    4.0107 C   0  0  1  0  0  0  0  0  0  0  0  0
    1.8190   -7.0311    4.5104 C   0  0  0  0  0  0  0  0  0  0  0  0
    0.7346   -7.4318    3.8191 C   0  0  0  0  0  0  0  0  0  0  0  0
    0.4163   -6.8953    2.4484 C   0  0  0  0  0  0  0  0  0  0  0  0
    1.7137   -6.6691    1.6817 C   0  0  1  0  0  0  0  0  0  0  0  0
    1.4016   -6.0225    0.4638 O   0  0  0  0  0  0  0  0  0  0  0  0
    2.7512   -5.7963    2.4360 C   0  0  2  0  0  0  0  0  0  0  0  0
    4.1595   -5.9350    1.7846 C   0  0  2  0  0  0  0  0  0  0  0  0
    4.7439   -7.3571    2.0445 C   0  0  1  0  0  0  0  0  0  0  0  0
    6.2650   -7.5413    1.8534 C   0  0  1  0  0  0  0  0  0  0  0  0
    7.3603   -6.8460    2.6924 C   0  0  0  0  0  0  0  0  0  0  0  0
    6.3009   -7.0915    3.7949 C   0  0  1  0  0  0  0  0  0  0  0  0
    6.2574   -8.3496    3.0181 O   0  0  0  0  0  0  0  0  0  0  0  0
    4.8111   -7.5002    3.5367 C   0  0  1  0  0  0  0  0  0  0  0  0
    4.2655   -6.3966    4.4112 C   0  0  1  0  0  0  0  0  0  0  0  0
    5.4967   -5.6690    3.8503 C   0  0  1  0  0  0  0  0  0  0  0  0
    6.0523   -4.7389    4.7924 O   0  0  0  0  0  0  0  0  0  0  0  0
    6.7329   -5.2676    5.9357 C   0  0  0  0  0  0  0  0  0  0  0  0
    5.0629   -4.9087    2.5352 C   0  0  1  0  0  0  0  0  0  0  0  0
    6.0472   -4.0716    1.6544 C   0  0  0  0  0  0  0  0  0  0  0  0
    5.3390   -3.3576    0.5118 C   0  0  0  0  0  0  0  0  0  0  0  0
    5.1394   -4.0360   -0.6913 C   0  0  0  0  0  0  0  0  0  0  0  0
    4.4383   -3.4519   -1.7483 C   0  0  0  0  0  0  0  0  0  0  0  0
    3.9636   -2.1212   -1.6198 C   0  0  0  0  0  0  0  0  0  0  0  0
    3.1900   -1.4580   -2.7650 C   0  0  0  0  0  0  0  0  0  0  0  0
    2.4006   -2.4562   -3.6284 C   0  0  0  0  0  0  0  0  0  0  0  0
    4.1349   -0.6195   -3.6203 C   0  0  0  0  0  0  0  0  0  0  0  0
    4.2086   -1.4103   -0.4336 C   0  0  0  0  0  0  0  0  0  0  0  0
    4.8920   -2.0204    0.6559 C   0  0  0  0  0  0  0  0  0  0  0  0
    0.7445   -3.2156    4.9907 H   0  0  0  0  0  0  0  0  0  0  0  0
    0.2092   -4.8678    4.8300 H   0  0  0  0  0  0  0  0  0  0  0  0
    0.7521   -3.9738    3.4205 H   0  0  0  0  0  0  0  0  0  0  0  0
    3.0625   -3.8160    4.4707 H   0  0  0  0  0  0  0  0  0  0  0  0
    2.5440   -4.7788    5.8022 H   0  0  0  0  0  0  0  0  0  0  0  0
    2.0087   -7.4177    5.4980 H   0  0  0  0  0  0  0  0  0  0  0  0
    0.0188   -8.1311    4.2331 H   0  0  0  0  0  0  0  0  0  0  0  0
   -0.2125   -7.6046    1.9087 H   0  0  0  0  0  0  0  0  0  0  0  0
   -0.1396   -5.9671    2.5411 H   0  0  0  0  0  0  0  0  0  0  0  0
    2.1164   -7.6608    1.4816 H   0  0  0  0  0  0  0  0  0  0  0  0
    2.1742   -6.0232   -0.0809 H   0  0  0  0  0  0  0  0  0  0  0  0
    2.4598   -4.7626    2.2347 H   0  0  0  0  0  0  0  0  0  0  0  0
    4.0522   -5.7805    0.7209 H   0  0  0  0  0  0  0  0  0  0  0  0
    4.1793   -8.1652    1.5715 H   0  0  0  0  0  0  0  0  0  0  0  0
    6.5986   -8.0824    0.9752 H   0  0  0  0  0  0  0  0  0  0  0  0
    8.2590   -7.4780    2.7572 H   0  0  0  0  0  0  0  0  0  0  0  0
    7.6330   -5.8067    2.5418 H   0  0  0  0  0  0  0  0  0  0  0  0
    4.4323   -8.4468    3.9650 H   0  0  0  0  0  0  0  0  0  0  0  0
    4.3893   -6.6978    5.4463 H   0  0  0  0  0  0  0  0  0  0  0  0
    7.0926   -4.4279    6.5278 H   0  0  0  0  0  0  0  0  0  0  0  0
    7.6135   -5.8672    5.6893 H   0  0  0  0  0  0  0  0  0  0  0  0
    6.0805   -5.8539    6.5841 H   0  0  0  0  0  0  0  0  0  0  0  0
    4.4320   -4.0993    2.8832 H   0  0  0  0  0  0  0  0  0  0  0  0
    6.5624   -3.3418    2.2776 H   0  0  0  0  0  0  0  0  0  0  0  0
    6.8009   -4.6393    1.1145 H   0  0  0  0  0  0  0  0  0  0  0  0
    5.4860   -5.0568   -0.8257 H   0  0  0  0  0  0  0  0  0  0  0  0
    4.2600   -4.0519   -2.6222 H   0  0  0  0  0  0  0  0  0  0  0  0
    2.4771   -0.7638   -2.3214 H   0  0  0  0  0  0  0  0  0  0  0  0
    1.7596   -3.0865   -3.0125 H   0  0  0  0  0  0  0  0  0  0  0  0
    3.0497   -3.1053   -4.2139 H   0  0  0  0  0  0  0  0  0  0  0  0
    1.7733   -1.9294   -4.3448 H   0  0  0  0  0  0  0  0  0  0  0  0
    4.6142    0.1349   -2.9999 H   0  0  0  0  0  0  0  0  0  0  0  0
    3.5995   -0.0970   -4.4116 H   0  0  0  0  0  0  0  0  0  0  0  0
    4.9009   -1.2431   -4.0799 H   0  0  0  0  0  0  0  0  0  0  0  0
    3.8672   -0.3911   -0.3302 H   0  0  0  0  0  0  0  0  0  0  0  0
    5.0620   -1.4787    1.5625 H   0  0  0  0  0  0  0  0  0  0  0  0
  1  2  1  0
  1 32  1  0
  1 33  1  0
  1 34  1  0
  3  2  1  1
  2 35  1  0
  2 36  1  0
  3  9  1  0
  3 17  1  0
  3  4  1  0
  4  5  2  0
  4 37  1  0
  5  6  1  0
  5 38  1  0
  6  7  1  0
  6 39  1  0
  6 40  1  0
  7  8  1  0
  7  9  1  0
  7 41  1  6
  8 42  1  0
  9 10  1  0
  9 43  1  1
 10 21  1  0
 10 11  1  0
 10 44  1  6
 11 16  1  0
 11 12  1  0
 11 45  1  6
 12 15  1  0
 12 13  1  0
 12 46  1  6
 13 14  1  0
 13 47  1  0
 13 48  1  0
 14 18  1  0
 14 15  1  6
 14 16  1  0
 16 17  1  0
 16 49  1  6
 17 18  1  0
 17 50  1  1
 18 19  1  1
 18 21  1  0
 19 20  1  0
 20 51  1  0
 20 52  1  0
 20 53  1  0
 21 22  1  0
 21 54  1  1
 22 23  1  0
 22 55  1  0
 22 56  1  0
 23 31  1  0
 23 24  2  0
 24 25  1  0
 24 57  1  0
 25 26  2  0
 25 58  1  0
 26 27  1  0
 26 30  1  0
 27 28  1  0
 27 29  1  0
 27 59  1  0
 28 60  1  0
 28 61  1  0
 28 62  1  0
 29 63  1  0
 29 64  1  0
 29 65  1  0
 30 31  2  0
 30 66  1  0
 31 67  1  0
M  END
>  <i_m_ct_stereo_status>  (80) 
1

>  <s_m_source_file>  (80) 
/var/tmp/pbs.5076255.sched01/tmprv8ptrg5/026yimkau.sdf

>  <i_m_source_file_index>  (80) 
37

>  <i_lp_mmshare_version>  (80) 
48012

>  <i_f3d_flags>  (80) 
0

>  <s_epik_input>  (80) 
W09IXVtDQEBIXTFbQ0gyXVtDSF09W0NIXVtDQF0oW0NIMl1bQ0gzXSkoW0NASF0xW0NAQEhdMltDQEhdKFtDQEhdM0M0NTYpW0NASF0oTzUpW0NIMl00KVtDQEBIXTNbQ0BdNihPW0NIM10pW0NASF0yW0NIMl1jN1tjSF1bY0hdYyhbQ0hdKFtDSDNdKVtDSDNdKVtjSF1bY0hdNw==

>  <s_epik_cmdline>  (80) 
J2VwaWtfcHl0aG9uJywgJy1waHQnLCAnMi4wJywgJy1waCcsICc3LjAnLCAnLXRuJywgJzgnLCAnLW1hJywgJzIwMCcsICctaW1hZScsICc8aW5maWxlLm1hZT4nLCAnLW9tYWUnLCAnPG91dGZpbGUubWFlPic=

>  <r_lp_tautomer_probability>  (80) 
1

>  <r_epik_Ionization_Penalty>  (80) 
5.24919e-07

>  <r_epik_Ionization_Penalty_Charging>  (80) 
0

>  <r_epik_Ionization_Penalty_Neutral>  (80) 
5.24919e-07

>  <r_epik_State_Penalty>  (80) 
-0

>  <r_epik_Charging_Adjusted_Penalty>  (80) 
0

>  <i_epik_Tot_Q>  (80) 
0

>  <i_epik_Tot_abs_Q>  (80) 
0

>  <s_lp_Force_Field>  (80) 
OPLS3e

>  <r_lp_Energy>  (80) 
189.123

>  <b_lp_Chiralities_Consistent>  (80) 
1

>  <s_lp_Variant>  (80) 
26:0-1

>  <s_i_glide_gridfile>  (80) 
pfpi4k_grid

>  <i_i_glide_lignum>  (80) 
37

>  <i_i_glide_rotatable_bonds>  (80) 
6

>  <r_i_docking_score>  (80) 
-3.26455

>  <r_i_glide_ligand_efficiency>  (80) 
-0.105308

>  <r_i_glide_ligand_efficiency_sa>  (80) 
-0.330813

>  <r_i_glide_ligand_efficiency_ln>  (80) 
-0.736256

>  <r_i_glide_gscore>  (80) 
-3.26455

>  <r_i_glide_lipo>  (80) 
-0.893801

>  <r_i_glide_hbond>  (80) 
-0.16

>  <r_i_glide_metal>  (80) 
-0

>  <r_i_glide_rewards>  (80) 
-0.541475

>  <r_i_glide_evdw>  (80) 
-25.5794

>  <r_i_glide_ecoul>  (80) 
-4.09401

>  <r_i_glide_erotb>  (80) 
0.223796

>  <r_i_glide_esite>  (80) 
0

>  <r_i_glide_emodel>  (80) 
-34.0301

>  <r_i_glide_energy>  (80) 
-29.6734

>  <r_i_glide_einternal>  (80) 
2.8451

>  <r_i_glide_intrahb_reward>  (80) 
-0

>  <i_i_glide_confnum>  (80) 
3

>  <i_i_glide_posenum>  (80) 
13

>  <r_i_glide_eff_state_penalty>  (80) 
0

>  <ligand_id>  (80) 
26

>  <original_smiles>  (80) 
CCC12C=CCC(O)C1C1C3C4CC5(O4)C3C2C5(OC)C1Cc1ccc(C(C)C)cc1

>  <smiles>  (80) 
[H]OC1([H])C([H])([H])C([H])=C([H])C2(C([H])([H])C([H])([H])[H])C1([H])C1([H])C3([H])C4([H])OC5(C4([H])[H])C3([H])C2([H])C5(OC([H])([H])[H])C1([H])C([H])([H])c1c([H])c([H])c(C([H])(C([H])([H])[H])C([H])([H])[H])c([H])c1[H]

$$$$
26:0:2
     RDKit          3D

 67 73  0  0  1  0  0  0  0  0999 V2000
   -0.0488   -5.7313    4.9837 C   0  0  0  0  0  0  0  0  0  0  0  0
    1.3612   -6.3544    5.1185 C   0  0  0  0  0  0  0  0  0  0  0  0
    1.7626   -7.3955    4.0142 C   0  0  1  0  0  0  0  0  0  0  0  0
    0.6860   -8.4900    4.0834 C   0  0  0  0  0  0  0  0  0  0  0  0
   -0.3812   -8.5611    3.2605 C   0  0  0  0  0  0  0  0  0  0  0  0
   -0.5872   -7.5834    2.1343 C   0  0  0  0  0  0  0  0  0  0  0  0
    0.7722   -7.2134    1.5267 C   0  0  1  0  0  0  0  0  0  0  0  0
    0.6051   -6.2585    0.4971 O   0  0  0  0  0  0  0  0  0  0  0  0
    1.8063   -6.7022    2.5741 C   0  0  2  0  0  0  0  0  0  0  0  0
    3.2541   -6.7137    1.9823 C   0  0  2  0  0  0  0  0  0  0  0  0
    3.7414   -8.1775    1.7663 C   0  0  1  0  0  0  0  0  0  0  0  0
    5.2582   -8.4059    1.5783 C   0  0  1  0  0  0  0  0  0  0  0  0
    6.3206   -8.0923    2.6517 C   0  0  0  0  0  0  0  0  0  0  0  0
    5.1838   -8.6272    3.5625 C   0  0  1  0  0  0  0  0  0  0  0  0
    5.1481   -9.5696    2.4114 O   0  0  0  0  0  0  0  0  0  0  0  0
    3.6992   -8.8249    3.1428 C   0  0  1  0  0  0  0  0  0  0  0  0
    3.1657   -8.0374    4.3063 C   0  0  1  0  0  0  0  0  0  0  0  0
    4.4697   -7.2544    4.0788 C   0  0  1  0  0  0  0  0  0  0  0  0
    5.0344   -6.7200    5.2791 O   0  0  0  0  0  0  0  0  0  0  0  0
    5.5453   -7.6382    6.2494 C   0  0  0  0  0  0  0  0  0  0  0  0
    4.1691   -6.0717    3.0731 C   0  0  1  0  0  0  0  0  0  0  0  0
    5.2385   -5.0233    2.5884 C   0  0  0  0  0  0  0  0  0  0  0  0
    4.7574   -4.2462    1.3702 C   0  0  0  0  0  0  0  0  0  0  0  0
    5.1199   -4.6908    0.0842 C   0  0  0  0  0  0  0  0  0  0  0  0
    4.6469   -4.0241   -1.0561 C   0  0  0  0  0  0  0  0  0  0  0  0
    3.8094   -2.8978   -0.9207 C   0  0  0  0  0  0  0  0  0  0  0  0
    3.3085   -2.1507   -2.1583 C   0  0  0  0  0  0  0  0  0  0  0  0
    2.5279   -3.0586   -3.1260 C   0  0  0  0  0  0  0  0  0  0  0  0
    4.4724   -1.4470   -2.8712 C   0  0  0  0  0  0  0  0  0  0  0  0
    3.4430   -2.4584    0.3700 C   0  0  0  0  0  0  0  0  0  0  0  0
    3.9133   -3.1297    1.5114 C   0  0  0  0  0  0  0  0  0  0  0  0
   -0.2425   -5.0062    5.7714 H   0  0  0  0  0  0  0  0  0  0  0  0
   -0.8372   -6.4791    5.0452 H   0  0  0  0  0  0  0  0  0  0  0  0
   -0.1689   -5.2029    4.0413 H   0  0  0  0  0  0  0  0  0  0  0  0
    2.0767   -5.5353    5.1667 H   0  0  0  0  0  0  0  0  0  0  0  0
    1.4301   -6.8377    6.0921 H   0  0  0  0  0  0  0  0  0  0  0  0
    0.7794   -9.2048    4.8876 H   0  0  0  0  0  0  0  0  0  0  0  0
   -1.1395   -9.3137    3.4048 H   0  0  0  0  0  0  0  0  0  0  0  0
   -1.2104   -8.0444    1.3680 H   0  0  0  0  0  0  0  0  0  0  0  0
   -1.1147   -6.7035    2.4991 H   0  0  0  0  0  0  0  0  0  0  0  0
    1.1363   -8.1325    1.0606 H   0  0  0  0  0  0  0  0  0  0  0  0
    1.4449   -6.1681    0.0535 H   0  0  0  0  0  0  0  0  0  0  0  0
    1.5658   -5.6493    2.7220 H   0  0  0  0  0  0  0  0  0  0  0  0
    3.2344   -6.1889    1.0327 H   0  0  0  0  0  0  0  0  0  0  0  0
    3.1586   -8.7420    1.0315 H   0  0  0  0  0  0  0  0  0  0  0  0
    5.6027   -8.6555    0.5827 H   0  0  0  0  0  0  0  0  0  0  0  0
    7.1969   -8.7663    2.5618 H   0  0  0  0  0  0  0  0  0  0  0  0
    6.6434   -7.0921    2.8592 H   0  0  0  0  0  0  0  0  0  0  0  0
    3.2466   -9.8297    3.1825 H   0  0  0  0  0  0  0  0  0  0  0  0
    3.1839   -8.6585    5.1921 H   0  0  0  0  0  0  0  0  0  0  0  0
    5.9117   -7.0700    7.1040 H   0  0  0  0  0  0  0  0  0  0  0  0
    6.3904   -8.2243    5.8806 H   0  0  0  0  0  0  0  0  0  0  0  0
    4.7888   -8.3230    6.6349 H   0  0  0  0  0  0  0  0  0  0  0  0
    3.5374   -5.3935    3.6381 H   0  0  0  0  0  0  0  0  0  0  0  0
    5.4421   -4.3273    3.4131 H   0  0  0  0  0  0  0  0  0  0  0  0
    6.2069   -5.4017    2.2768 H   0  0  0  0  0  0  0  0  0  0  0  0
    5.7368   -5.5692   -0.0343 H   0  0  0  0  0  0  0  0  0  0  0  0
    4.9181   -4.3945   -2.0381 H   0  0  0  0  0  0  0  0  0  0  0  0
    2.6199   -1.3772   -1.8251 H   0  0  0  0  0  0  0  0  0  0  0  0
    1.7357   -3.5946   -2.6048 H   0  0  0  0  0  0  0  0  0  0  0  0
    3.1692   -3.8018   -3.6008 H   0  0  0  0  0  0  0  0  0  0  0  0
    2.0613   -2.4704   -3.9161 H   0  0  0  0  0  0  0  0  0  0  0  0
    4.9832   -0.7653   -2.1922 H   0  0  0  0  0  0  0  0  0  0  0  0
    4.1139   -0.8657   -3.7192 H   0  0  0  0  0  0  0  0  0  0  0  0
    5.2038   -2.1670   -3.2399 H   0  0  0  0  0  0  0  0  0  0  0  0
    2.7963   -1.5989    0.4779 H   0  0  0  0  0  0  0  0  0  0  0  0
    3.6163   -2.7959    2.4949 H   0  0  0  0  0  0  0  0  0  0  0  0
  1  2  1  0
  1 32  1  0
  1 33  1  0
  1 34  1  0
  3  2  1  1
  2 35  1  0
  2 36  1  0
  3  9  1  0
  3 17  1  0
  3  4  1  0
  4  5  2  0
  4 37  1  0
  5  6  1  0
  5 38  1  0
  6  7  1  0
  6 39  1  0
  6 40  1  0
  7  8  1  0
  7  9  1  0
  7 41  1  6
  8 42  1  0
  9 10  1  0
  9 43  1  1
 10 21  1  0
 10 11  1  0
 10 44  1  6
 11 16  1  0
 11 12  1  0
 11 45  1  6
 12 15  1  0
 12 13  1  0
 12 46  1  6
 13 14  1  0
 13 47  1  0
 13 48  1  0
 14 18  1  0
 14 15  1  6
 14 16  1  0
 16 17  1  0
 16 49  1  6
 17 18  1  0
 17 50  1  1
 18 19  1  1
 18 21  1  0
 19 20  1  0
 20 51  1  0
 20 52  1  0
 20 53  1  0
 21 22  1  0
 21 54  1  1
 22 23  1  0
 22 55  1  0
 22 56  1  0
 23 31  1  0
 23 24  2  0
 24 25  1  0
 24 57  1  0
 25 26  2  0
 25 58  1  0
 26 27  1  0
 26 30  1  0
 27 28  1  0
 27 29  1  0
 27 59  1  0
 28 60  1  0
 28 61  1  0
 28 62  1  0
 29 63  1  0
 29 64  1  0
 29 65  1  0
 30 31  2  0
 30 66  1  0
 31 67  1  0
M  END
>  <i_m_ct_stereo_status>  (81) 
1

>  <s_m_source_file>  (81) 
/var/tmp/pbs.5076255.sched01/tmprv8ptrg5/026yimkau.sdf

>  <i_m_source_file_index>  (81) 
37

>  <i_lp_mmshare_version>  (81) 
48012

>  <i_f3d_flags>  (81) 
0

>  <s_epik_input>  (81) 
W09IXVtDQEBIXTFbQ0gyXVtDSF09W0NIXVtDQF0oW0NIMl1bQ0gzXSkoW0NASF0xW0NAQEhdMltDQEhdKFtDQEhdM0M0NTYpW0NASF0oTzUpW0NIMl00KVtDQEBIXTNbQ0BdNihPW0NIM10pW0NASF0yW0NIMl1jN1tjSF1bY0hdYyhbQ0hdKFtDSDNdKVtDSDNdKVtjSF1bY0hdNw==

>  <s_epik_cmdline>  (81) 
J2VwaWtfcHl0aG9uJywgJy1waHQnLCAnMi4wJywgJy1waCcsICc3LjAnLCAnLXRuJywgJzgnLCAnLW1hJywgJzIwMCcsICctaW1hZScsICc8aW5maWxlLm1hZT4nLCAnLW9tYWUnLCAnPG91dGZpbGUubWFlPic=

>  <r_lp_tautomer_probability>  (81) 
1

>  <r_epik_Ionization_Penalty>  (81) 
5.24919e-07

>  <r_epik_Ionization_Penalty_Charging>  (81) 
0

>  <r_epik_Ionization_Penalty_Neutral>  (81) 
5.24919e-07

>  <r_epik_State_Penalty>  (81) 
-0

>  <r_epik_Charging_Adjusted_Penalty>  (81) 
0

>  <i_epik_Tot_Q>  (81) 
0

>  <i_epik_Tot_abs_Q>  (81) 
0

>  <s_lp_Force_Field>  (81) 
OPLS3e

>  <r_lp_Energy>  (81) 
189.123

>  <b_lp_Chiralities_Consistent>  (81) 
1

>  <s_lp_Variant>  (81) 
26:0-1

>  <s_i_glide_gridfile>  (81) 
pfpi4k_grid

>  <i_i_glide_lignum>  (81) 
37

>  <i_i_glide_rotatable_bonds>  (81) 
6

>  <r_i_docking_score>  (81) 
-2.97821

>  <r_i_glide_ligand_efficiency>  (81) 
-0.0960713

>  <r_i_glide_ligand_efficiency_sa>  (81) 
-0.301796

>  <r_i_glide_ligand_efficiency_ln>  (81) 
-0.671677

>  <r_i_glide_gscore>  (81) 
-2.97821

>  <r_i_glide_lipo>  (81) 
-0.340134

>  <r_i_glide_hbond>  (81) 
-0.228064

>  <r_i_glide_metal>  (81) 
-0

>  <r_i_glide_rewards>  (81) 
-0.541475

>  <r_i_glide_evdw>  (81) 
-27.0317

>  <r_i_glide_ecoul>  (81) 
-4.93831

>  <r_i_glide_erotb>  (81) 
0.223796

>  <r_i_glide_esite>  (81) 
0

>  <r_i_glide_emodel>  (81) 
-35.5129

>  <r_i_glide_energy>  (81) 
-31.97

>  <r_i_glide_einternal>  (81) 
4.0995

>  <r_i_glide_intrahb_reward>  (81) 
-0

>  <i_i_glide_confnum>  (81) 
3

>  <i_i_glide_posenum>  (81) 
4

>  <r_i_glide_eff_state_penalty>  (81) 
0

>  <ligand_id>  (81) 
26

>  <original_smiles>  (81) 
CCC12C=CCC(O)C1C1C3C4CC5(O4)C3C2C5(OC)C1Cc1ccc(C(C)C)cc1

>  <smiles>  (81) 
[H]OC1([H])C([H])([H])C([H])=C([H])C2(C([H])([H])C([H])([H])[H])C1([H])C1([H])C3([H])C4([H])OC5(C4([H])[H])C3([H])C2([H])C5(OC([H])([H])[H])C1([H])C([H])([H])c1c([H])c([H])c(C([H])(C([H])([H])[H])C([H])([H])[H])c([H])c1[H]

$$$$
27:0:0
     RDKit          3D

 39 42  0  0  1  0  0  0  0  0999 V2000
    4.8760   -5.6711    0.2303 C   0  0  0  0  0  0  0  0  0  0  0  0
    3.9336   -6.2428    1.1236 O   0  0  0  0  0  0  0  0  0  0  0  0
    4.1388   -7.5261    1.5846 C   0  0  0  0  0  0  0  0  0  0  0  0
    5.2979   -8.1414    1.2512 N   0  0  0  0  0  0  0  0  0  0  0  0
    5.4989   -9.3658    1.7334 C   0  0  0  0  0  0  0  0  0  0  0  0
    4.6761  -10.0425    2.5189 N   0  0  0  0  0  0  0  0  0  0  0  0
    3.5061   -9.4593    2.8178 C   0  0  0  0  0  0  0  0  0  0  0  0
    3.1511   -8.1574    2.3830 C   0  0  0  0  0  0  0  0  0  0  0  0
    1.8220   -7.4345    2.7415 C   0  0  1  0  0  0  0  0  0  0  0  0
    2.1586   -6.0557    3.3643 C   0  0  0  0  0  0  0  0  0  0  0  0
    1.3369   -5.0343    3.0975 N   0  0  0  0  0  0  0  0  0  0  0  0
    1.5956   -3.8436    3.6721 C   0  0  0  0  0  0  0  0  0  0  0  0
    2.6803   -3.6683    4.5428 C   0  0  0  0  0  0  0  0  0  0  0  0
    3.4736   -4.8036    4.7779 C   0  0  0  0  0  0  0  0  0  0  0  0
    3.2020   -5.9929    4.2012 N   0  0  0  0  0  0  0  0  0  0  0  0
    1.0278   -7.2857    1.3977 C   0  0  0  0  0  0  0  0  0  0  0  0
   -0.2950   -6.7490    1.5444 O   0  0  0  0  0  0  0  0  0  0  0  0
   -1.1264   -7.5432    2.3839 C   0  0  0  0  0  0  0  0  0  0  0  0
   -0.5041   -7.6134    3.7806 C   0  0  1  0  0  0  0  0  0  0  0  0
   -1.3761   -8.2635    4.6833 O   0  0  0  0  0  0  0  0  0  0  0  0
    0.9103   -8.2316    3.7381 C   0  0  1  0  0  0  0  0  0  0  0  0
    0.8570   -9.7445    3.4450 C   0  0  0  0  0  0  0  0  0  0  0  0
    2.4520  -10.4880    3.7684 S   0  0  0  0  0  0  0  0  0  0  0  0
    4.5499   -4.6582    0.0003 H   0  0  0  0  0  0  0  0  0  0  0  0
    4.9101   -6.2312   -0.7038 H   0  0  0  0  0  0  0  0  0  0  0  0
    5.8777   -5.6082    0.6587 H   0  0  0  0  0  0  0  0  0  0  0  0
    6.4236   -9.8561    1.4626 H   0  0  0  0  0  0  0  0  0  0  0  0
    0.9232   -3.0310    3.4340 H   0  0  0  0  0  0  0  0  0  0  0  0
    2.8981   -2.7133    4.9970 H   0  0  0  0  0  0  0  0  0  0  0  0
    4.3301   -4.7615    5.4342 H   0  0  0  0  0  0  0  0  0  0  0  0
    1.5588   -6.6392    0.6958 H   0  0  0  0  0  0  0  0  0  0  0  0
    0.9564   -8.2500    0.9082 H   0  0  0  0  0  0  0  0  0  0  0  0
   -2.1078   -7.0774    2.4628 H   0  0  0  0  0  0  0  0  0  0  0  0
   -1.2724   -8.5346    1.9514 H   0  0  0  0  0  0  0  0  0  0  0  0
   -0.4375   -6.5978    4.1655 H   0  0  0  0  0  0  0  0  0  0  0  0
   -1.4126   -9.1993    4.5122 H   0  0  0  0  0  0  0  0  0  0  0  0
    1.3370   -8.1330    4.7382 H   0  0  0  0  0  0  0  0  0  0  0  0
    0.1299  -10.2566    4.0726 H   0  0  0  0  0  0  0  0  0  0  0  0
    0.5810   -9.9482    2.4099 H   0  0  0  0  0  0  0  0  0  0  0  0
  1  2  1  0
  1 24  1  0
  1 25  1  0
  1 26  1  0
  2  3  1  0
  3  8  2  0
  3  4  1  0
  4  5  2  0
  5  6  1  0
  5 27  1  0
  6  7  2  0
  7 23  1  0
  7  8  1  0
  8  9  1  0
  9 21  1  0
  9 10  1  1
  9 16  1  0
 10 15  1  0
 10 11  2  0
 11 12  1  0
 12 13  2  0
 12 28  1  0
 13 14  1  0
 13 29  1  0
 14 15  2  0
 14 30  1  0
 16 17  1  0
 16 31  1  0
 16 32  1  0
 17 18  1  0
 18 19  1  0
 18 33  1  0
 18 34  1  0
 19 20  1  0
 19 21  1  0
 19 35  1  1
 20 36  1  0
 21 22  1  0
 21 37  1  1
 22 23  1  0
 22 38  1  0
 22 39  1  0
M  END
>  <i_m_ct_stereo_status>  (82) 
1

>  <s_m_source_file>  (82) 
/var/tmp/pbs.5076255.sched01/tmprv8ptrg5/026yimkau.sdf

>  <i_m_source_file_index>  (82) 
38

>  <i_lp_mmshare_version>  (82) 
48012

>  <i_f3d_flags>  (82) 
0

>  <s_epik_input>  (82) 
W0NIMl0xT1tDSDJdW0NAQEhdKFtPSF0pW0NASF0yW0NIMl1TYyhuW2NIXW5jM09bQ0gzXSljM1tDQEBdMTJjNG5bY0hdW2NIXVtjSF1uNA==

>  <s_epik_cmdline>  (82) 
J2VwaWtfcHl0aG9uJywgJy1waHQnLCAnMi4wJywgJy1waCcsICc3LjAnLCAnLXRuJywgJzgnLCAnLW1hJywgJzIwMCcsICctaW1hZScsICc8aW5maWxlLm1hZT4nLCAnLW9tYWUnLCAnPG91dGZpbGUubWFlPic=

>  <r_lp_tautomer_probability>  (82) 
1

>  <r_epik_Ionization_Penalty>  (82) 
2.92261e-05

>  <r_epik_Ionization_Penalty_Charging>  (82) 
0

>  <r_epik_Ionization_Penalty_Neutral>  (82) 
2.92261e-05

>  <r_epik_State_Penalty>  (82) 
-0

>  <r_epik_Charging_Adjusted_Penalty>  (82) 
0

>  <i_epik_Tot_Q>  (82) 
0

>  <i_epik_Tot_abs_Q>  (82) 
0

>  <s_epik_Chemistry_Notes>  (82) 
This compound contains an electron-poor aromatic ring that is susceptible to covalent hydrolysis at low pH, typically resulting in measured values for nitrogen ring protonation that are around two units higher than predicted values.

>  <s_lp_Force_Field>  (82) 
OPLS3e

>  <r_lp_Energy>  (82) 
43.4932

>  <b_lp_Chiralities_Consistent>  (82) 
1

>  <s_lp_Variant>  (82) 
27:0-1

>  <s_i_glide_gridfile>  (82) 
pfpi4k_grid

>  <i_i_glide_lignum>  (82) 
38

>  <i_i_glide_rotatable_bonds>  (82) 
3

>  <r_i_docking_score>  (82) 
-3.31705

>  <r_i_glide_ligand_efficiency>  (82) 
-0.14422

>  <r_i_glide_ligand_efficiency_sa>  (82) 
-0.410142

>  <r_i_glide_ligand_efficiency_ln>  (82) 
-0.802093

>  <r_i_glide_gscore>  (82) 
-3.31705

>  <r_i_glide_lipo>  (82) 
-0.132938

>  <r_i_glide_hbond>  (82) 
-0.313541

>  <r_i_glide_metal>  (82) 
-0

>  <r_i_glide_rewards>  (82) 
-1.14287

>  <r_i_glide_evdw>  (82) 
-23.0145

>  <r_i_glide_ecoul>  (82) 
-4.83482

>  <r_i_glide_erotb>  (82) 
0.170478

>  <r_i_glide_esite>  (82) 
-0.0222321

>  <r_i_glide_emodel>  (82) 
-34.0363

>  <r_i_glide_energy>  (82) 
-27.8493

>  <r_i_glide_einternal>  (82) 
0.238023

>  <r_i_glide_intrahb_reward>  (82) 
-0

>  <i_i_glide_confnum>  (82) 
1

>  <i_i_glide_posenum>  (82) 
30

>  <r_i_glide_eff_state_penalty>  (82) 
0

>  <ligand_id>  (82) 
27

>  <original_smiles>  (82) 
COc1ncnc2c1C1(c3ncccn3)COCC(O)C1CS2

>  <smiles>  (82) 
[H]OC1([H])C([H])([H])OC([H])([H])C2(c3nc([H])c([H])c([H])n3)c3c(OC([H])([H])[H])nc([H])nc3SC([H])([H])C12[H]

$$$$
27:0:1
     RDKit          3D

 39 42  0  0  1  0  0  0  0  0999 V2000
    2.3837   -2.9836    1.7223 C   0  0  0  0  0  0  0  0  0  0  0  0
    2.1545   -4.3352    2.0845 O   0  0  0  0  0  0  0  0  0  0  0  0
    3.0642   -5.2968    1.7011 C   0  0  0  0  0  0  0  0  0  0  0  0
    4.1304   -4.8995    0.9702 N   0  0  0  0  0  0  0  0  0  0  0  0
    5.0070   -5.8297    0.6138 C   0  0  0  0  0  0  0  0  0  0  0  0
    4.9491   -7.1179    0.9101 N   0  0  0  0  0  0  0  0  0  0  0  0
    3.8905   -7.5210    1.6305 C   0  0  0  0  0  0  0  0  0  0  0  0
    2.8620   -6.6517    2.0623 C   0  0  0  0  0  0  0  0  0  0  0  0
    1.6191   -7.0924    2.8961 C   0  0  1  0  0  0  0  0  0  0  0  0
    1.5206   -6.1928    4.1528 C   0  0  0  0  0  0  0  0  0  0  0  0
    0.3044   -5.8383    4.5799 N   0  0  0  0  0  0  0  0  0  0  0  0
    0.2184   -5.1134    5.7103 C   0  0  0  0  0  0  0  0  0  0  0  0
    1.3602   -4.7305    6.4305 C   0  0  0  0  0  0  0  0  0  0  0  0
    2.5909   -5.1649    5.9085 C   0  0  0  0  0  0  0  0  0  0  0  0
    2.6618   -5.9013    4.7807 N   0  0  0  0  0  0  0  0  0  0  0  0
    0.3869   -6.9165    1.9453 C   0  0  0  0  0  0  0  0  0  0  0  0
   -0.8611   -7.3737    2.4759 O   0  0  0  0  0  0  0  0  0  0  0  0
   -0.8490   -8.7574    2.8217 C   0  0  0  0  0  0  0  0  0  0  0  0
    0.2406   -9.0149    3.8718 C   0  0  1  0  0  0  0  0  0  0  0  0
    0.2205  -10.3672    4.2867 O   0  0  0  0  0  0  0  0  0  0  0  0
    1.6392   -8.5919    3.3495 C   0  0  1  0  0  0  0  0  0  0  0  0
    2.1640   -9.5502    2.2591 C   0  0  0  0  0  0  0  0  0  0  0  0
    3.8991   -9.2393    1.9530 S   0  0  0  0  0  0  0  0  0  0  0  0
    1.5611   -2.3872    2.1119 H   0  0  0  0  0  0  0  0  0  0  0  0
    2.4018   -2.8491    0.6376 H   0  0  0  0  0  0  0  0  0  0  0  0
    3.3070   -2.5972    2.1527 H   0  0  0  0  0  0  0  0  0  0  0  0
    5.8623   -5.5092    0.0360 H   0  0  0  0  0  0  0  0  0  0  0  0
   -0.7720   -4.8381    6.0406 H   0  0  0  0  0  0  0  0  0  0  0  0
    1.3020   -4.1368    7.3313 H   0  0  0  0  0  0  0  0  0  0  0  0
    3.5215   -4.9179    6.3986 H   0  0  0  0  0  0  0  0  0  0  0  0
    0.2506   -5.8642    1.6947 H   0  0  0  0  0  0  0  0  0  0  0  0
    0.5540   -7.4368    0.9996 H   0  0  0  0  0  0  0  0  0  0  0  0
   -1.8230   -9.0359    3.2186 H   0  0  0  0  0  0  0  0  0  0  0  0
   -0.6824   -9.3671    1.9339 H   0  0  0  0  0  0  0  0  0  0  0  0
    0.0005   -8.4377    4.7637 H   0  0  0  0  0  0  0  0  0  0  0  0
   -0.6639  -10.5787    4.6249 H   0  0  0  0  0  0  0  0  0  0  0  0
    2.3407   -8.6910    4.1800 H   0  0  0  0  0  0  0  0  0  0  0  0
    2.0588  -10.5960    2.5450 H   0  0  0  0  0  0  0  0  0  0  0  0
    1.6282   -9.4300    1.3205 H   0  0  0  0  0  0  0  0  0  0  0  0
  1  2  1  0
  1 24  1  0
  1 25  1  0
  1 26  1  0
  2  3  1  0
  3  8  2  0
  3  4  1  0
  4  5  2  0
  5  6  1  0
  5 27  1  0
  6  7  2  0
  7 23  1  0
  7  8  1  0
  8  9  1  0
  9 21  1  0
  9 10  1  1
  9 16  1  0
 10 15  1  0
 10 11  2  0
 11 12  1  0
 12 13  2  0
 12 28  1  0
 13 14  1  0
 13 29  1  0
 14 15  2  0
 14 30  1  0
 16 17  1  0
 16 31  1  0
 16 32  1  0
 17 18  1  0
 18 19  1  0
 18 33  1  0
 18 34  1  0
 19 20  1  0
 19 21  1  0
 19 35  1  1
 20 36  1  0
 21 22  1  0
 21 37  1  1
 22 23  1  0
 22 38  1  0
 22 39  1  0
M  END
>  <i_m_ct_stereo_status>  (83) 
1

>  <s_m_source_file>  (83) 
/var/tmp/pbs.5076255.sched01/tmprv8ptrg5/026yimkau.sdf

>  <i_m_source_file_index>  (83) 
38

>  <i_lp_mmshare_version>  (83) 
48012

>  <i_f3d_flags>  (83) 
0

>  <s_epik_input>  (83) 
W0NIMl0xT1tDSDJdW0NAQEhdKFtPSF0pW0NASF0yW0NIMl1TYyhuW2NIXW5jM09bQ0gzXSljM1tDQEBdMTJjNG5bY0hdW2NIXVtjSF1uNA==

>  <s_epik_cmdline>  (83) 
J2VwaWtfcHl0aG9uJywgJy1waHQnLCAnMi4wJywgJy1waCcsICc3LjAnLCAnLXRuJywgJzgnLCAnLW1hJywgJzIwMCcsICctaW1hZScsICc8aW5maWxlLm1hZT4nLCAnLW9tYWUnLCAnPG91dGZpbGUubWFlPic=

>  <r_lp_tautomer_probability>  (83) 
1

>  <r_epik_Ionization_Penalty>  (83) 
2.92261e-05

>  <r_epik_Ionization_Penalty_Charging>  (83) 
0

>  <r_epik_Ionization_Penalty_Neutral>  (83) 
2.92261e-05

>  <r_epik_State_Penalty>  (83) 
-0

>  <r_epik_Charging_Adjusted_Penalty>  (83) 
0

>  <i_epik_Tot_Q>  (83) 
0

>  <i_epik_Tot_abs_Q>  (83) 
0

>  <s_epik_Chemistry_Notes>  (83) 
This compound contains an electron-poor aromatic ring that is susceptible to covalent hydrolysis at low pH, typically resulting in measured values for nitrogen ring protonation that are around two units higher than predicted values.

>  <s_lp_Force_Field>  (83) 
OPLS3e

>  <r_lp_Energy>  (83) 
43.4932

>  <b_lp_Chiralities_Consistent>  (83) 
1

>  <s_lp_Variant>  (83) 
27:0-1

>  <s_i_glide_gridfile>  (83) 
pfpi4k_grid

>  <i_i_glide_lignum>  (83) 
38

>  <i_i_glide_rotatable_bonds>  (83) 
3

>  <r_i_docking_score>  (83) 
-3.24772

>  <r_i_glide_ligand_efficiency>  (83) 
-0.141205

>  <r_i_glide_ligand_efficiency_sa>  (83) 
-0.401569

>  <r_i_glide_ligand_efficiency_ln>  (83) 
-0.785328

>  <r_i_glide_gscore>  (83) 
-3.24772

>  <r_i_glide_lipo>  (83) 
-0.112298

>  <r_i_glide_hbond>  (83) 
-0.225559

>  <r_i_glide_metal>  (83) 
-0

>  <r_i_glide_rewards>  (83) 
-1.29521

>  <r_i_glide_evdw>  (83) 
-21.4411

>  <r_i_glide_ecoul>  (83) 
-4.71211

>  <r_i_glide_erotb>  (83) 
0.170478

>  <r_i_glide_esite>  (83) 
-0.00625771

>  <r_i_glide_emodel>  (83) 
-32.2302

>  <r_i_glide_energy>  (83) 
-26.1532

>  <r_i_glide_einternal>  (83) 
0.33822

>  <r_i_glide_intrahb_reward>  (83) 
-0

>  <i_i_glide_confnum>  (83) 
3

>  <i_i_glide_posenum>  (83) 
1

>  <r_i_glide_eff_state_penalty>  (83) 
0

>  <ligand_id>  (83) 
27

>  <original_smiles>  (83) 
COc1ncnc2c1C1(c3ncccn3)COCC(O)C1CS2

>  <smiles>  (83) 
[H]OC1([H])C([H])([H])OC([H])([H])C2(c3nc([H])c([H])c([H])n3)c3c(OC([H])([H])[H])nc([H])nc3SC([H])([H])C12[H]

$$$$
27:0:2
     RDKit          3D

 39 42  0  0  1  0  0  0  0  0999 V2000
    5.3121   -7.2573    5.8228 C   0  0  0  0  0  0  0  0  0  0  0  0
    4.1310   -7.4737    5.0672 O   0  0  0  0  0  0  0  0  0  0  0  0
    3.9387   -6.7467    3.9130 C   0  0  0  0  0  0  0  0  0  0  0  0
    4.8625   -5.8075    3.5896 N   0  0  0  0  0  0  0  0  0  0  0  0
    4.6629   -5.1197    2.4706 C   0  0  0  0  0  0  0  0  0  0  0  0
    3.6460   -5.2513    1.6312 N   0  0  0  0  0  0  0  0  0  0  0  0
    2.7291   -6.1792    1.9528 C   0  0  0  0  0  0  0  0  0  0  0  0
    2.7953   -6.9808    3.1121 C   0  0  0  0  0  0  0  0  0  0  0  0
    1.7468   -8.0594    3.5038 C   0  0  1  0  0  0  0  0  0  0  0  0
    2.4814   -9.3950    3.7473 C   0  0  0  0  0  0  0  0  0  0  0  0
    2.0051  -10.1983    4.6984 N   0  0  0  0  0  0  0  0  0  0  0  0
    2.6015  -11.3921    4.8775 C   0  0  0  0  0  0  0  0  0  0  0  0
    3.6871  -11.7966    4.0873 C   0  0  0  0  0  0  0  0  0  0  0  0
    4.0929  -10.8902    3.0903 C   0  0  0  0  0  0  0  0  0  0  0  0
    3.4892   -9.6956    2.9215 N   0  0  0  0  0  0  0  0  0  0  0  0
    1.0393   -7.5187    4.7928 C   0  0  0  0  0  0  0  0  0  0  0  0
   -0.0815   -8.2783    5.2458 O   0  0  0  0  0  0  0  0  0  0  0  0
   -1.1059   -8.4275    4.2750 C   0  0  0  0  0  0  0  0  0  0  0  0
   -0.5337   -9.1185    3.0313 C   0  0  1  0  0  0  0  0  0  0  0  0
   -1.5530   -9.3115    2.0802 O   0  0  0  0  0  0  0  0  0  0  0  0
    0.6334   -8.3012    2.4306 C   0  0  1  0  0  0  0  0  0  0  0  0
    0.1208   -7.0019    1.7883 C   0  0  0  0  0  0  0  0  0  0  0  0
    1.4095   -6.2576    0.8129 S   0  0  0  0  0  0  0  0  0  0  0  0
    5.2897   -7.9371    6.6700 H   0  0  0  0  0  0  0  0  0  0  0  0
    5.3581   -6.2400    6.2095 H   0  0  0  0  0  0  0  0  0  0  0  0
    6.2151   -7.4728    5.2487 H   0  0  0  0  0  0  0  0  0  0  0  0
    5.3937   -4.3648    2.2249 H   0  0  0  0  0  0  0  0  0  0  0  0
    2.2123  -12.0218    5.6598 H   0  0  0  0  0  0  0  0  0  0  0  0
    4.1724  -12.7472    4.2364 H   0  0  0  0  0  0  0  0  0  0  0  0
    4.9263  -11.1178    2.4448 H   0  0  0  0  0  0  0  0  0  0  0  0
    1.7404   -7.4595    5.6247 H   0  0  0  0  0  0  0  0  0  0  0  0
    0.6753   -6.5034    4.6227 H   0  0  0  0  0  0  0  0  0  0  0  0
   -1.9166   -9.0202    4.6943 H   0  0  0  0  0  0  0  0  0  0  0  0
   -1.5283   -7.4542    4.0263 H   0  0  0  0  0  0  0  0  0  0  0  0
   -0.1859  -10.1148    3.2966 H   0  0  0  0  0  0  0  0  0  0  0  0
   -1.1585   -9.7729    1.3475 H   0  0  0  0  0  0  0  0  0  0  0  0
    1.0693   -8.8785    1.6132 H   0  0  0  0  0  0  0  0  0  0  0  0
   -0.7245   -7.1721    1.1248 H   0  0  0  0  0  0  0  0  0  0  0  0
   -0.1971   -6.2833    2.5405 H   0  0  0  0  0  0  0  0  0  0  0  0
  1  2  1  0
  1 24  1  0
  1 25  1  0
  1 26  1  0
  2  3  1  0
  3  8  2  0
  3  4  1  0
  4  5  2  0
  5  6  1  0
  5 27  1  0
  6  7  2  0
  7 23  1  0
  7  8  1  0
  8  9  1  0
  9 21  1  0
  9 10  1  1
  9 16  1  0
 10 15  1  0
 10 11  2  0
 11 12  1  0
 12 13  2  0
 12 28  1  0
 13 14  1  0
 13 29  1  0
 14 15  2  0
 14 30  1  0
 16 17  1  0
 16 31  1  0
 16 32  1  0
 17 18  1  0
 18 19  1  0
 18 33  1  0
 18 34  1  0
 19 20  1  0
 19 21  1  0
 19 35  1  1
 20 36  1  0
 21 22  1  0
 21 37  1  6
 22 23  1  0
 22 38  1  0
 22 39  1  0
M  END
>  <i_m_ct_stereo_status>  (84) 
1

>  <s_m_source_file>  (84) 
/var/tmp/pbs.5076255.sched01/tmprv8ptrg5/026yimkau.sdf

>  <i_m_source_file_index>  (84) 
38

>  <i_lp_mmshare_version>  (84) 
48012

>  <i_f3d_flags>  (84) 
0

>  <s_epik_input>  (84) 
W0NIMl0xT1tDSDJdW0NAQEhdKFtPSF0pW0NASF0yW0NIMl1TYyhuW2NIXW5jM09bQ0gzXSljM1tDQEBdMTJjNG5bY0hdW2NIXVtjSF1uNA==

>  <s_epik_cmdline>  (84) 
J2VwaWtfcHl0aG9uJywgJy1waHQnLCAnMi4wJywgJy1waCcsICc3LjAnLCAnLXRuJywgJzgnLCAnLW1hJywgJzIwMCcsICctaW1hZScsICc8aW5maWxlLm1hZT4nLCAnLW9tYWUnLCAnPG91dGZpbGUubWFlPic=

>  <r_lp_tautomer_probability>  (84) 
1

>  <r_epik_Ionization_Penalty>  (84) 
2.92261e-05

>  <r_epik_Ionization_Penalty_Charging>  (84) 
0

>  <r_epik_Ionization_Penalty_Neutral>  (84) 
2.92261e-05

>  <r_epik_State_Penalty>  (84) 
-0

>  <r_epik_Charging_Adjusted_Penalty>  (84) 
0

>  <i_epik_Tot_Q>  (84) 
0

>  <i_epik_Tot_abs_Q>  (84) 
0

>  <s_epik_Chemistry_Notes>  (84) 
This compound contains an electron-poor aromatic ring that is susceptible to covalent hydrolysis at low pH, typically resulting in measured values for nitrogen ring protonation that are around two units higher than predicted values.

>  <s_lp_Force_Field>  (84) 
OPLS3e

>  <r_lp_Energy>  (84) 
43.4932

>  <b_lp_Chiralities_Consistent>  (84) 
1

>  <s_lp_Variant>  (84) 
27:0-1

>  <s_i_glide_gridfile>  (84) 
pfpi4k_grid

>  <i_i_glide_lignum>  (84) 
38

>  <i_i_glide_rotatable_bonds>  (84) 
3

>  <r_i_docking_score>  (84) 
-2.96721

>  <r_i_glide_ligand_efficiency>  (84) 
-0.129009

>  <r_i_glide_ligand_efficiency_sa>  (84) 
-0.366885

>  <r_i_glide_ligand_efficiency_ln>  (84) 
-0.717498

>  <r_i_glide_gscore>  (84) 
-2.96721

>  <r_i_glide_lipo>  (84) 
0

>  <r_i_glide_hbond>  (84) 
-0.32

>  <r_i_glide_metal>  (84) 
-0

>  <r_i_glide_rewards>  (84) 
-1.14747

>  <r_i_glide_evdw>  (84) 
-20.6352

>  <r_i_glide_ecoul>  (84) 
-4.197

>  <r_i_glide_erotb>  (84) 
0.170478

>  <r_i_glide_esite>  (84) 
-0.00891369

>  <r_i_glide_emodel>  (84) 
-30.3001

>  <r_i_glide_energy>  (84) 
-24.8322

>  <r_i_glide_einternal>  (84) 
0.353222

>  <r_i_glide_intrahb_reward>  (84) 
-0

>  <i_i_glide_confnum>  (84) 
3

>  <i_i_glide_posenum>  (84) 
7

>  <r_i_glide_eff_state_penalty>  (84) 
0

>  <ligand_id>  (84) 
27

>  <original_smiles>  (84) 
COc1ncnc2c1C1(c3ncccn3)COCC(O)C1CS2

>  <smiles>  (84) 
[H]OC1([H])C([H])([H])OC([H])([H])C2(c3nc([H])c([H])c([H])n3)c3c(OC([H])([H])[H])nc([H])nc3SC([H])([H])C12[H]

$$$$
28:0:0
     RDKit          3D

 49 54  0  0  1  0  0  0  0  0999 V2000
    2.1619   -5.1080    0.1732 O   0  0  0  0  0  0  0  0  0  0  0  0
    3.3369   -4.8867    0.4616 C   0  0  0  0  0  0  0  0  0  0  0  0
    3.8470   -5.1192    1.8265 C   0  0  0  0  0  0  0  0  0  0  0  0
    5.1399   -4.9378    2.1578 C   0  0  0  0  0  0  0  0  0  0  0  0
    5.5589   -5.1224    3.5559 C   0  0  0  0  0  0  0  0  0  0  0  0
    6.7106   -5.8749    3.8358 C   0  0  0  0  0  0  0  0  0  0  0  0
    7.0842   -6.0738    5.1746 C   0  0  0  0  0  0  0  0  0  0  0  0
    6.3902   -5.5687    6.2213 N   0  0  0  0  0  0  0  0  0  0  0  0
    5.2923   -4.8304    5.9493 C   0  0  0  0  0  0  0  0  0  0  0  0
    4.8286   -4.5892    4.6467 C   0  0  0  0  0  0  0  0  0  0  0  0
    6.1558   -4.4475    1.1320 C   0  0  0  0  0  0  0  0  0  0  0  0
    5.5422   -3.6165   -0.0140 C   0  0  1  0  0  0  0  0  0  0  0  0
    4.2933   -4.3198   -0.6124 C   0  0  2  0  0  0  0  0  0  0  0  0
    3.5684   -3.3932   -1.6244 C   0  0  2  0  0  0  0  0  0  0  0  0
    4.4473   -2.9077   -2.7882 C   0  0  0  0  0  0  0  0  0  0  0  0
    5.0109   -1.5863   -2.2809 C   0  0  0  0  0  0  0  0  0  0  0  0
    4.4576   -1.4473   -0.8611 C   0  0  1  0  0  0  0  0  0  0  0  0
    3.2565   -2.1854   -0.9485 O   0  0  0  0  0  0  0  0  0  0  0  0
    5.3393   -2.0814    0.2408 C   0  0  1  0  0  0  0  0  0  0  0  0
    4.8586   -1.6888    1.6426 C   0  0  0  0  0  0  0  0  0  0  0  0
    3.5391   -1.9861    2.0863 C   0  0  0  0  0  0  0  0  0  0  0  0
    3.1093   -1.6747    3.3917 C   0  0  0  0  0  0  0  0  0  0  0  0
    3.9846   -0.9413    4.2023 C   0  0  0  0  0  0  0  0  0  0  0  0
    5.2445   -0.5815    3.7648 C   0  0  0  0  0  0  0  0  0  0  0  0
    5.7239   -0.9608    2.4973 C   0  0  0  0  0  0  0  0  0  0  0  0
    5.8537    0.1638    4.7263 O   0  0  0  0  0  0  0  0  0  0  0  0
    4.8752    0.3669    5.7140 C   0  0  0  0  0  0  0  0  0  0  0  0
    3.7700   -0.4523    5.4490 O   0  0  0  0  0  0  0  0  0  0  0  0
    3.1329   -5.4418    2.5764 H   0  0  0  0  0  0  0  0  0  0  0  0
    7.3032   -6.3063    3.0348 H   0  0  0  0  0  0  0  0  0  0  0  0
    7.9459   -6.6748    5.4313 H   0  0  0  0  0  0  0  0  0  0  0  0
    4.7600   -4.4456    6.8065 H   0  0  0  0  0  0  0  0  0  0  0  0
    3.9422   -3.9937    4.4909 H   0  0  0  0  0  0  0  0  0  0  0  0
    6.9090   -3.8388    1.6319 H   0  0  0  0  0  0  0  0  0  0  0  0
    6.6613   -5.3298    0.7304 H   0  0  0  0  0  0  0  0  0  0  0  0
    6.2745   -3.6581   -0.8221 H   0  0  0  0  0  0  0  0  0  0  0  0
    4.6369   -5.1925   -1.1618 H   0  0  0  0  0  0  0  0  0  0  0  0
    2.6539   -3.8461   -2.0104 H   0  0  0  0  0  0  0  0  0  0  0  0
    5.2174   -3.6274   -3.0560 H   0  0  0  0  0  0  0  0  0  0  0  0
    3.8446   -2.7284   -3.6779 H   0  0  0  0  0  0  0  0  0  0  0  0
    6.1017   -1.5687   -2.3028 H   0  0  0  0  0  0  0  0  0  0  0  0
    4.6508   -0.7685   -2.9079 H   0  0  0  0  0  0  0  0  0  0  0  0
    4.2560   -0.4010   -0.6379 H   0  0  0  0  0  0  0  0  0  0  0  0
    6.3241   -1.6292    0.1287 H   0  0  0  0  0  0  0  0  0  0  0  0
    2.8238   -2.4649    1.4393 H   0  0  0  0  0  0  0  0  0  0  0  0
    2.1287   -1.9619    3.7437 H   0  0  0  0  0  0  0  0  0  0  0  0
    6.7161   -0.6651    2.1861 H   0  0  0  0  0  0  0  0  0  0  0  0
    5.2712    0.1600    6.7104 H   0  0  0  0  0  0  0  0  0  0  0  0
    4.5421    1.4079    5.6666 H   0  0  0  0  0  0  0  0  0  0  0  0
  1  2  2  0
  2 13  1  0
  2  3  1  0
  3  4  2  0
  3 29  1  0
  4  5  1  0
  4 11  1  0
  5 10  1  0
  5  6  2  0
  6  7  1  0
  6 30  1  0
  7  8  2  0
  7 31  1  0
  8  9  1  0
  9 10  2  0
  9 32  1  0
 10 33  1  0
 11 12  1  0
 11 34  1  0
 11 35  1  0
 12 19  1  0
 12 13  1  0
 12 36  1  6
 13 14  1  0
 13 37  1  6
 14 18  1  0
 14 15  1  0
 14 38  1  6
 15 16  1  0
 15 39  1  0
 15 40  1  0
 16 17  1  0
 16 41  1  0
 16 42  1  0
 17 18  1  0
 17 19  1  0
 17 43  1  1
 19 20  1  0
 19 44  1  6
 20 25  1  0
 20 21  2  0
 21 22  1  0
 21 45  1  0
 22 23  2  0
 22 46  1  0
 23 28  1  0
 23 24  1  0
 24 25  2  0
 24 26  1  0
 25 47  1  0
 26 27  1  0
 27 28  1  0
 27 48  1  0
 27 49  1  0
M  END
>  <i_m_ct_stereo_status>  (85) 
1

>  <s_m_source_file>  (85) 
/var/tmp/pbs.5076255.sched01/tmprv8ptrg5/026yimkau.sdf

>  <i_m_source_file_index>  (85) 
39

>  <i_lp_mmshare_version>  (85) 
48012

>  <i_f3d_flags>  (85) 
0

>  <s_epik_input>  (85) 
W2NIXTFbY0hdbltjSF1bY0hdYzFDKFtDSDJdMik9W0NIXUMoPU8pW0NASF0oW0NASF0yMylbQ0BASF00W0NIMl1bQ0gyXVtDQEBIXShPNClbQ0BIXTNjKFtjSF1bY0hdNSlbY0hdYyhjNTYpT1tDSDJdTzY=

>  <s_epik_cmdline>  (85) 
J2VwaWtfcHl0aG9uJywgJy1waHQnLCAnMi4wJywgJy1waCcsICc3LjAnLCAnLXRuJywgJzgnLCAnLW1hJywgJzIwMCcsICctaW1hZScsICc8aW5maWxlLm1hZT4nLCAnLW9tYWUnLCAnPG91dGZpbGUubWFlPic=

>  <r_lp_tautomer_probability>  (85) 
1

>  <r_epik_Ionization_Penalty>  (85) 
0.0228818

>  <r_epik_Ionization_Penalty_Charging>  (85) 
0

>  <r_epik_Ionization_Penalty_Neutral>  (85) 
0.0228818

>  <r_epik_State_Penalty>  (85) 
0.0184875

>  <r_epik_Charging_Adjusted_Penalty>  (85) 
0.0184875

>  <i_epik_Tot_Q>  (85) 
0

>  <i_epik_Tot_abs_Q>  (85) 
0

>  <s_epik_Chemistry_Notes>  (85) 
This compound contains an acetal/aminal-like group ( X-CH(R)-Y where X, Y are N, S, or O) that may be acid/base labile, releasing an aldehyde.

>  <s_lp_Force_Field>  (85) 
OPLS3e

>  <r_lp_Energy>  (85) 
56.1119

>  <b_lp_Chiralities_Consistent>  (85) 
1

>  <s_lp_Variant>  (85) 
28:0-1

>  <s_i_glide_gridfile>  (85) 
pfpi4k_grid

>  <i_i_glide_lignum>  (85) 
39

>  <i_i_glide_rotatable_bonds>  (85) 
2

>  <r_i_docking_score>  (85) 
-2.57284

>  <r_i_glide_ligand_efficiency>  (85) 
-0.0918873

>  <r_i_glide_ligand_efficiency_sa>  (85) 
-0.279024

>  <r_i_glide_ligand_efficiency_ln>  (85) 
-0.593888

>  <r_i_glide_gscore>  (85) 
-2.57284

>  <r_i_glide_lipo>  (85) 
-0.577446

>  <r_i_glide_hbond>  (85) 
-0.0183118

>  <r_i_glide_metal>  (85) 
-0

>  <r_i_glide_rewards>  (85) 
-0.881134

>  <r_i_glide_evdw>  (85) 
-25.3277

>  <r_i_glide_ecoul>  (85) 
-0.61095

>  <r_i_glide_erotb>  (85) 
0.274541

>  <r_i_glide_esite>  (85) 
-0.012468

>  <r_i_glide_emodel>  (85) 
-28.9134

>  <r_i_glide_energy>  (85) 
-25.9386

>  <r_i_glide_einternal>  (85) 
1.77853

>  <r_i_glide_intrahb_reward>  (85) 
-0

>  <i_i_glide_confnum>  (85) 
2

>  <i_i_glide_posenum>  (85) 
39

>  <r_i_glide_eff_state_penalty>  (85) 
0

>  <ligand_id>  (85) 
28

>  <original_smiles>  (85) 
O=C1C=C(c2ccncc2)CC2C1C1CCC(O1)C2c1ccc2c(c1)OCO2

>  <smiles>  (85) 
[H]C1=C(c2c([H])c([H])nc([H])c2[H])C([H])([H])C2([H])C([H])(C1=O)C1([H])OC([H])(C([H])([H])C1([H])[H])C2([H])c1c([H])c([H])c2c(c1[H])OC([H])([H])O2

$$$$
28:0:1
     RDKit          3D

 49 54  0  0  1  0  0  0  0  0999 V2000
    0.6485   -6.2514    0.9295 O   0  0  0  0  0  0  0  0  0  0  0  0
    1.7530   -6.6689    1.2664 C   0  0  0  0  0  0  0  0  0  0  0  0
    1.9137   -7.9581    1.9646 C   0  0  0  0  0  0  0  0  0  0  0  0
    3.1194   -8.4863    2.2508 C   0  0  0  0  0  0  0  0  0  0  0  0
    3.1991   -9.7145    3.0640 C   0  0  0  0  0  0  0  0  0  0  0  0
    4.3230  -10.5616    2.9488 C   0  0  0  0  0  0  0  0  0  0  0  0
    4.3496  -11.7629    3.6656 C   0  0  0  0  0  0  0  0  0  0  0  0
    3.3543  -12.1661    4.4857 N   0  0  0  0  0  0  0  0  0  0  0  0
    2.2795  -11.3536    4.6096 C   0  0  0  0  0  0  0  0  0  0  0  0
    2.1517  -10.1363    3.9317 C   0  0  0  0  0  0  0  0  0  0  0  0
    4.4011   -7.7450    1.8699 C   0  0  0  0  0  0  0  0  0  0  0  0
    4.2515   -6.2162    1.7302 C   0  0  1  0  0  0  0  0  0  0  0  0
    3.0112   -5.8527    0.8806 C   0  0  2  0  0  0  0  0  0  0  0  0
    2.7577   -4.3210    0.9079 C   0  0  2  0  0  0  0  0  0  0  0  0
    3.9498   -3.4735    0.4419 C   0  0  0  0  0  0  0  0  0  0  0  0
    4.7135   -3.1760    1.7290 C   0  0  0  0  0  0  0  0  0  0  0  0
    3.9133   -3.9144    2.8120 C   0  0  1  0  0  0  0  0  0  0  0  0
    2.6030   -3.9327    2.2674 O   0  0  0  0  0  0  0  0  0  0  0  0
    4.3785   -5.3695    3.0401 C   0  0  1  0  0  0  0  0  0  0  0  0
    3.7839   -5.9947    4.3083 C   0  0  0  0  0  0  0  0  0  0  0  0
    4.6507   -6.4928    5.3185 C   0  0  0  0  0  0  0  0  0  0  0  0
    4.1383   -7.1317    6.4755 C   0  0  0  0  0  0  0  0  0  0  0  0
    2.7460   -7.2857    6.5807 C   0  0  0  0  0  0  0  0  0  0  0  0
    1.8929   -6.7857    5.6162 C   0  0  0  0  0  0  0  0  0  0  0  0
    2.3786   -6.0872    4.4993 C   0  0  0  0  0  0  0  0  0  0  0  0
    0.6077   -7.1142    5.9252 O   0  0  0  0  0  0  0  0  0  0  0  0
    0.7011   -7.9319    7.0649 C   0  0  0  0  0  0  0  0  0  0  0  0
    2.0231   -7.9270    7.5396 O   0  0  0  0  0  0  0  0  0  0  0  0
    0.9916   -8.4487    2.2351 H   0  0  0  0  0  0  0  0  0  0  0  0
    5.1582  -10.3178    2.2958 H   0  0  0  0  0  0  0  0  0  0  0  0
    5.1826  -12.4505    3.5813 H   0  0  0  0  0  0  0  0  0  0  0  0
    1.4886  -11.7064    5.2593 H   0  0  0  0  0  0  0  0  0  0  0  0
    1.2664   -9.5354    4.0994 H   0  0  0  0  0  0  0  0  0  0  0  0
    5.1786   -7.9308    2.6111 H   0  0  0  0  0  0  0  0  0  0  0  0
    4.7414   -8.1868    0.9328 H   0  0  0  0  0  0  0  0  0  0  0  0
    5.1000   -5.9033    1.1204 H   0  0  0  0  0  0  0  0  0  0  0  0
    3.2227   -6.1273   -0.1540 H   0  0  0  0  0  0  0  0  0  0  0  0
    1.8759   -4.0620    0.3250 H   0  0  0  0  0  0  0  0  0  0  0  0
    4.5530   -3.9812   -0.3100 H   0  0  0  0  0  0  0  0  0  0  0  0
    3.5994   -2.5398    0.0024 H   0  0  0  0  0  0  0  0  0  0  0  0
    5.7590   -3.4805    1.6848 H   0  0  0  0  0  0  0  0  0  0  0  0
    4.6981   -2.1013    1.9156 H   0  0  0  0  0  0  0  0  0  0  0  0
    3.9455   -3.3530    3.7445 H   0  0  0  0  0  0  0  0  0  0  0  0
    5.4472   -5.2990    3.2342 H   0  0  0  0  0  0  0  0  0  0  0  0
    5.7222   -6.4084    5.2053 H   0  0  0  0  0  0  0  0  0  0  0  0
    4.7936   -7.5262    7.2421 H   0  0  0  0  0  0  0  0  0  0  0  0
    1.6731   -5.7033    3.7809 H   0  0  0  0  0  0  0  0  0  0  0  0
    0.0074   -7.5922    7.8359 H   0  0  0  0  0  0  0  0  0  0  0  0
    0.4484   -8.9561    6.7828 H   0  0  0  0  0  0  0  0  0  0  0  0
  1  2  2  0
  2 13  1  0
  2  3  1  0
  3  4  2  0
  3 29  1  0
  4  5  1  0
  4 11  1  0
  5 10  1  0
  5  6  2  0
  6  7  1  0
  6 30  1  0
  7  8  2  0
  7 31  1  0
  8  9  1  0
  9 10  2  0
  9 32  1  0
 10 33  1  0
 11 12  1  0
 11 34  1  0
 11 35  1  0
 12 19  1  0
 12 13  1  0
 12 36  1  6
 13 14  1  0
 13 37  1  6
 14 18  1  0
 14 15  1  0
 14 38  1  6
 15 16  1  0
 15 39  1  0
 15 40  1  0
 16 17  1  0
 16 41  1  0
 16 42  1  0
 17 18  1  0
 17 19  1  0
 17 43  1  1
 19 20  1  0
 19 44  1  1
 20 25  1  0
 20 21  2  0
 21 22  1  0
 21 45  1  0
 22 23  2  0
 22 46  1  0
 23 28  1  0
 23 24  1  0
 24 25  2  0
 24 26  1  0
 25 47  1  0
 26 27  1  0
 27 28  1  0
 27 48  1  0
 27 49  1  0
M  END
>  <i_m_ct_stereo_status>  (86) 
1

>  <s_m_source_file>  (86) 
/var/tmp/pbs.5076255.sched01/tmprv8ptrg5/026yimkau.sdf

>  <i_m_source_file_index>  (86) 
39

>  <i_lp_mmshare_version>  (86) 
48012

>  <i_f3d_flags>  (86) 
0

>  <s_epik_input>  (86) 
W2NIXTFbY0hdbltjSF1bY0hdYzFDKFtDSDJdMik9W0NIXUMoPU8pW0NASF0oW0NASF0yMylbQ0BASF00W0NIMl1bQ0gyXVtDQEBIXShPNClbQ0BIXTNjKFtjSF1bY0hdNSlbY0hdYyhjNTYpT1tDSDJdTzY=

>  <s_epik_cmdline>  (86) 
J2VwaWtfcHl0aG9uJywgJy1waHQnLCAnMi4wJywgJy1waCcsICc3LjAnLCAnLXRuJywgJzgnLCAnLW1hJywgJzIwMCcsICctaW1hZScsICc8aW5maWxlLm1hZT4nLCAnLW9tYWUnLCAnPG91dGZpbGUubWFlPic=

>  <r_lp_tautomer_probability>  (86) 
1

>  <r_epik_Ionization_Penalty>  (86) 
0.0228818

>  <r_epik_Ionization_Penalty_Charging>  (86) 
0

>  <r_epik_Ionization_Penalty_Neutral>  (86) 
0.0228818

>  <r_epik_State_Penalty>  (86) 
0.0184875

>  <r_epik_Charging_Adjusted_Penalty>  (86) 
0.0184875

>  <i_epik_Tot_Q>  (86) 
0

>  <i_epik_Tot_abs_Q>  (86) 
0

>  <s_epik_Chemistry_Notes>  (86) 
This compound contains an acetal/aminal-like group ( X-CH(R)-Y where X, Y are N, S, or O) that may be acid/base labile, releasing an aldehyde.

>  <s_lp_Force_Field>  (86) 
OPLS3e

>  <r_lp_Energy>  (86) 
56.1119

>  <b_lp_Chiralities_Consistent>  (86) 
1

>  <s_lp_Variant>  (86) 
28:0-1

>  <s_i_glide_gridfile>  (86) 
pfpi4k_grid

>  <i_i_glide_lignum>  (86) 
39

>  <i_i_glide_rotatable_bonds>  (86) 
2

>  <r_i_docking_score>  (86) 
-2.42849

>  <r_i_glide_ligand_efficiency>  (86) 
-0.086732

>  <r_i_glide_ligand_efficiency_sa>  (86) 
-0.263369

>  <r_i_glide_ligand_efficiency_ln>  (86) 
-0.560568

>  <r_i_glide_gscore>  (86) 
-2.42849

>  <r_i_glide_lipo>  (86) 
-0.1013

>  <r_i_glide_hbond>  (86) 
-0.16

>  <r_i_glide_metal>  (86) 
-0

>  <r_i_glide_rewards>  (86) 
-0.849429

>  <r_i_glide_evdw>  (86) 
-22.6315

>  <r_i_glide_ecoul>  (86) 
-2.64615

>  <r_i_glide_erotb>  (86) 
0.274541

>  <r_i_glide_esite>  (86) 
-0.0638092

>  <r_i_glide_emodel>  (86) 
-28.7695

>  <r_i_glide_energy>  (86) 
-25.2777

>  <r_i_glide_einternal>  (86) 
0.68182

>  <r_i_glide_intrahb_reward>  (86) 
-0

>  <i_i_glide_confnum>  (86) 
4

>  <i_i_glide_posenum>  (86) 
17

>  <r_i_glide_eff_state_penalty>  (86) 
0

>  <ligand_id>  (86) 
28

>  <original_smiles>  (86) 
O=C1C=C(c2ccncc2)CC2C1C1CCC(O1)C2c1ccc2c(c1)OCO2

>  <smiles>  (86) 
[H]C1=C(c2c([H])c([H])nc([H])c2[H])C([H])([H])C2([H])C([H])(C1=O)C1([H])OC([H])(C([H])([H])C1([H])[H])C2([H])c1c([H])c([H])c2c(c1[H])OC([H])([H])O2

$$$$
28:0:2
     RDKit          3D

 49 54  0  0  1  0  0  0  0  0999 V2000
    2.0657   -5.0819    0.0501 O   0  0  0  0  0  0  0  0  0  0  0  0
    3.1760   -4.8467    0.5152 C   0  0  0  0  0  0  0  0  0  0  0  0
    3.4559   -5.0813    1.9409 C   0  0  0  0  0  0  0  0  0  0  0  0
    4.6742   -4.9074    2.4864 C   0  0  0  0  0  0  0  0  0  0  0  0
    4.8533   -5.0827    3.9423 C   0  0  0  0  0  0  0  0  0  0  0  0
    3.7841   -4.9205    4.8655 C   0  0  0  0  0  0  0  0  0  0  0  0
    4.0189   -5.1744    6.2223 C   0  0  0  0  0  0  0  0  0  0  0  0
    5.2161   -5.5658    6.7127 N   0  0  0  0  0  0  0  0  0  0  0  0
    6.2344   -5.7067    5.8329 C   0  0  0  0  0  0  0  0  0  0  0  0
    6.1025   -5.4822    4.4564 C   0  0  0  0  0  0  0  0  0  0  0  0
    5.8426   -4.4229    1.6285 C   0  0  0  0  0  0  0  0  0  0  0  0
    5.4367   -3.6027    0.3898 C   0  0  1  0  0  0  0  0  0  0  0  0
    4.2990   -4.3032   -0.3985 C   0  0  2  0  0  0  0  0  0  0  0  0
    3.7645   -3.3788   -1.5243 C   0  0  2  0  0  0  0  0  0  0  0  0
    4.8408   -2.9044   -2.5139 C   0  0  0  0  0  0  0  0  0  0  0  0
    5.3156   -1.5833   -1.9169 C   0  0  0  0  0  0  0  0  0  0  0  0
    4.5132   -1.4352   -0.6205 C   0  0  1  0  0  0  0  0  0  0  0  0
    3.3449   -2.1677   -0.9187 O   0  0  0  0  0  0  0  0  0  0  0  0
    5.1950   -2.0719    0.6075 C   0  0  1  0  0  0  0  0  0  0  0  0
    4.5239   -1.6824    1.9282 C   0  0  0  0  0  0  0  0  0  0  0  0
    5.3051   -1.0973    2.9593 C   0  0  0  0  0  0  0  0  0  0  0  0
    4.7397   -0.7782    4.2168 C   0  0  0  0  0  0  0  0  0  0  0  0
    3.3819   -1.0750    4.4194 C   0  0  0  0  0  0  0  0  0  0  0  0
    2.6047   -1.6196    3.4153 C   0  0  0  0  0  0  0  0  0  0  0  0
    3.1359   -1.8955    2.1445 C   0  0  0  0  0  0  0  0  0  0  0  0
    1.3494   -1.8558    3.8859 O   0  0  0  0  0  0  0  0  0  0  0  0
    1.4001   -1.5294    5.2497 C   0  0  0  0  0  0  0  0  0  0  0  0
    2.6359   -0.9366    5.5480 O   0  0  0  0  0  0  0  0  0  0  0  0
    2.6085   -5.4083    2.5302 H   0  0  0  0  0  0  0  0  0  0  0  0
    2.8010   -4.5943    4.5493 H   0  0  0  0  0  0  0  0  0  0  0  0
    3.2213   -5.0788    6.9457 H   0  0  0  0  0  0  0  0  0  0  0  0
    7.1762   -6.0276    6.2562 H   0  0  0  0  0  0  0  0  0  0  0  0
    6.9618   -5.6243    3.8061 H   0  0  0  0  0  0  0  0  0  0  0  0
    6.5181   -3.8093    2.2214 H   0  0  0  0  0  0  0  0  0  0  0  0
    6.3978   -5.3154    1.3342 H   0  0  0  0  0  0  0  0  0  0  0  0
    6.3013   -3.6493   -0.2761 H   0  0  0  0  0  0  0  0  0  0  0  0
    4.7159   -5.1888   -0.8720 H   0  0  0  0  0  0  0  0  0  0  0  0
    2.9293   -3.8226   -2.0631 H   0  0  0  0  0  0  0  0  0  0  0  0
    5.6431   -3.6300   -2.6453 H   0  0  0  0  0  0  0  0  0  0  0  0
    4.4004   -2.7256   -3.4952 H   0  0  0  0  0  0  0  0  0  0  0  0
    6.3901   -1.5644   -1.7533 H   0  0  0  0  0  0  0  0  0  0  0  0
    5.0592   -0.7711   -2.5964 H   0  0  0  0  0  0  0  0  0  0  0  0
    4.2818   -0.3872   -0.4361 H   0  0  0  0  0  0  0  0  0  0  0  0
    6.1841   -1.6195    0.6527 H   0  0  0  0  0  0  0  0  0  0  0  0
    6.3581   -0.9107    2.8016 H   0  0  0  0  0  0  0  0  0  0  0  0
    5.3359   -0.3534    5.0137 H   0  0  0  0  0  0  0  0  0  0  0  0
    2.4924   -2.3181    1.3891 H   0  0  0  0  0  0  0  0  0  0  0  0
    0.5709   -0.8739    5.5250 H   0  0  0  0  0  0  0  0  0  0  0  0
    1.3309   -2.4557    5.8238 H   0  0  0  0  0  0  0  0  0  0  0  0
  1  2  2  0
  2 13  1  0
  2  3  1  0
  3  4  2  0
  3 29  1  0
  4  5  1  0
  4 11  1  0
  5 10  1  0
  5  6  2  0
  6  7  1  0
  6 30  1  0
  7  8  2  0
  7 31  1  0
  8  9  1  0
  9 10  2  0
  9 32  1  0
 10 33  1  0
 11 12  1  0
 11 34  1  0
 11 35  1  0
 12 19  1  0
 12 13  1  0
 12 36  1  6
 13 14  1  0
 13 37  1  6
 14 18  1  0
 14 15  1  0
 14 38  1  6
 15 16  1  0
 15 39  1  0
 15 40  1  0
 16 17  1  0
 16 41  1  0
 16 42  1  0
 17 18  1  0
 17 19  1  0
 17 43  1  1
 19 20  1  0
 19 44  1  1
 20 25  1  0
 20 21  2  0
 21 22  1  0
 21 45  1  0
 22 23  2  0
 22 46  1  0
 23 28  1  0
 23 24  1  0
 24 25  2  0
 24 26  1  0
 25 47  1  0
 26 27  1  0
 27 28  1  0
 27 48  1  0
 27 49  1  0
M  END
>  <i_m_ct_stereo_status>  (87) 
1

>  <s_m_source_file>  (87) 
/var/tmp/pbs.5076255.sched01/tmprv8ptrg5/026yimkau.sdf

>  <i_m_source_file_index>  (87) 
39

>  <i_lp_mmshare_version>  (87) 
48012

>  <i_f3d_flags>  (87) 
0

>  <s_epik_input>  (87) 
W2NIXTFbY0hdbltjSF1bY0hdYzFDKFtDSDJdMik9W0NIXUMoPU8pW0NASF0oW0NASF0yMylbQ0BASF00W0NIMl1bQ0gyXVtDQEBIXShPNClbQ0BIXTNjKFtjSF1bY0hdNSlbY0hdYyhjNTYpT1tDSDJdTzY=

>  <s_epik_cmdline>  (87) 
J2VwaWtfcHl0aG9uJywgJy1waHQnLCAnMi4wJywgJy1waCcsICc3LjAnLCAnLXRuJywgJzgnLCAnLW1hJywgJzIwMCcsICctaW1hZScsICc8aW5maWxlLm1hZT4nLCAnLW9tYWUnLCAnPG91dGZpbGUubWFlPic=

>  <r_lp_tautomer_probability>  (87) 
1

>  <r_epik_Ionization_Penalty>  (87) 
0.0228818

>  <r_epik_Ionization_Penalty_Charging>  (87) 
0

>  <r_epik_Ionization_Penalty_Neutral>  (87) 
0.0228818

>  <r_epik_State_Penalty>  (87) 
0.0184875

>  <r_epik_Charging_Adjusted_Penalty>  (87) 
0.0184875

>  <i_epik_Tot_Q>  (87) 
0

>  <i_epik_Tot_abs_Q>  (87) 
0

>  <s_epik_Chemistry_Notes>  (87) 
This compound contains an acetal/aminal-like group ( X-CH(R)-Y where X, Y are N, S, or O) that may be acid/base labile, releasing an aldehyde.

>  <s_lp_Force_Field>  (87) 
OPLS3e

>  <r_lp_Energy>  (87) 
56.1119

>  <b_lp_Chiralities_Consistent>  (87) 
1

>  <s_lp_Variant>  (87) 
28:0-1

>  <s_i_glide_gridfile>  (87) 
pfpi4k_grid

>  <i_i_glide_lignum>  (87) 
39

>  <i_i_glide_rotatable_bonds>  (87) 
2

>  <r_i_docking_score>  (87) 
-2.16419

>  <r_i_glide_ligand_efficiency>  (87) 
-0.0772926

>  <r_i_glide_ligand_efficiency_sa>  (87) 
-0.234706

>  <r_i_glide_ligand_efficiency_ln>  (87) 
-0.499559

>  <r_i_glide_gscore>  (87) 
-2.16419

>  <r_i_glide_lipo>  (87) 
-0.473227

>  <r_i_glide_hbond>  (87) 
-0.0288318

>  <r_i_glide_metal>  (87) 
-0

>  <r_i_glide_rewards>  (87) 
-0.849429

>  <r_i_glide_evdw>  (87) 
-23.696

>  <r_i_glide_ecoul>  (87) 
0.755634

>  <r_i_glide_erotb>  (87) 
0.274541

>  <r_i_glide_esite>  (87) 
-0.0157891

>  <r_i_glide_emodel>  (87) 
-26.114

>  <r_i_glide_energy>  (87) 
-22.9404

>  <r_i_glide_einternal>  (87) 
0.538664

>  <r_i_glide_intrahb_reward>  (87) 
-0

>  <i_i_glide_confnum>  (87) 
2

>  <i_i_glide_posenum>  (87) 
15

>  <r_i_glide_eff_state_penalty>  (87) 
0

>  <ligand_id>  (87) 
28

>  <original_smiles>  (87) 
O=C1C=C(c2ccncc2)CC2C1C1CCC(O1)C2c1ccc2c(c1)OCO2

>  <smiles>  (87) 
[H]C1=C(c2c([H])c([H])nc([H])c2[H])C([H])([H])C2([H])C([H])(C1=O)C1([H])OC([H])(C([H])([H])C1([H])[H])C2([H])c1c([H])c([H])c2c(c1[H])OC([H])([H])O2

$$$$
29:0:0
     RDKit          3D

 30 32  0  0  1  0  0  0  0  0999 V2000
    4.3166   -8.4911    1.2746 C   0  0  0  0  0  0  0  0  0  0  0  0
    4.5542   -7.0056    1.5477 C   0  0  2  0  0  0  0  0  0  0  0  0
    4.0049   -6.1724    0.4990 O   0  0  0  0  0  0  0  0  0  0  0  0
    4.7268   -4.9399    0.5346 C   0  0  1  0  0  0  0  0  0  0  0  0
    6.1223   -5.2940    0.9644 C   0  0  0  0  0  0  0  0  0  0  0  0
    7.2453   -4.7310    0.5104 C   0  0  0  0  0  0  0  0  0  0  0  0
    7.1699   -3.6479   -0.3512 O   0  0  0  0  0  0  0  0  0  0  0  0
    5.9180   -3.1028   -0.5961 C   0  0  1  0  0  0  0  0  0  0  0  0
    5.7691   -2.4017   -1.7768 O   0  0  0  0  0  0  0  0  0  0  0  0
    4.4058   -2.4596   -2.0594 C   0  0  0  0  0  0  0  0  0  0  0  0
    3.8124   -1.0825   -1.7184 C   0  0  0  0  0  0  0  0  0  0  0  0
    4.2151   -2.8151   -3.5472 C   0  0  0  0  0  0  0  0  0  0  0  0
    3.7719   -3.4360   -1.2774 O   0  0  0  0  0  0  0  0  0  0  0  0
    4.8598   -4.1866   -0.7903 C   0  0  2  0  0  0  0  0  0  0  0  0
    6.0156   -6.5920    1.5971 C   0  0  0  0  0  0  0  0  0  0  0  0
    6.9152   -7.2884    2.0790 O   0  0  0  0  0  0  0  0  0  0  0  0
    4.6733   -9.1073    2.1096 H   0  0  0  0  0  0  0  0  0  0  0  0
    4.8352   -8.8215    0.3777 H   0  0  0  0  0  0  0  0  0  0  0  0
    3.2610   -8.6952    1.1509 H   0  0  0  0  0  0  0  0  0  0  0  0
    4.0918   -6.7144    2.4964 H   0  0  0  0  0  0  0  0  0  0  0  0
    4.2797   -4.3013    1.3127 H   0  0  0  0  0  0  0  0  0  0  0  0
    8.2518   -5.0714    0.6874 H   0  0  0  0  0  0  0  0  0  0  0  0
    5.6393   -2.4424    0.2294 H   0  0  0  0  0  0  0  0  0  0  0  0
    3.9646   -0.8622   -0.6657 H   0  0  0  0  0  0  0  0  0  0  0  0
    2.7374   -1.0695   -1.9328 H   0  0  0  0  0  0  0  0  0  0  0  0
    4.3013   -0.3092   -2.3133 H   0  0  0  0  0  0  0  0  0  0  0  0
    4.6481   -3.7910   -3.7565 H   0  0  0  0  0  0  0  0  0  0  0  0
    4.6858   -2.0617   -4.1684 H   0  0  0  0  0  0  0  0  0  0  0  0
    3.1454   -2.8469   -3.7829 H   0  0  0  0  0  0  0  0  0  0  0  0
    5.1977   -4.8737   -1.5795 H   0  0  0  0  0  0  0  0  0  0  0  0
  1  2  1  0
  1 17  1  0
  1 18  1  0
  1 19  1  0
  2 15  1  0
  2  3  1  0
  2 20  1  1
  3  4  1  0
  4 14  1  0
  4  5  1  0
  4 21  1  1
  5  6  2  0
  5 15  1  0
  6  7  1  0
  6 22  1  0
  7  8  1  0
  8 14  1  0
  8  9  1  0
  8 23  1  1
  9 10  1  0
 10 11  1  0
 10 12  1  0
 10 13  1  0
 11 24  1  0
 11 25  1  0
 11 26  1  0
 12 27  1  0
 12 28  1  0
 12 29  1  0
 13 14  1  0
 14 30  1  6
 15 16  2  0
M  END
>  <i_m_ct_stereo_status>  (88) 
1

>  <s_m_source_file>  (88) 
/var/tmp/pbs.5076255.sched01/tmprv8ptrg5/026yimkau.sdf

>  <i_m_source_file_index>  (88) 
41

>  <i_lp_mmshare_version>  (88) 
48012

>  <i_f3d_flags>  (88) 
0

>  <s_epik_input>  (88) 
W0NIM11bQ0BIXShPMSlDKD1PKUMoW0NASF0xMik9W0NIXU9bQ0BASF0zW0NAQEhdMk9DKE8zKShbQ0gzXSlbQ0gzXQ==

>  <s_epik_cmdline>  (88) 
J2VwaWtfcHl0aG9uJywgJy1waHQnLCAnMi4wJywgJy1waCcsICc3LjAnLCAnLXRuJywgJzgnLCAnLW1hJywgJzIwMCcsICctaW1hZScsICc8aW5maWxlLm1hZT4nLCAnLW9tYWUnLCAnPG91dGZpbGUubWFlPic=

>  <r_lp_tautomer_probability>  (88) 
1

>  <r_epik_Ionization_Penalty>  (88) 
0

>  <r_epik_Ionization_Penalty_Charging>  (88) 
0

>  <r_epik_Ionization_Penalty_Neutral>  (88) 
0

>  <r_epik_State_Penalty>  (88) 
-0

>  <r_epik_Charging_Adjusted_Penalty>  (88) 
0

>  <i_epik_Tot_Q>  (88) 
0

>  <i_epik_Tot_abs_Q>  (88) 
0

>  <s_epik_Chemistry_Notes>  (88) 
This compound contains an acetal/aminal-like group ( X-CH(R)-Y where X, Y are N, S, or O) that may be acid/base labile, releasing an aldehyde.

>  <s_lp_Force_Field>  (88) 
OPLS3e

>  <r_lp_Energy>  (88) 
13.0067

>  <b_lp_Chiralities_Consistent>  (88) 
1

>  <s_lp_Variant>  (88) 
29:0-1

>  <s_i_glide_gridfile>  (88) 
pfpi4k_grid

>  <i_i_glide_lignum>  (88) 
41

>  <i_i_glide_rotatable_bonds>  (88) 
0

>  <r_i_docking_score>  (88) 
-3.70911

>  <r_i_glide_ligand_efficiency>  (88) 
-0.231819

>  <r_i_glide_ligand_efficiency_sa>  (88) 
-0.584148

>  <r_i_glide_ligand_efficiency_ln>  (88) 
-0.983173

>  <r_i_glide_gscore>  (88) 
-3.70911

>  <r_i_glide_lipo>  (88) 
-0.559512

>  <r_i_glide_hbond>  (88) 
0

>  <r_i_glide_metal>  (88) 
-0

>  <r_i_glide_rewards>  (88) 
-2.05528

>  <r_i_glide_evdw>  (88) 
-22.0362

>  <r_i_glide_ecoul>  (88) 
0.0499899

>  <r_i_glide_erotb>  (88) 
0

>  <r_i_glide_esite>  (88) 
0

>  <r_i_glide_emodel>  (88) 
-27.1642

>  <r_i_glide_energy>  (88) 
-21.9862

>  <r_i_glide_einternal>  (88) 
0

>  <r_i_glide_intrahb_reward>  (88) 
-0

>  <i_i_glide_confnum>  (88) 
2

>  <i_i_glide_posenum>  (88) 
3

>  <r_i_glide_eff_state_penalty>  (88) 
0

>  <ligand_id>  (88) 
29

>  <original_smiles>  (88) 
CC1OC2C(=COC3OC(C)(C)OC32)C1=O

>  <smiles>  (88) 
[H]C1=C2C(=O)C([H])(C([H])([H])[H])OC2([H])C2([H])OC(C([H])([H])[H])(C([H])([H])[H])OC2([H])O1

$$$$
29:0:1
     RDKit          3D

 30 32  0  0  1  0  0  0  0  0999 V2000
    3.8482   -1.3774   -1.8607 C   0  0  0  0  0  0  0  0  0  0  0  0
    4.4700   -2.7674   -1.6829 C   0  0  2  0  0  0  0  0  0  0  0  0
    3.6047   -3.6483   -0.9493 O   0  0  0  0  0  0  0  0  0  0  0  0
    4.4419   -4.6571   -0.3797 C   0  0  1  0  0  0  0  0  0  0  0  0
    5.7236   -3.9435   -0.0499 C   0  0  0  0  0  0  0  0  0  0  0  0
    6.4749   -4.1992    1.0389 C   0  0  0  0  0  0  0  0  0  0  0  0
    6.1421   -5.2194    1.9061 O   0  0  0  0  0  0  0  0  0  0  0  0
    5.0947   -6.0706    1.5179 C   0  0  1  0  0  0  0  0  0  0  0  0
    4.4468   -6.7243    2.5380 O   0  0  0  0  0  0  0  0  0  0  0  0
    3.1786   -7.0322    2.0308 C   0  0  0  0  0  0  0  0  0  0  0  0
    3.1698   -8.5260    1.6720 C   0  0  0  0  0  0  0  0  0  0  0  0
    2.1252   -6.6759    3.0908 C   0  0  0  0  0  0  0  0  0  0  0  0
    2.9283   -6.2702    0.8779 O   0  0  0  0  0  0  0  0  0  0  0  0
    3.9326   -5.2818    0.9249 C   0  0  2  0  0  0  0  0  0  0  0  0
    5.7576   -2.7568   -0.8748 C   0  0  0  0  0  0  0  0  0  0  0  0
    6.6152   -1.8714   -0.9172 O   0  0  0  0  0  0  0  0  0  0  0  0
    4.4813   -0.7236   -2.4643 H   0  0  0  0  0  0  0  0  0  0  0  0
    3.6843   -0.8888   -0.8987 H   0  0  0  0  0  0  0  0  0  0  0  0
    2.8813   -1.4523   -2.3580 H   0  0  0  0  0  0  0  0  0  0  0  0
    4.6938   -3.2044   -2.6580 H   0  0  0  0  0  0  0  0  0  0  0  0
    4.6471   -5.4214   -1.1309 H   0  0  0  0  0  0  0  0  0  0  0  0
    7.3208   -3.6137    1.3749 H   0  0  0  0  0  0  0  0  0  0  0  0
    5.4757   -6.8150    0.8155 H   0  0  0  0  0  0  0  0  0  0  0  0
    3.9403   -8.7437    0.9325 H   0  0  0  0  0  0  0  0  0  0  0  0
    2.1968   -8.8179    1.2725 H   0  0  0  0  0  0  0  0  0  0  0  0
    3.3778   -9.1179    2.5649 H   0  0  0  0  0  0  0  0  0  0  0  0
    2.1639   -5.6119    3.3194 H   0  0  0  0  0  0  0  0  0  0  0  0
    2.3057   -7.2433    4.0062 H   0  0  0  0  0  0  0  0  0  0  0  0
    1.1313   -6.9205    2.7127 H   0  0  0  0  0  0  0  0  0  0  0  0
    3.6373   -4.5040    1.6315 H   0  0  0  0  0  0  0  0  0  0  0  0
  1  2  1  0
  1 17  1  0
  1 18  1  0
  1 19  1  0
  2 15  1  0
  2  3  1  0
  2 20  1  6
  3  4  1  0
  4 14  1  0
  4  5  1  0
  4 21  1  6
  5  6  2  0
  5 15  1  0
  6  7  1  0
  6 22  1  0
  7  8  1  0
  8 14  1  0
  8  9  1  0
  8 23  1  6
  9 10  1  0
 10 11  1  0
 10 12  1  0
 10 13  1  0
 11 24  1  0
 11 25  1  0
 11 26  1  0
 12 27  1  0
 12 28  1  0
 12 29  1  0
 13 14  1  0
 14 30  1  1
 15 16  2  0
M  END
>  <i_m_ct_stereo_status>  (89) 
1

>  <s_m_source_file>  (89) 
/var/tmp/pbs.5076255.sched01/tmprv8ptrg5/026yimkau.sdf

>  <i_m_source_file_index>  (89) 
41

>  <i_lp_mmshare_version>  (89) 
48012

>  <i_f3d_flags>  (89) 
0

>  <s_epik_input>  (89) 
W0NIM11bQ0BIXShPMSlDKD1PKUMoW0NASF0xMik9W0NIXU9bQ0BASF0zW0NAQEhdMk9DKE8zKShbQ0gzXSlbQ0gzXQ==

>  <s_epik_cmdline>  (89) 
J2VwaWtfcHl0aG9uJywgJy1waHQnLCAnMi4wJywgJy1waCcsICc3LjAnLCAnLXRuJywgJzgnLCAnLW1hJywgJzIwMCcsICctaW1hZScsICc8aW5maWxlLm1hZT4nLCAnLW9tYWUnLCAnPG91dGZpbGUubWFlPic=

>  <r_lp_tautomer_probability>  (89) 
1

>  <r_epik_Ionization_Penalty>  (89) 
0

>  <r_epik_Ionization_Penalty_Charging>  (89) 
0

>  <r_epik_Ionization_Penalty_Neutral>  (89) 
0

>  <r_epik_State_Penalty>  (89) 
-0

>  <r_epik_Charging_Adjusted_Penalty>  (89) 
0

>  <i_epik_Tot_Q>  (89) 
0

>  <i_epik_Tot_abs_Q>  (89) 
0

>  <s_epik_Chemistry_Notes>  (89) 
This compound contains an acetal/aminal-like group ( X-CH(R)-Y where X, Y are N, S, or O) that may be acid/base labile, releasing an aldehyde.

>  <s_lp_Force_Field>  (89) 
OPLS3e

>  <r_lp_Energy>  (89) 
13.0067

>  <b_lp_Chiralities_Consistent>  (89) 
1

>  <s_lp_Variant>  (89) 
29:0-1

>  <s_i_glide_gridfile>  (89) 
pfpi4k_grid

>  <i_i_glide_lignum>  (89) 
41

>  <i_i_glide_rotatable_bonds>  (89) 
0

>  <r_i_docking_score>  (89) 
-3.58742

>  <r_i_glide_ligand_efficiency>  (89) 
-0.224214

>  <r_i_glide_ligand_efficiency_sa>  (89) 
-0.564984

>  <r_i_glide_ligand_efficiency_ln>  (89) 
-0.950919

>  <r_i_glide_gscore>  (89) 
-3.58742

>  <r_i_glide_lipo>  (89) 
-0.179726

>  <r_i_glide_hbond>  (89) 
-0.16

>  <r_i_glide_metal>  (89) 
-0

>  <r_i_glide_rewards>  (89) 
-1.98284

>  <r_i_glide_evdw>  (89) 
-18.3531

>  <r_i_glide_ecoul>  (89) 
-2.29377

>  <r_i_glide_erotb>  (89) 
0

>  <r_i_glide_esite>  (89) 
-0.00313524

>  <r_i_glide_emodel>  (89) 
-25.7033

>  <r_i_glide_energy>  (89) 
-20.6469

>  <r_i_glide_einternal>  (89) 
0

>  <r_i_glide_intrahb_reward>  (89) 
-0

>  <i_i_glide_confnum>  (89) 
1

>  <i_i_glide_posenum>  (89) 
18

>  <r_i_glide_eff_state_penalty>  (89) 
0

>  <ligand_id>  (89) 
29

>  <original_smiles>  (89) 
CC1OC2C(=COC3OC(C)(C)OC32)C1=O

>  <smiles>  (89) 
[H]C1=C2C(=O)C([H])(C([H])([H])[H])OC2([H])C2([H])OC(C([H])([H])[H])(C([H])([H])[H])OC2([H])O1

$$$$
29:0:2
     RDKit          3D

 30 32  0  0  1  0  0  0  0  0999 V2000
   -1.8029   -8.7285    2.7758 C   0  0  0  0  0  0  0  0  0  0  0  0
   -0.4090   -8.3345    3.2491 C   0  0  2  0  0  0  0  0  0  0  0  0
    0.0065   -7.0624    2.6814 O   0  0  0  0  0  0  0  0  0  0  0  0
    1.4369   -7.0732    2.6944 C   0  0  1  0  0  0  0  0  0  0  0  0
    1.8478   -8.5012    2.4760 C   0  0  0  0  0  0  0  0  0  0  0  0
    2.8928   -8.9076    1.7470 C   0  0  0  0  0  0  0  0  0  0  0  0
    3.7665   -7.9656    1.2226 O   0  0  0  0  0  0  0  0  0  0  0  0
    3.5998   -6.6426    1.6039 C   0  0  1  0  0  0  0  0  0  0  0  0
    4.0994   -5.6805    0.7486 O   0  0  0  0  0  0  0  0  0  0  0  0
    3.3511   -4.5361    1.0020 C   0  0  0  0  0  0  0  0  0  0  0  0
    4.2309   -3.5799    1.8323 C   0  0  0  0  0  0  0  0  0  0  0  0
    2.9255   -3.9064   -0.3397 C   0  0  0  0  0  0  0  0  0  0  0  0
    2.1972   -4.8488    1.7358 O   0  0  0  0  0  0  0  0  0  0  0  0
    2.1258   -6.2511    1.6044 C   0  0  2  0  0  0  0  0  0  0  0  0
    0.6921   -9.2981    2.8385 C   0  0  0  0  0  0  0  0  0  0  0  0
    0.5630  -10.5247    2.8158 O   0  0  0  0  0  0  0  0  0  0  0  0
   -2.1325   -9.6500    3.2736 H   0  0  0  0  0  0  0  0  0  0  0  0
   -1.8385   -8.9042    1.6987 H   0  0  0  0  0  0  0  0  0  0  0  0
   -2.5264   -7.9628    3.0262 H   0  0  0  0  0  0  0  0  0  0  0  0
   -0.3888   -8.2634    4.3411 H   0  0  0  0  0  0  0  0  0  0  0  0
    1.7726   -6.7681    3.6997 H   0  0  0  0  0  0  0  0  0  0  0  0
    3.1274   -9.9201    1.4554 H   0  0  0  0  0  0  0  0  0  0  0  0
    4.0406   -6.4832    2.5918 H   0  0  0  0  0  0  0  0  0  0  0  0
    4.5208   -4.0562    2.7630 H   0  0  0  0  0  0  0  0  0  0  0  0
    3.6889   -2.6514    2.0496 H   0  0  0  0  0  0  0  0  0  0  0  0
    5.1322   -3.3410    1.2656 H   0  0  0  0  0  0  0  0  0  0  0  0
    2.2966   -4.6013   -0.8912 H   0  0  0  0  0  0  0  0  0  0  0  0
    3.8018   -3.6705   -0.9364 H   0  0  0  0  0  0  0  0  0  0  0  0
    2.3539   -2.9890   -0.1579 H   0  0  0  0  0  0  0  0  0  0  0  0
    1.6994   -6.4952    0.6190 H   0  0  0  0  0  0  0  0  0  0  0  0
  1  2  1  0
  1 17  1  0
  1 18  1  0
  1 19  1  0
  2 15  1  0
  2  3  1  0
  2 20  1  1
  3  4  1  0
  4 14  1  0
  4  5  1  0
  4 21  1  1
  5  6  2  0
  5 15  1  0
  6  7  1  0
  6 22  1  0
  7  8  1  0
  8 14  1  0
  8  9  1  0
  8 23  1  1
  9 10  1  0
 10 11  1  0
 10 12  1  0
 10 13  1  0
 11 24  1  0
 11 25  1  0
 11 26  1  0
 12 27  1  0
 12 28  1  0
 12 29  1  0
 13 14  1  0
 14 30  1  6
 15 16  2  0
M  END
>  <i_m_ct_stereo_status>  (90) 
1

>  <s_m_source_file>  (90) 
/var/tmp/pbs.5076255.sched01/tmprv8ptrg5/026yimkau.sdf

>  <i_m_source_file_index>  (90) 
41

>  <i_lp_mmshare_version>  (90) 
48012

>  <i_f3d_flags>  (90) 
0

>  <s_epik_input>  (90) 
W0NIM11bQ0BIXShPMSlDKD1PKUMoW0NASF0xMik9W0NIXU9bQ0BASF0zW0NAQEhdMk9DKE8zKShbQ0gzXSlbQ0gzXQ==

>  <s_epik_cmdline>  (90) 
J2VwaWtfcHl0aG9uJywgJy1waHQnLCAnMi4wJywgJy1waCcsICc3LjAnLCAnLXRuJywgJzgnLCAnLW1hJywgJzIwMCcsICctaW1hZScsICc8aW5maWxlLm1hZT4nLCAnLW9tYWUnLCAnPG91dGZpbGUubWFlPic=

>  <r_lp_tautomer_probability>  (90) 
1

>  <r_epik_Ionization_Penalty>  (90) 
0

>  <r_epik_Ionization_Penalty_Charging>  (90) 
0

>  <r_epik_Ionization_Penalty_Neutral>  (90) 
0

>  <r_epik_State_Penalty>  (90) 
-0

>  <r_epik_Charging_Adjusted_Penalty>  (90) 
0

>  <i_epik_Tot_Q>  (90) 
0

>  <i_epik_Tot_abs_Q>  (90) 
0

>  <s_epik_Chemistry_Notes>  (90) 
This compound contains an acetal/aminal-like group ( X-CH(R)-Y where X, Y are N, S, or O) that may be acid/base labile, releasing an aldehyde.

>  <s_lp_Force_Field>  (90) 
OPLS3e

>  <r_lp_Energy>  (90) 
13.0067

>  <b_lp_Chiralities_Consistent>  (90) 
1

>  <s_lp_Variant>  (90) 
29:0-1

>  <s_i_glide_gridfile>  (90) 
pfpi4k_grid

>  <i_i_glide_lignum>  (90) 
41

>  <i_i_glide_rotatable_bonds>  (90) 
0

>  <r_i_docking_score>  (90) 
-3.20404

>  <r_i_glide_ligand_efficiency>  (90) 
-0.200252

>  <r_i_glide_ligand_efficiency_sa>  (90) 
-0.504605

>  <r_i_glide_ligand_efficiency_ln>  (90) 
-0.849295

>  <r_i_glide_gscore>  (90) 
-3.20404

>  <r_i_glide_lipo>  (90) 
-0.0339768

>  <r_i_glide_hbond>  (90) 
-0.0125639

>  <r_i_glide_metal>  (90) 
-0

>  <r_i_glide_rewards>  (90) 
-1.93591

>  <r_i_glide_evdw>  (90) 
-21.3518

>  <r_i_glide_ecoul>  (90) 
-0.936511

>  <r_i_glide_erotb>  (90) 
0

>  <r_i_glide_esite>  (90) 
-0.0135161

>  <r_i_glide_emodel>  (90) 
-26.7616

>  <r_i_glide_energy>  (90) 
-22.2884

>  <r_i_glide_einternal>  (90) 
0

>  <r_i_glide_intrahb_reward>  (90) 
-0

>  <i_i_glide_confnum>  (90) 
2

>  <i_i_glide_posenum>  (90) 
8

>  <r_i_glide_eff_state_penalty>  (90) 
0

>  <ligand_id>  (90) 
29

>  <original_smiles>  (90) 
CC1OC2C(=COC3OC(C)(C)OC32)C1=O

>  <smiles>  (90) 
[H]C1=C2C(=O)C([H])(C([H])([H])[H])OC2([H])C2([H])OC(C([H])([H])[H])(C([H])([H])[H])OC2([H])O1

$$$$
30:0:0
     RDKit          3D

 21 23  0  0  1  0  0  0  0  0999 V2000
   -1.7861    0.3495    6.3532 O   0  0  0  0  0  0  0  0  0  0  0  0
   -1.2922    1.3861    5.8413 C   0  0  0  0  0  0  0  0  0  0  0  0
   -0.5635    1.1673    4.5851 C   0  0  0  0  0  0  0  0  0  0  0  0
   -0.2717    0.0177    3.8182 C   0  0  0  0  0  0  0  0  0  0  0  0
    0.4512    0.0985    2.6703 N   0  0  0  0  0  0  0  0  0  0  0  0
    0.9078    1.2804    2.2236 N   0  0  0  0  0  0  0  0  0  0  0  0
    0.6622    2.4213    2.9095 C   0  0  0  0  0  0  0  0  0  0  0  0
   -0.0754    2.3796    4.1020 C   0  0  0  0  0  0  0  0  0  0  0  0
   -0.4619    3.4391    5.0226 C   0  0  0  0  0  0  0  0  0  0  0  0
   -0.2365    4.6441    4.9169 O   0  0  0  0  0  0  0  0  0  0  0  0
   -1.1907    2.7521    6.1147 C   0  0  0  0  0  0  0  0  0  0  0  0
   -1.8126    3.4338    7.2630 C   0  0  0  0  0  0  0  0  0  0  0  0
   -3.0277    3.0048    7.8775 C   0  0  0  0  0  0  0  0  0  0  0  0
   -3.3726    3.8074    8.9322 C   0  0  0  0  0  0  0  0  0  0  0  0
   -2.1958    5.0728    9.1961 S   0  0  0  0  0  0  0  0  0  0  0  0
   -1.2296    4.5210    7.8579 C   0  0  0  0  0  0  0  0  0  0  0  0
   -0.6051   -0.9675    4.1059 H   0  0  0  0  0  0  0  0  0  0  0  0
    1.0646    3.3404    2.5097 H   0  0  0  0  0  0  0  0  0  0  0  0
   -3.6017    2.1632    7.5195 H   0  0  0  0  0  0  0  0  0  0  0  0
   -4.2363    3.7348    9.5760 H   0  0  0  0  0  0  0  0  0  0  0  0
   -0.3076    5.0138    7.5980 H   0  0  0  0  0  0  0  0  0  0  0  0
  1  2  1  0
  2 11  2  0
  2  3  1  0
  3  8  2  0
  3  4  1  0
  4  5  2  0
  4 17  1  0
  5  6  1  0
  6  7  2  0
  7  8  1  0
  7 18  1  0
  8  9  1  0
  9 10  2  0
  9 11  1  0
 11 12  1  0
 12 16  2  0
 12 13  1  0
 13 14  2  0
 13 19  1  0
 14 15  1  0
 14 20  1  0
 15 16  1  0
 16 21  1  0
M  CHG  1   1  -1
M  END
>  <i_m_ct_stereo_status>  (91) 
1

>  <s_m_source_file>  (91) 
/var/tmp/pbs.5076255.sched01/tmprv8ptrg5/026yimkau.sdf

>  <i_m_source_file_index>  (91) 
42

>  <i_lp_mmshare_version>  (91) 
48012

>  <i_f3d_flags>  (91) 
0

>  <s_epik_input>  (91) 
W2NIXTFzW2NIXVtjSF1jMVtDSF0oQzI9TylDKD1PKWMoYzIzKVtjSF1ubltjSF0z

>  <s_epik_cmdline>  (91) 
J2VwaWtfcHl0aG9uJywgJy1waHQnLCAnMi4wJywgJy1waCcsICc3LjAnLCAnLXRuJywgJzgnLCAnLW1hJywgJzIwMCcsICctaW1hZScsICc8aW5maWxlLm1hZT4nLCAnLW9tYWUnLCAnPG91dGZpbGUubWFlPic=

>  <r_lp_tautomer_probability>  (91) 
1

>  <r_epik_Ionization_Penalty>  (91) 
8.73867e-07

>  <r_epik_Ionization_Penalty_Charging>  (91) 
7.49338e-10

>  <r_epik_Ionization_Penalty_Neutral>  (91) 
8.73118e-07

>  <r_epik_State_Penalty>  (91) 
-0

>  <r_epik_Charging_Adjusted_Penalty>  (91) 
7.49338e-10

>  <i_epik_Tot_Q>  (91) 
-1

>  <i_epik_Tot_abs_Q>  (91) 
1

>  <s_lp_Force_Field>  (91) 
OPLS3e

>  <r_lp_Energy>  (91) 
15.489

>  <b_lp_Chiralities_Consistent>  (91) 
1

>  <s_lp_Variant>  (91) 
30:0-1

>  <s_i_glide_gridfile>  (91) 
pfpi4k_grid

>  <i_i_glide_lignum>  (91) 
42

>  <i_i_glide_rotatable_bonds>  (91) 
1

>  <r_i_docking_score>  (91) 
-3.19074

>  <r_i_glide_ligand_efficiency>  (91) 
-0.199421

>  <r_i_glide_ligand_efficiency_sa>  (91) 
-0.502509

>  <r_i_glide_ligand_efficiency_ln>  (91) 
-0.845768

>  <r_i_glide_gscore>  (91) 
-3.19074

>  <r_i_glide_lipo>  (91) 
-0.257957

>  <r_i_glide_hbond>  (91) 
-0.2

>  <r_i_glide_metal>  (91) 
-0

>  <r_i_glide_rewards>  (91) 
-1.84612

>  <r_i_glide_evdw>  (91) 
-18.0909

>  <r_i_glide_ecoul>  (91) 
-1.32534

>  <r_i_glide_erotb>  (91) 
0.324621

>  <r_i_glide_esite>  (91) 
-0.107937

>  <r_i_glide_emodel>  (91) 
-26.0189

>  <r_i_glide_energy>  (91) 
-19.4162

>  <r_i_glide_einternal>  (91) 
0.152315

>  <r_i_glide_intrahb_reward>  (91) 
-0

>  <i_i_glide_confnum>  (91) 
2

>  <i_i_glide_posenum>  (91) 
3

>  <r_i_glide_eff_state_penalty>  (91) 
0

>  <ligand_id>  (91) 
30

>  <original_smiles>  (91) 
O=C1c2cnncc2C(=O)C1c1ccsc1

>  <smiles>  (91) 
[H]c1nnc([H])c2c1C(=O)C(c1c([H])sc([H])c1[H])=C2[O-]

$$$$
30:0:1
     RDKit          3D

 21 23  0  0  1  0  0  0  0  0999 V2000
   -0.5031   -0.4883    6.8619 O   0  0  0  0  0  0  0  0  0  0  0  0
   -0.7795    0.5448    6.1862 C   0  0  0  0  0  0  0  0  0  0  0  0
   -0.3302    0.4943    4.7929 C   0  0  0  0  0  0  0  0  0  0  0  0
    0.3667   -0.4684    4.0340 C   0  0  0  0  0  0  0  0  0  0  0  0
    0.6475   -0.2561    2.7226 N   0  0  0  0  0  0  0  0  0  0  0  0
    0.2683    0.8825    2.1135 N   0  0  0  0  0  0  0  0  0  0  0  0
   -0.4003    1.8453    2.7927 C   0  0  0  0  0  0  0  0  0  0  0  0
   -0.7071    1.6665    4.1471 C   0  0  0  0  0  0  0  0  0  0  0  0
   -1.4080    2.5289    5.0919 C   0  0  0  0  0  0  0  0  0  0  0  0
   -1.8737    3.6486    4.8784 O   0  0  0  0  0  0  0  0  0  0  0  0
   -1.4465    1.7502    6.3565 C   0  0  0  0  0  0  0  0  0  0  0  0
   -2.0143    2.2383    7.6265 C   0  0  0  0  0  0  0  0  0  0  0  0
   -1.4529    1.9903    8.9191 C   0  0  0  0  0  0  0  0  0  0  0  0
   -2.2155    2.5443    9.9164 C   0  0  0  0  0  0  0  0  0  0  0  0
   -3.6340    3.3447    9.2789 S   0  0  0  0  0  0  0  0  0  0  0  0
   -3.1808    2.9436    7.6452 C   0  0  0  0  0  0  0  0  0  0  0  0
    0.6977   -1.4142    4.4405 H   0  0  0  0  0  0  0  0  0  0  0  0
   -0.6859    2.7364    2.2561 H   0  0  0  0  0  0  0  0  0  0  0  0
   -0.5431    1.4224    9.0661 H   0  0  0  0  0  0  0  0  0  0  0  0
   -2.0657    2.5090   10.9893 H   0  0  0  0  0  0  0  0  0  0  0  0
   -3.7822    3.2445    6.7995 H   0  0  0  0  0  0  0  0  0  0  0  0
  1  2  1  0
  2 11  2  0
  2  3  1  0
  3  8  2  0
  3  4  1  0
  4  5  2  0
  4 17  1  0
  5  6  1  0
  6  7  2  0
  7  8  1  0
  7 18  1  0
  8  9  1  0
  9 10  2  0
  9 11  1  0
 11 12  1  0
 12 16  2  0
 12 13  1  0
 13 14  2  0
 13 19  1  0
 14 15  1  0
 14 20  1  0
 15 16  1  0
 16 21  1  0
M  CHG  1   1  -1
M  END
>  <i_m_ct_stereo_status>  (92) 
1

>  <s_m_source_file>  (92) 
/var/tmp/pbs.5076255.sched01/tmprv8ptrg5/026yimkau.sdf

>  <i_m_source_file_index>  (92) 
42

>  <i_lp_mmshare_version>  (92) 
48012

>  <i_f3d_flags>  (92) 
0

>  <s_epik_input>  (92) 
W2NIXTFzW2NIXVtjSF1jMVtDSF0oQzI9TylDKD1PKWMoYzIzKVtjSF1ubltjSF0z

>  <s_epik_cmdline>  (92) 
J2VwaWtfcHl0aG9uJywgJy1waHQnLCAnMi4wJywgJy1waCcsICc3LjAnLCAnLXRuJywgJzgnLCAnLW1hJywgJzIwMCcsICctaW1hZScsICc8aW5maWxlLm1hZT4nLCAnLW9tYWUnLCAnPG91dGZpbGUubWFlPic=

>  <r_lp_tautomer_probability>  (92) 
1

>  <r_epik_Ionization_Penalty>  (92) 
8.73867e-07

>  <r_epik_Ionization_Penalty_Charging>  (92) 
7.49338e-10

>  <r_epik_Ionization_Penalty_Neutral>  (92) 
8.73118e-07

>  <r_epik_State_Penalty>  (92) 
-0

>  <r_epik_Charging_Adjusted_Penalty>  (92) 
7.49338e-10

>  <i_epik_Tot_Q>  (92) 
-1

>  <i_epik_Tot_abs_Q>  (92) 
1

>  <s_lp_Force_Field>  (92) 
OPLS3e

>  <r_lp_Energy>  (92) 
15.489

>  <b_lp_Chiralities_Consistent>  (92) 
1

>  <s_lp_Variant>  (92) 
30:0-1

>  <s_i_glide_gridfile>  (92) 
pfpi4k_grid

>  <i_i_glide_lignum>  (92) 
42

>  <i_i_glide_rotatable_bonds>  (92) 
1

>  <r_i_docking_score>  (92) 
-3.15905

>  <r_i_glide_ligand_efficiency>  (92) 
-0.197441

>  <r_i_glide_ligand_efficiency_sa>  (92) 
-0.49752

>  <r_i_glide_ligand_efficiency_ln>  (92) 
-0.83737

>  <r_i_glide_gscore>  (92) 
-3.15905

>  <r_i_glide_lipo>  (92) 
-0.20355

>  <r_i_glide_hbond>  (92) 
-0.0320732

>  <r_i_glide_metal>  (92) 
-0

>  <r_i_glide_rewards>  (92) 
-1.84612

>  <r_i_glide_evdw>  (92) 
-20.335

>  <r_i_glide_ecoul>  (92) 
-1.8557

>  <r_i_glide_erotb>  (92) 
0.324621

>  <r_i_glide_esite>  (92) 
-0.106829

>  <r_i_glide_emodel>  (92) 
-28.6266

>  <r_i_glide_energy>  (92) 
-22.1907

>  <r_i_glide_einternal>  (92) 
0.30414

>  <r_i_glide_intrahb_reward>  (92) 
-0

>  <i_i_glide_confnum>  (92) 
2

>  <i_i_glide_posenum>  (92) 
8

>  <r_i_glide_eff_state_penalty>  (92) 
0

>  <ligand_id>  (92) 
30

>  <original_smiles>  (92) 
O=C1c2cnncc2C(=O)C1c1ccsc1

>  <smiles>  (92) 
[H]c1nnc([H])c2c1C(=O)C(c1c([H])sc([H])c1[H])=C2[O-]

$$$$
30:0:2
     RDKit          3D

 21 23  0  0  1  0  0  0  0  0999 V2000
   -0.4779   -0.3543    6.9596 O   0  0  0  0  0  0  0  0  0  0  0  0
   -0.8183    0.6220    6.2351 C   0  0  0  0  0  0  0  0  0  0  0  0
   -0.3866    0.5142    4.8434 C   0  0  0  0  0  0  0  0  0  0  0  0
    0.3522   -0.4519    4.1289 C   0  0  0  0  0  0  0  0  0  0  0  0
    0.6177   -0.2920    2.8061 N   0  0  0  0  0  0  0  0  0  0  0  0
    0.1761    0.7886    2.1401 N   0  0  0  0  0  0  0  0  0  0  0  0
   -0.5386    1.7513    2.7719 C   0  0  0  0  0  0  0  0  0  0  0  0
   -0.8281    1.6326    4.1402 C   0  0  0  0  0  0  0  0  0  0  0  0
   -1.5590    2.5097    5.0527 C   0  0  0  0  0  0  0  0  0  0  0  0
   -2.0823    3.5949    4.7945 O   0  0  0  0  0  0  0  0  0  0  0  0
   -1.5373    1.7990    6.3561 C   0  0  0  0  0  0  0  0  0  0  0  0
   -2.0856    2.3315    7.6121 C   0  0  0  0  0  0  0  0  0  0  0  0
   -3.3861    2.8957    7.6673 C   0  0  0  0  0  0  0  0  0  0  0  0
   -3.7282    3.2982    8.9329 C   0  0  0  0  0  0  0  0  0  0  0  0
   -2.4407    2.9700   10.0692 S   0  0  0  0  0  0  0  0  0  0  0  0
   -1.4346    2.2864    8.8160 C   0  0  0  0  0  0  0  0  0  0  0  0
    0.7320   -1.3571    4.5832 H   0  0  0  0  0  0  0  0  0  0  0  0
   -0.8691    2.5963    2.1852 H   0  0  0  0  0  0  0  0  0  0  0  0
   -4.0282    2.9359    6.8016 H   0  0  0  0  0  0  0  0  0  0  0  0
   -4.6621    3.7280    9.2755 H   0  0  0  0  0  0  0  0  0  0  0  0
   -0.4452    1.9089    9.0402 H   0  0  0  0  0  0  0  0  0  0  0  0
  1  2  1  0
  2 11  2  0
  2  3  1  0
  3  8  2  0
  3  4  1  0
  4  5  2  0
  4 17  1  0
  5  6  1  0
  6  7  2  0
  7  8  1  0
  7 18  1  0
  8  9  1  0
  9 10  2  0
  9 11  1  0
 11 12  1  0
 12 16  2  0
 12 13  1  0
 13 14  2  0
 13 19  1  0
 14 15  1  0
 14 20  1  0
 15 16  1  0
 16 21  1  0
M  CHG  1   1  -1
M  END
>  <i_m_ct_stereo_status>  (93) 
1

>  <s_m_source_file>  (93) 
/var/tmp/pbs.5076255.sched01/tmprv8ptrg5/026yimkau.sdf

>  <i_m_source_file_index>  (93) 
42

>  <i_lp_mmshare_version>  (93) 
48012

>  <i_f3d_flags>  (93) 
0

>  <s_epik_input>  (93) 
W2NIXTFzW2NIXVtjSF1jMVtDSF0oQzI9TylDKD1PKWMoYzIzKVtjSF1ubltjSF0z

>  <s_epik_cmdline>  (93) 
J2VwaWtfcHl0aG9uJywgJy1waHQnLCAnMi4wJywgJy1waCcsICc3LjAnLCAnLXRuJywgJzgnLCAnLW1hJywgJzIwMCcsICctaW1hZScsICc8aW5maWxlLm1hZT4nLCAnLW9tYWUnLCAnPG91dGZpbGUubWFlPic=

>  <r_lp_tautomer_probability>  (93) 
1

>  <r_epik_Ionization_Penalty>  (93) 
8.73867e-07

>  <r_epik_Ionization_Penalty_Charging>  (93) 
7.49338e-10

>  <r_epik_Ionization_Penalty_Neutral>  (93) 
8.73118e-07

>  <r_epik_State_Penalty>  (93) 
-0

>  <r_epik_Charging_Adjusted_Penalty>  (93) 
7.49338e-10

>  <i_epik_Tot_Q>  (93) 
-1

>  <i_epik_Tot_abs_Q>  (93) 
1

>  <s_lp_Force_Field>  (93) 
OPLS3e

>  <r_lp_Energy>  (93) 
15.489

>  <b_lp_Chiralities_Consistent>  (93) 
1

>  <s_lp_Variant>  (93) 
30:0-1

>  <s_i_glide_gridfile>  (93) 
pfpi4k_grid

>  <i_i_glide_lignum>  (93) 
42

>  <i_i_glide_rotatable_bonds>  (93) 
1

>  <r_i_docking_score>  (93) 
-3.02084

>  <r_i_glide_ligand_efficiency>  (93) 
-0.188802

>  <r_i_glide_ligand_efficiency_sa>  (93) 
-0.475752

>  <r_i_glide_ligand_efficiency_ln>  (93) 
-0.800733

>  <r_i_glide_gscore>  (93) 
-3.02084

>  <r_i_glide_lipo>  (93) 
-0.14165

>  <r_i_glide_hbond>  (93) 
-0.0344915

>  <r_i_glide_metal>  (93) 
-0

>  <r_i_glide_rewards>  (93) 
-1.84612

>  <r_i_glide_evdw>  (93) 
-20.6371

>  <r_i_glide_ecoul>  (93) 
-1.24696

>  <r_i_glide_erotb>  (93) 
0.324621

>  <r_i_glide_esite>  (93) 
-0.104296

>  <r_i_glide_emodel>  (93) 
-27.8105

>  <r_i_glide_energy>  (93) 
-21.8841

>  <r_i_glide_einternal>  (93) 
0.726903

>  <r_i_glide_intrahb_reward>  (93) 
-0

>  <i_i_glide_confnum>  (93) 
4

>  <i_i_glide_posenum>  (93) 
11

>  <r_i_glide_eff_state_penalty>  (93) 
0

>  <ligand_id>  (93) 
30

>  <original_smiles>  (93) 
O=C1c2cnncc2C(=O)C1c1ccsc1

>  <smiles>  (93) 
[H]c1nnc([H])c2c1C(=O)C(c1c([H])sc([H])c1[H])=C2[O-]

$$$$
31:0:0
     RDKit          3D

 62 66  0  0  1  0  0  0  0  0999 V2000
    0.3544   -8.7506    8.2737 C   0  0  0  0  0  0  0  0  0  0  0  0
    0.2811   -8.2341    6.9586 O   0  0  0  0  0  0  0  0  0  0  0  0
    1.5196   -8.3329    6.2712 C   0  0  0  0  0  0  0  0  0  0  0  0
    1.3255   -7.9829    4.7798 C   0  0  2  0  0  0  0  0  0  0  0  0
    0.3186   -8.9587    4.1186 C   0  0  0  0  0  0  0  0  0  0  0  0
    0.1479   -8.6210    2.6265 C   0  0  2  0  0  0  0  0  0  0  0  0
    1.5134   -8.7700    1.9282 C   0  0  0  0  0  0  0  0  0  0  0  0
    2.5197   -7.7759    2.5356 C   0  0  2  0  0  0  0  0  0  0  0  0
    2.6874   -8.1062    4.0402 C   0  0  0  0  0  0  0  0  0  0  0  0
    2.0039   -6.3212    2.4076 C   0  0  1  0  0  0  0  0  0  0  0  0
    1.8418   -5.9256    1.0103 N   0  0  0  0  0  0  0  0  0  0  0  0
    2.6019   -4.7484    0.6605 C   0  0  2  0  0  0  0  0  0  0  0  0
    2.1053   -4.4689   -0.6223 O   0  0  0  0  0  0  0  0  0  0  0  0
    4.1296   -4.9930    0.5833 C   0  0  0  0  0  0  0  0  0  0  0  0
    4.5637   -6.1319    0.3810 O   0  0  0  0  0  0  0  0  0  0  0  0
    5.1217   -3.8117    0.7832 C   0  0  1  0  0  0  0  0  0  0  0  0
    6.5599   -4.3745    0.9241 C   0  0  0  0  0  0  0  0  0  0  0  0
    5.0527   -2.8120   -0.4304 C   0  0  1  0  0  0  0  0  0  0  0  0
    5.0597   -3.4775   -1.8295 C   0  0  0  0  0  0  0  0  0  0  0  0
    3.9170   -1.7992   -0.3315 C   0  0  0  0  0  0  0  0  0  0  0  0
    3.4262   -1.3721    0.8585 C   0  0  0  0  0  0  0  0  0  0  0  0
    3.9421   -1.8661    2.1376 C   0  0  2  0  0  0  0  0  0  0  0  0
    5.4147   -1.7779    2.4885 C   0  0  0  0  0  0  0  0  0  0  0  0
    4.7985   -3.1056    2.1141 C   0  0  2  0  0  0  0  0  0  0  0  0
    0.6401   -6.1949    3.1048 C   0  0  1  0  0  0  0  0  0  0  0  0
   -0.3799   -7.1783    2.4753 C   0  0  0  0  0  0  0  0  0  0  0  0
    0.8119   -6.5307    4.6061 C   0  0  0  0  0  0  0  0  0  0  0  0
   -0.6169   -8.6568    8.7573 H   0  0  0  0  0  0  0  0  0  0  0  0
    1.0857   -8.2047    8.8717 H   0  0  0  0  0  0  0  0  0  0  0  0
    0.6232   -9.8074    8.2681 H   0  0  0  0  0  0  0  0  0  0  0  0
    2.2451   -7.6671    6.7408 H   0  0  0  0  0  0  0  0  0  0  0  0
    1.9150   -9.3448    6.3627 H   0  0  0  0  0  0  0  0  0  0  0  0
    0.6645   -9.9867    4.2224 H   0  0  0  0  0  0  0  0  0  0  0  0
   -0.6501   -8.9125    4.6183 H   0  0  0  0  0  0  0  0  0  0  0  0
   -0.5631   -9.3097    2.1742 H   0  0  0  0  0  0  0  0  0  0  0  0
    1.8842   -9.7956    2.0178 H   0  0  0  0  0  0  0  0  0  0  0  0
    1.4191   -8.5820    0.8651 H   0  0  0  0  0  0  0  0  0  0  0  0
    3.4852   -7.8888    2.0425 H   0  0  0  0  0  0  0  0  0  0  0  0
    3.4298   -7.4369    4.4818 H   0  0  0  0  0  0  0  0  0  0  0  0
    3.0814   -9.1188    4.1409 H   0  0  0  0  0  0  0  0  0  0  0  0
    2.7100   -5.6607    2.9090 H   0  0  0  0  0  0  0  0  0  0  0  0
    2.1384   -6.6869    0.4298 H   0  0  0  0  0  0  0  0  0  0  0  0
    2.3573   -3.9329    1.3351 H   0  0  0  0  0  0  0  0  0  0  0  0
    2.6146   -4.9292   -1.2776 H   0  0  0  0  0  0  0  0  0  0  0  0
    7.2834   -3.5858    1.1111 H   0  0  0  0  0  0  0  0  0  0  0  0
    6.8704   -4.9025    0.0302 H   0  0  0  0  0  0  0  0  0  0  0  0
    6.6344   -5.0781    1.7525 H   0  0  0  0  0  0  0  0  0  0  0  0
    5.9598   -2.2141   -0.3888 H   0  0  0  0  0  0  0  0  0  0  0  0
    5.2201   -2.7299   -2.6026 H   0  0  0  0  0  0  0  0  0  0  0  0
    4.1272   -3.9857   -2.0764 H   0  0  0  0  0  0  0  0  0  0  0  0
    5.8493   -4.2217   -1.9212 H   0  0  0  0  0  0  0  0  0  0  0  0
    3.5066   -1.4106   -1.2417 H   0  0  0  0  0  0  0  0  0  0  0  0
    2.6253   -0.6480    0.8943 H   0  0  0  0  0  0  0  0  0  0  0  0
    3.2353   -1.7471    2.9530 H   0  0  0  0  0  0  0  0  0  0  0  0
    6.0826   -1.2883    1.7795 H   0  0  0  0  0  0  0  0  0  0  0  0
    5.6609   -1.6278    3.5351 H   0  0  0  0  0  0  0  0  0  0  0  0
    4.6529   -3.7908    2.9494 H   0  0  0  0  0  0  0  0  0  0  0  0
    0.2891   -5.1631    3.0190 H   0  0  0  0  0  0  0  0  0  0  0  0
   -0.5309   -6.9628    1.4165 H   0  0  0  0  0  0  0  0  0  0  0  0
   -1.3555   -7.0787    2.9509 H   0  0  0  0  0  0  0  0  0  0  0  0
   -0.1459   -6.4015    5.1113 H   0  0  0  0  0  0  0  0  0  0  0  0
    1.5106   -5.8256    5.0642 H   0  0  0  0  0  0  0  0  0  0  0  0
  1  2  1  0
  1 28  1  0
  1 29  1  0
  1 30  1  0
  2  3  1  0
  4  3  1  1
  3 31  1  0
  3 32  1  0
  4  9  1  0
  4 27  1  0
  4  5  1  0
  5  6  1  0
  5 33  1  0
  5 34  1  0
  6 26  1  0
  6  7  1  0
  6 35  1  6
  7  8  1  0
  7 36  1  0
  7 37  1  0
  8  9  1  0
  8 10  1  0
  8 38  1  6
  9 39  1  0
  9 40  1  0
 10 11  1  0
 10 25  1  0
 10 41  1  1
 11 12  1  0
 11 42  1  0
 12 13  1  0
 12 14  1  0
 12 43  1  1
 13 44  1  0
 14 15  2  0
 14 16  1  0
 16 24  1  0
 16 17  1  1
 16 18  1  0
 17 45  1  0
 17 46  1  0
 17 47  1  0
 18 19  1  0
 18 20  1  0
 18 48  1  6
 19 49  1  0
 19 50  1  0
 19 51  1  0
 20 21  2  0
 20 52  1  0
 21 22  1  0
 21 53  1  0
 22 24  1  0
 22 23  1  0
 22 54  1  1
 23 24  1  0
 23 55  1  0
 23 56  1  0
 24 57  1  1
 25 26  1  0
 25 27  1  0
 25 58  1  1
 26 59  1  0
 26 60  1  0
 27 61  1  0
 27 62  1  0
M  END
>  <i_m_ct_stereo_status>  (94) 
1

>  <s_m_source_file>  (94) 
/var/tmp/pbs.5076255.sched01/tmprv8ptrg5/026yimkau.sdf

>  <i_m_source_file_index>  (94) 
43

>  <i_lp_mmshare_version>  (94) 
48012

>  <i_f3d_flags>  (94) 
0

>  <s_epik_input>  (94) 
W0NIM11PW0NIMl1bQ0BdMTJbQ0gyXVtDQEBIXTNbQ0gyXVtDQEhdKFtDSDJdMSlbQ0BIXShbQ0BASF0oW0NIMl0zKVtDSDJdMilbTkhdW0NASF0oW09IXSlDKD1PKVtDQF0oW0NIM10pKFtDQEhdKFtDQEhdNDUpW0NIMl01KVtDQEBIXShbQ0gzXSlbQ0hdPVtDSF00

>  <s_epik_cmdline>  (94) 
J2VwaWtfcHl0aG9uJywgJy1waHQnLCAnMi4wJywgJy1waCcsICc3LjAnLCAnLXRuJywgJzgnLCAnLW1hJywgJzIwMCcsICctaW1hZScsICc8aW5maWxlLm1hZT4nLCAnLW9tYWUnLCAnPG91dGZpbGUubWFlPic=

>  <r_epik_Ionization_Penalty>  (94) 
0.379997

>  <r_epik_Ionization_Penalty_Charging>  (94) 
0

>  <r_epik_Ionization_Penalty_Neutral>  (94) 
0.379997

>  <r_epik_State_Penalty>  (94) 
0.00690431

>  <r_epik_Charging_Adjusted_Penalty>  (94) 
0.00690431

>  <i_epik_Tot_Q>  (94) 
0

>  <i_epik_Tot_abs_Q>  (94) 
0

>  <s_epik_Chemistry_Notes>  (94) 
This compound contains an acetal/aminal-like group ( X-CH(R)-Y where X, Y are N, S, or O) that may be acid/base labile, releasing an aldehyde.

>  <s_lp_Force_Field>  (94) 
OPLS3e

>  <r_lp_Energy>  (94) 
23.274

>  <b_lp_Chiralities_Consistent>  (94) 
1

>  <s_lp_Variant>  (94) 
31:0-1

>  <s_i_glide_gridfile>  (94) 
pfpi4k_grid

>  <i_i_glide_lignum>  (94) 
43

>  <i_i_glide_rotatable_bonds>  (94) 
7

>  <r_i_docking_score>  (94) 
-2.70512

>  <r_i_glide_ligand_efficiency>  (94) 
-0.100189

>  <r_i_glide_ligand_efficiency_sa>  (94) 
-0.300568

>  <r_i_glide_ligand_efficiency_ln>  (94) 
-0.629706

>  <r_i_glide_gscore>  (94) 
-2.70512

>  <r_i_glide_lipo>  (94) 
-0.348931

>  <r_i_glide_hbond>  (94) 
-0.0395552

>  <r_i_glide_metal>  (94) 
-0

>  <r_i_glide_rewards>  (94) 
-0.912198

>  <r_i_glide_evdw>  (94) 
-22.9136

>  <r_i_glide_ecoul>  (94) 
-6.11073

>  <r_i_glide_erotb>  (94) 
0.692573

>  <r_i_glide_esite>  (94) 
-0.0347138

>  <r_i_glide_emodel>  (94) 
-29.6692

>  <r_i_glide_energy>  (94) 
-29.0243

>  <r_i_glide_einternal>  (94) 
5.42625

>  <r_i_glide_intrahb_reward>  (94) 
-0

>  <i_i_glide_confnum>  (94) 
3

>  <i_i_glide_posenum>  (94) 
1

>  <r_i_glide_eff_state_penalty>  (94) 
0

>  <ligand_id>  (94) 
31

>  <original_smiles>  (94) 
COCC12CC3CC(C1)C(NC(O)C(=O)C1(C)C(C)C=CC4CC41)C(C3)C2

>  <smiles>  (94) 
[H]OC([H])(C(=O)C1(C([H])([H])[H])C([H])(C([H])([H])[H])C([H])=C([H])C2([H])C([H])([H])C21[H])N([H])C1([H])C2([H])C([H])([H])C3([H])C([H])([H])C1([H])C([H])([H])C(C([H])([H])OC([H])([H])[H])(C3([H])[H])C2([H])[H]

$$$$
31:0:1
     RDKit          3D

 62 66  0  0  1  0  0  0  0  0999 V2000
    0.6237   -8.4839    9.4499 C   0  0  0  0  0  0  0  0  0  0  0  0
    0.3329   -8.1905    8.0959 O   0  0  0  0  0  0  0  0  0  0  0  0
    1.4315   -8.4612    7.2367 C   0  0  0  0  0  0  0  0  0  0  0  0
    1.0190   -8.2667    5.7558 C   0  0  2  0  0  0  0  0  0  0  0  0
   -0.1447   -9.2176    5.3910 C   0  0  0  0  0  0  0  0  0  0  0  0
   -0.5588   -9.0353    3.9153 C   0  0  2  0  0  0  0  0  0  0  0  0
    0.6392   -9.4082    3.0203 C   0  0  0  0  0  0  0  0  0  0  0  0
    1.7979   -8.4506    3.3284 C   0  0  2  0  0  0  0  0  0  0  0  0
    2.2114   -8.5974    4.8180 C   0  0  0  0  0  0  0  0  0  0  0  0
    1.3496   -6.9920    3.1119 C   0  0  1  0  0  0  0  0  0  0  0  0
    1.0450   -6.7063    1.6919 N   0  0  0  0  0  0  0  0  0  0  0  0
    1.8571   -5.6386    1.1279 C   0  0  2  0  0  0  0  0  0  0  0  0
    1.4183   -5.6830   -0.2137 O   0  0  0  0  0  0  0  0  0  0  0  0
    3.3773   -5.8779    1.1833 C   0  0  0  0  0  0  0  0  0  0  0  0
    3.8650   -6.9531    0.8101 O   0  0  0  0  0  0  0  0  0  0  0  0
    4.3031   -4.7507    1.7192 C   0  0  1  0  0  0  0  0  0  0  0  0
    5.6690   -5.3763    2.0667 C   0  0  0  0  0  0  0  0  0  0  0  0
    4.4764   -3.6269    0.6276 C   0  0  1  0  0  0  0  0  0  0  0  0
    4.7452   -4.1441   -0.7959 C   0  0  0  0  0  0  0  0  0  0  0  0
    3.3382   -2.6003    0.5979 C   0  0  0  0  0  0  0  0  0  0  0  0
    2.6261   -2.2777    1.6811 C   0  0  0  0  0  0  0  0  0  0  0  0
    2.8773   -2.9200    2.9840 C   0  0  2  0  0  0  0  0  0  0  0  0
    4.2371   -2.8637    3.6377 C   0  0  0  0  0  0  0  0  0  0  0  0
    3.7574   -4.1511    3.0236 C   0  0  2  0  0  0  0  0  0  0  0  0
    0.1519   -6.6333    3.9973 C   0  0  1  0  0  0  0  0  0  0  0  0
   -1.0194   -7.5810    3.6794 C   0  0  0  0  0  0  0  0  0  0  0  0
    0.5769   -6.8035    5.4783 C   0  0  0  0  0  0  0  0  0  0  0  0
   -0.2471   -8.2701   10.0690 H   0  0  0  0  0  0  0  0  0  0  0  0
    1.4563   -7.8788    9.8136 H   0  0  0  0  0  0  0  0  0  0  0  0
    0.8744   -9.5387    9.5765 H   0  0  0  0  0  0  0  0  0  0  0  0
    2.2642   -7.8079    7.5082 H   0  0  0  0  0  0  0  0  0  0  0  0
    1.7766   -9.4846    7.3997 H   0  0  0  0  0  0  0  0  0  0  0  0
    0.1558  -10.2526    5.5607 H   0  0  0  0  0  0  0  0  0  0  0  0
   -1.0062   -9.0514    6.0359 H   0  0  0  0  0  0  0  0  0  0  0  0
   -1.3833   -9.6911    3.6722 H   0  0  0  0  0  0  0  0  0  0  0  0
    0.9576  -10.4394    3.1932 H   0  0  0  0  0  0  0  0  0  0  0  0
    0.3641   -9.3417    1.9721 H   0  0  0  0  0  0  0  0  0  0  0  0
    2.6615   -8.6796    2.7019 H   0  0  0  0  0  0  0  0  0  0  0  0
    3.0605   -7.9514    5.0428 H   0  0  0  0  0  0  0  0  0  0  0  0
    2.5529   -9.6142    4.9954 H   0  0  0  0  0  0  0  0  0  0  0  0
    2.1629   -6.3902    3.4709 H   0  0  0  0  0  0  0  0  0  0  0  0
    1.1891   -7.5262    1.1329 H   0  0  0  0  0  0  0  0  0  0  0  0
    1.6009   -4.6941    1.5811 H   0  0  0  0  0  0  0  0  0  0  0  0
    2.1670   -5.5720   -0.7914 H   0  0  0  0  0  0  0  0  0  0  0  0
    6.3450   -4.6392    2.4990 H   0  0  0  0  0  0  0  0  0  0  0  0
    6.1535   -5.8130    1.1955 H   0  0  0  0  0  0  0  0  0  0  0  0
    5.5442   -6.1777    2.7990 H   0  0  0  0  0  0  0  0  0  0  0  0
    5.3602   -3.0553    0.9114 H   0  0  0  0  0  0  0  0  0  0  0  0
    5.0549   -3.3283   -1.4473 H   0  0  0  0  0  0  0  0  0  0  0  0
    3.8505   -4.5772   -1.2382 H   0  0  0  0  0  0  0  0  0  0  0  0
    5.5260   -4.9045   -0.8185 H   0  0  0  0  0  0  0  0  0  0  0  0
    3.1402   -2.1067   -0.3427 H   0  0  0  0  0  0  0  0  0  0  0  0
    1.8363   -1.5326    1.6554 H   0  0  0  0  0  0  0  0  0  0  0  0
    1.9986   -2.9040    3.6229 H   0  0  0  0  0  0  0  0  0  0  0  0
    5.0660   -2.3477    3.1427 H   0  0  0  0  0  0  0  0  0  0  0  0
    4.2648   -2.8806    4.7206 H   0  0  0  0  0  0  0  0  0  0  0  0
    3.5958   -4.8780    3.8202 H   0  0  0  0  0  0  0  0  0  0  0  0
   -0.1271   -5.5862    3.8357 H   0  0  0  0  0  0  0  0  0  0  0  0
   -1.3306   -7.4647    2.6433 H   0  0  0  0  0  0  0  0  0  0  0  0
   -1.8831   -7.3332    4.3008 H   0  0  0  0  0  0  0  0  0  0  0  0
   -0.2568   -6.5335    6.1216 H   0  0  0  0  0  0  0  0  0  0  0  0
    1.3887   -6.1165    5.7220 H   0  0  0  0  0  0  0  0  0  0  0  0
  1  2  1  0
  1 28  1  0
  1 29  1  0
  1 30  1  0
  2  3  1  0
  4  3  1  1
  3 31  1  0
  3 32  1  0
  4  9  1  0
  4 27  1  0
  4  5  1  0
  5  6  1  0
  5 33  1  0
  5 34  1  0
  6 26  1  0
  6  7  1  0
  6 35  1  6
  7  8  1  0
  7 36  1  0
  7 37  1  0
  8  9  1  0
  8 10  1  0
  8 38  1  6
  9 39  1  0
  9 40  1  0
 10 11  1  0
 10 25  1  0
 10 41  1  1
 11 12  1  0
 11 42  1  0
 12 13  1  0
 12 14  1  0
 12 43  1  1
 13 44  1  0
 14 15  2  0
 14 16  1  0
 16 24  1  0
 16 17  1  1
 16 18  1  0
 17 45  1  0
 17 46  1  0
 17 47  1  0
 18 19  1  0
 18 20  1  0
 18 48  1  1
 19 49  1  0
 19 50  1  0
 19 51  1  0
 20 21  2  0
 20 52  1  0
 21 22  1  0
 21 53  1  0
 22 24  1  0
 22 23  1  0
 22 54  1  1
 23 24  1  0
 23 55  1  0
 23 56  1  0
 24 57  1  1
 25 26  1  0
 25 27  1  0
 25 58  1  1
 26 59  1  0
 26 60  1  0
 27 61  1  0
 27 62  1  0
M  END
>  <i_m_ct_stereo_status>  (95) 
1

>  <s_m_source_file>  (95) 
/var/tmp/pbs.5076255.sched01/tmprv8ptrg5/026yimkau.sdf

>  <i_m_source_file_index>  (95) 
43

>  <i_lp_mmshare_version>  (95) 
48012

>  <i_f3d_flags>  (95) 
0

>  <s_epik_input>  (95) 
W0NIM11PW0NIMl1bQ0BdMTJbQ0gyXVtDQEBIXTNbQ0gyXVtDQEhdKFtDSDJdMSlbQ0BIXShbQ0BASF0oW0NIMl0zKVtDSDJdMilbTkhdW0NASF0oW09IXSlDKD1PKVtDQF0oW0NIM10pKFtDQEhdKFtDQEhdNDUpW0NIMl01KVtDQEBIXShbQ0gzXSlbQ0hdPVtDSF00

>  <s_epik_cmdline>  (95) 
J2VwaWtfcHl0aG9uJywgJy1waHQnLCAnMi4wJywgJy1waCcsICc3LjAnLCAnLXRuJywgJzgnLCAnLW1hJywgJzIwMCcsICctaW1hZScsICc8aW5maWxlLm1hZT4nLCAnLW9tYWUnLCAnPG91dGZpbGUubWFlPic=

>  <r_epik_Ionization_Penalty>  (95) 
0.379997

>  <r_epik_Ionization_Penalty_Charging>  (95) 
0

>  <r_epik_Ionization_Penalty_Neutral>  (95) 
0.379997

>  <r_epik_State_Penalty>  (95) 
0.00690431

>  <r_epik_Charging_Adjusted_Penalty>  (95) 
0.00690431

>  <i_epik_Tot_Q>  (95) 
0

>  <i_epik_Tot_abs_Q>  (95) 
0

>  <s_epik_Chemistry_Notes>  (95) 
This compound contains an acetal/aminal-like group ( X-CH(R)-Y where X, Y are N, S, or O) that may be acid/base labile, releasing an aldehyde.

>  <s_lp_Force_Field>  (95) 
OPLS3e

>  <r_lp_Energy>  (95) 
23.274

>  <b_lp_Chiralities_Consistent>  (95) 
1

>  <s_lp_Variant>  (95) 
31:0-1

>  <s_i_glide_gridfile>  (95) 
pfpi4k_grid

>  <i_i_glide_lignum>  (95) 
43

>  <i_i_glide_rotatable_bonds>  (95) 
7

>  <r_i_docking_score>  (95) 
-2.67125

>  <r_i_glide_ligand_efficiency>  (95) 
-0.0989351

>  <r_i_glide_ligand_efficiency_sa>  (95) 
-0.296805

>  <r_i_glide_ligand_efficiency_ln>  (95) 
-0.621823

>  <r_i_glide_gscore>  (95) 
-2.67125

>  <r_i_glide_lipo>  (95) 
-0.0830675

>  <r_i_glide_hbond>  (95) 
0

>  <r_i_glide_metal>  (95) 
-0

>  <r_i_glide_rewards>  (95) 
-0.891802

>  <r_i_glide_evdw>  (95) 
-20.7907

>  <r_i_glide_ecoul>  (95) 
-8.55151

>  <r_i_glide_erotb>  (95) 
0.692573

>  <r_i_glide_esite>  (95) 
-0.0666907

>  <r_i_glide_emodel>  (95) 
-30.9006

>  <r_i_glide_energy>  (95) 
-29.3422

>  <r_i_glide_einternal>  (95) 
5.80714

>  <r_i_glide_intrahb_reward>  (95) 
-0

>  <i_i_glide_confnum>  (95) 
4

>  <i_i_glide_posenum>  (95) 
26

>  <r_i_glide_eff_state_penalty>  (95) 
0

>  <ligand_id>  (95) 
31

>  <original_smiles>  (95) 
COCC12CC3CC(C1)C(NC(O)C(=O)C1(C)C(C)C=CC4CC41)C(C3)C2

>  <smiles>  (95) 
[H]OC([H])(C(=O)C1(C([H])([H])[H])C([H])(C([H])([H])[H])C([H])=C([H])C2([H])C([H])([H])C21[H])N([H])C1([H])C2([H])C([H])([H])C3([H])C([H])([H])C1([H])C([H])([H])C(C([H])([H])OC([H])([H])[H])(C3([H])[H])C2([H])[H]

$$$$
31:0:2
     RDKit          3D

 62 66  0  0  1  0  0  0  0  0999 V2000
    0.2655   -9.0895    7.8439 C   0  0  0  0  0  0  0  0  0  0  0  0
    0.2136   -8.4221    6.5960 O   0  0  0  0  0  0  0  0  0  0  0  0
    1.4398   -8.4966    5.8879 C   0  0  0  0  0  0  0  0  0  0  0  0
    1.2529   -7.9311    4.4626 C   0  0  2  0  0  0  0  0  0  0  0  0
    0.2380   -8.7840    3.6639 C   0  0  0  0  0  0  0  0  0  0  0  0
    0.0723   -8.2317    2.2384 C   0  0  2  0  0  0  0  0  0  0  0  0
    1.4316   -8.2897    1.5217 C   0  0  0  0  0  0  0  0  0  0  0  0
    2.4489   -7.4210    2.2828 C   0  0  2  0  0  0  0  0  0  0  0  0
    2.6105   -7.9602    3.7154 C   0  0  0  0  0  0  0  0  0  0  0  0
    1.9394   -5.9757    2.3769 C   0  0  1  0  0  0  0  0  0  0  0  0
    1.8602   -5.3874    1.0427 N   0  0  0  0  0  0  0  0  0  0  0  0
    2.5090   -4.0848    0.9430 C   0  0  2  0  0  0  0  0  0  0  0  0
    2.2310   -3.7219   -0.3891 O   0  0  0  0  0  0  0  0  0  0  0  0
    4.0338   -4.1118    1.1519 C   0  0  0  0  0  0  0  0  0  0  0  0
    4.6276   -5.1878    1.3151 O   0  0  0  0  0  0  0  0  0  0  0  0
    4.8781   -2.8219    1.1853 C   0  0  1  0  0  0  0  0  0  0  0  0
    5.8815   -2.9477    2.3512 C   0  0  0  0  0  0  0  0  0  0  0  0
    5.6616   -2.6449   -0.1748 C   0  0  1  0  0  0  0  0  0  0  0  0
    6.2971   -3.9429   -0.7250 C   0  0  0  0  0  0  0  0  0  0  0  0
    4.8333   -2.0018   -1.2677 C   0  0  0  0  0  0  0  0  0  0  0  0
    3.8345   -1.1150   -0.9981 C   0  0  0  0  0  0  0  0  0  0  0  0
    3.4932   -0.7466    0.3819 C   0  0  2  0  0  0  0  0  0  0  0  0
    4.5132   -0.1864    1.3511 C   0  0  0  0  0  0  0  0  0  0  0  0
    4.0066   -1.5977    1.4980 C   0  0  2  0  0  0  0  0  0  0  0  0
    0.5743   -5.9136    3.0693 C   0  0  1  0  0  0  0  0  0  0  0  0
   -0.4463   -6.7819    2.2962 C   0  0  0  0  0  0  0  0  0  0  0  0
    0.7470   -6.4660    4.5003 C   0  0  0  0  0  0  0  0  0  0  0  0
   -0.7030   -9.0068    8.3390 H   0  0  0  0  0  0  0  0  0  0  0  0
    1.0215   -8.6492    8.4944 H   0  0  0  0  0  0  0  0  0  0  0  0
    0.4824  -10.1495    7.7122 H   0  0  0  0  0  0  0  0  0  0  0  0
    2.2007   -7.9424    6.4395 H   0  0  0  0  0  0  0  0  0  0  0  0
    1.7788   -9.5327    5.8379 H   0  0  0  0  0  0  0  0  0  0  0  0
    0.5771   -9.8220    3.6086 H   0  0  0  0  0  0  0  0  0  0  0  0
   -0.7326   -8.8041    4.1642 H   0  0  0  0  0  0  0  0  0  0  0  0
   -0.6438   -8.8362    1.6843 H   0  0  0  0  0  0  0  0  0  0  0  0
    1.8054   -9.3149    1.4561 H   0  0  0  0  0  0  0  0  0  0  0  0
    1.3130   -7.9365    0.4962 H   0  0  0  0  0  0  0  0  0  0  0  0
    3.4167   -7.4570    1.7787 H   0  0  0  0  0  0  0  0  0  0  0  0
    3.3581   -7.3711    4.2533 H   0  0  0  0  0  0  0  0  0  0  0  0
    2.9997   -8.9779    3.6742 H   0  0  0  0  0  0  0  0  0  0  0  0
    2.6071   -5.4003    3.0082 H   0  0  0  0  0  0  0  0  0  0  0  0
    2.2745   -5.9897    0.3373 H   0  0  0  0  0  0  0  0  0  0  0  0
    2.0251   -3.4067    1.6453 H   0  0  0  0  0  0  0  0  0  0  0  0
    2.1476   -2.7751   -0.4451 H   0  0  0  0  0  0  0  0  0  0  0  0
    6.4872   -2.0487    2.4384 H   0  0  0  0  0  0  0  0  0  0  0  0
    6.5612   -3.7901    2.1966 H   0  0  0  0  0  0  0  0  0  0  0  0
    5.3778   -3.1122    3.2999 H   0  0  0  0  0  0  0  0  0  0  0  0
    6.4926   -1.9654    0.0179 H   0  0  0  0  0  0  0  0  0  0  0  0
    6.9537   -3.7175   -1.5580 H   0  0  0  0  0  0  0  0  0  0  0  0
    5.5438   -4.6478   -1.0896 H   0  0  0  0  0  0  0  0  0  0  0  0
    6.8830   -4.4591    0.0319 H   0  0  0  0  0  0  0  0  0  0  0  0
    5.0565   -2.2632   -2.2876 H   0  0  0  0  0  0  0  0  0  0  0  0
    3.2604   -0.6573   -1.7838 H   0  0  0  0  0  0  0  0  0  0  0  0
    2.4751   -0.3643    0.4875 H   0  0  0  0  0  0  0  0  0  0  0  0
    5.5235   -0.0287    0.9921 H   0  0  0  0  0  0  0  0  0  0  0  0
    4.1426    0.5234    2.0856 H   0  0  0  0  0  0  0  0  0  0  0  0
    3.3350   -1.7471    2.3446 H   0  0  0  0  0  0  0  0  0  0  0  0
    0.2515   -4.8743    3.1424 H   0  0  0  0  0  0  0  0  0  0  0  0
   -0.5787   -6.4088    1.2757 H   0  0  0  0  0  0  0  0  0  0  0  0
   -1.4227   -6.7443    2.7788 H   0  0  0  0  0  0  0  0  0  0  0  0
   -0.2079   -6.4009    5.0207 H   0  0  0  0  0  0  0  0  0  0  0  0
    1.4475   -5.8420    5.0622 H   0  0  0  0  0  0  0  0  0  0  0  0
  1  2  1  0
  1 28  1  0
  1 29  1  0
  1 30  1  0
  2  3  1  0
  4  3  1  1
  3 31  1  0
  3 32  1  0
  4  9  1  0
  4 27  1  0
  4  5  1  0
  5  6  1  0
  5 33  1  0
  5 34  1  0
  6 26  1  0
  6  7  1  0
  6 35  1  6
  7  8  1  0
  7 36  1  0
  7 37  1  0
  8  9  1  0
  8 10  1  0
  8 38  1  6
  9 39  1  0
  9 40  1  0
 10 11  1  0
 10 25  1  0
 10 41  1  1
 11 12  1  0
 11 42  1  0
 12 13  1  0
 12 14  1  0
 12 43  1  1
 13 44  1  0
 14 15  2  0
 14 16  1  0
 16 24  1  0
 16 17  1  1
 16 18  1  0
 17 45  1  0
 17 46  1  0
 17 47  1  0
 18 19  1  0
 18 20  1  0
 18 48  1  1
 19 49  1  0
 19 50  1  0
 19 51  1  0
 20 21  2  0
 20 52  1  0
 21 22  1  0
 21 53  1  0
 22 24  1  0
 22 23  1  0
 22 54  1  6
 23 24  1  0
 23 55  1  0
 23 56  1  0
 24 57  1  1
 25 26  1  0
 25 27  1  0
 25 58  1  1
 26 59  1  0
 26 60  1  0
 27 61  1  0
 27 62  1  0
M  END
>  <i_m_ct_stereo_status>  (96) 
1

>  <s_m_source_file>  (96) 
/var/tmp/pbs.5076255.sched01/tmprv8ptrg5/026yimkau.sdf

>  <i_m_source_file_index>  (96) 
43

>  <i_lp_mmshare_version>  (96) 
48012

>  <i_f3d_flags>  (96) 
0

>  <s_epik_input>  (96) 
W0NIM11PW0NIMl1bQ0BdMTJbQ0gyXVtDQEBIXTNbQ0gyXVtDQEhdKFtDSDJdMSlbQ0BIXShbQ0BASF0oW0NIMl0zKVtDSDJdMilbTkhdW0NASF0oW09IXSlDKD1PKVtDQF0oW0NIM10pKFtDQEhdKFtDQEhdNDUpW0NIMl01KVtDQEBIXShbQ0gzXSlbQ0hdPVtDSF00

>  <s_epik_cmdline>  (96) 
J2VwaWtfcHl0aG9uJywgJy1waHQnLCAnMi4wJywgJy1waCcsICc3LjAnLCAnLXRuJywgJzgnLCAnLW1hJywgJzIwMCcsICctaW1hZScsICc8aW5maWxlLm1hZT4nLCAnLW9tYWUnLCAnPG91dGZpbGUubWFlPic=

>  <r_epik_Ionization_Penalty>  (96) 
0.379997

>  <r_epik_Ionization_Penalty_Charging>  (96) 
0

>  <r_epik_Ionization_Penalty_Neutral>  (96) 
0.379997

>  <r_epik_State_Penalty>  (96) 
0.00690431

>  <r_epik_Charging_Adjusted_Penalty>  (96) 
0.00690431

>  <i_epik_Tot_Q>  (96) 
0

>  <i_epik_Tot_abs_Q>  (96) 
0

>  <s_epik_Chemistry_Notes>  (96) 
This compound contains an acetal/aminal-like group ( X-CH(R)-Y where X, Y are N, S, or O) that may be acid/base labile, releasing an aldehyde.

>  <s_lp_Force_Field>  (96) 
OPLS3e

>  <r_lp_Energy>  (96) 
23.274

>  <b_lp_Chiralities_Consistent>  (96) 
1

>  <s_lp_Variant>  (96) 
31:0-1

>  <s_i_glide_gridfile>  (96) 
pfpi4k_grid

>  <i_i_glide_lignum>  (96) 
43

>  <i_i_glide_rotatable_bonds>  (96) 
7

>  <r_i_docking_score>  (96) 
-2.06343

>  <r_i_glide_ligand_efficiency>  (96) 
-0.0764232

>  <r_i_glide_ligand_efficiency_sa>  (96) 
-0.22927

>  <r_i_glide_ligand_efficiency_ln>  (96) 
-0.480332

>  <r_i_glide_gscore>  (96) 
-2.06343

>  <r_i_glide_lipo>  (96) 
-0.208004

>  <r_i_glide_hbond>  (96) 
-0.0843231

>  <r_i_glide_metal>  (96) 
-0

>  <r_i_glide_rewards>  (96) 
-0.883423

>  <r_i_glide_evdw>  (96) 
-20.2969

>  <r_i_glide_ecoul>  (96) 
-3.58779

>  <r_i_glide_erotb>  (96) 
0.692573

>  <r_i_glide_esite>  (96) 
-0.0272375

>  <r_i_glide_emodel>  (96) 
-24.3364

>  <r_i_glide_energy>  (96) 
-23.8846

>  <r_i_glide_einternal>  (96) 
4.95918

>  <r_i_glide_intrahb_reward>  (96) 
-0

>  <i_i_glide_confnum>  (96) 
4

>  <i_i_glide_posenum>  (96) 
17

>  <r_i_glide_eff_state_penalty>  (96) 
0

>  <ligand_id>  (96) 
31

>  <original_smiles>  (96) 
COCC12CC3CC(C1)C(NC(O)C(=O)C1(C)C(C)C=CC4CC41)C(C3)C2

>  <smiles>  (96) 
[H]OC([H])(C(=O)C1(C([H])([H])[H])C([H])(C([H])([H])[H])C([H])=C([H])C2([H])C([H])([H])C21[H])N([H])C1([H])C2([H])C([H])([H])C3([H])C([H])([H])C1([H])C([H])([H])C(C([H])([H])OC([H])([H])[H])(C3([H])[H])C2([H])[H]

$$$$
31:1:0
     RDKit          3D

 63 67  0  0  1  0  0  0  0  0999 V2000
    0.2180    6.4415    5.5463 C   0  0  0  0  0  0  0  0  0  0  0  0
   -0.1484    5.2953    4.8005 O   0  0  0  0  0  0  0  0  0  0  0  0
   -0.5074    4.1664    5.5961 C   0  0  0  0  0  0  0  0  0  0  0  0
   -0.0405    2.8731    4.9123 C   0  0  2  0  0  0  0  0  0  0  0  0
   -0.5097    1.6366    5.7041 C   0  0  0  0  0  0  0  0  0  0  0  0
   -0.0148    0.3440    5.0177 C   0  0  2  0  0  0  0  0  0  0  0  0
    1.5265    0.3518    4.9858 C   0  0  0  0  0  0  0  0  0  0  0  0
    2.0092    1.5727    4.1622 C   0  0  2  0  0  0  0  0  0  0  0  0
    1.5046    2.8652    4.8380 C   0  0  0  0  0  0  0  0  0  0  0  0
    1.4553    1.5211    2.7104 C   0  0  1  0  0  0  0  0  0  0  0  0
    1.9182    0.3251    1.9683 N   0  0  0  0  0  0  0  0  0  0  0  0
    3.3641   -0.0057    2.0232 C   0  0  2  0  0  0  0  0  0  0  0  0
    3.8331    0.6248    0.8757 O   0  0  0  0  0  0  0  0  0  0  0  0
    3.4245   -1.5339    1.9217 C   0  0  0  0  0  0  0  0  0  0  0  0
    2.6770   -2.1982    2.6300 O   0  0  0  0  0  0  0  0  0  0  0  0
    4.3584   -2.2282    0.8844 C   0  0  1  0  0  0  0  0  0  0  0  0
    5.7611   -1.5624    0.8609 C   0  0  0  0  0  0  0  0  0  0  0  0
    4.5482   -3.7666    1.2425 C   0  0  1  0  0  0  0  0  0  0  0  0
    4.8915   -4.1256    2.7024 C   0  0  0  0  0  0  0  0  0  0  0  0
    3.4102   -4.6545    0.7482 C   0  0  0  0  0  0  0  0  0  0  0  0
    2.6417   -4.3540   -0.2984 C   0  0  0  0  0  0  0  0  0  0  0  0
    2.8180   -3.1188   -1.0812 C   0  0  2  0  0  0  0  0  0  0  0  0
    4.1505   -2.7914   -1.7241 C   0  0  0  0  0  0  0  0  0  0  0  0
    3.7042   -2.0454   -0.5113 C   0  0  2  0  0  0  0  0  0  0  0  0
   -0.0808    1.4963    2.7708 C   0  0  1  0  0  0  0  0  0  0  0  0
   -0.5669    0.2621    3.5776 C   0  0  0  0  0  0  0  0  0  0  0  0
   -0.5999    2.7734    3.4816 C   0  0  0  0  0  0  0  0  0  0  0  0
    0.4678    7.2575    4.8660 H   0  0  0  0  0  0  0  0  0  0  0  0
    1.0937    6.2347    6.1588 H   0  0  0  0  0  0  0  0  0  0  0  0
   -0.5989    6.7618    6.1914 H   0  0  0  0  0  0  0  0  0  0  0  0
   -0.0571    4.2262    6.5919 H   0  0  0  0  0  0  0  0  0  0  0  0
   -1.5924    4.1889    5.7447 H   0  0  0  0  0  0  0  0  0  0  0  0
   -0.1123    1.6766    6.7167 H   0  0  0  0  0  0  0  0  0  0  0  0
   -1.5969    1.6287    5.7742 H   0  0  0  0  0  0  0  0  0  0  0  0
   -0.3623   -0.5205    5.5824 H   0  0  0  0  0  0  0  0  0  0  0  0
    1.9219    0.3917    6.0016 H   0  0  0  0  0  0  0  0  0  0  0  0
    1.8865   -0.5814    4.5677 H   0  0  0  0  0  0  0  0  0  0  0  0
    3.1046    1.6289    4.1918 H   0  0  0  0  0  0  0  0  0  0  0  0
    1.8804    3.7234    4.2755 H   0  0  0  0  0  0  0  0  0  0  0  0
    1.9367    2.9439    5.8378 H   0  0  0  0  0  0  0  0  0  0  0  0
    1.7935    2.3996    2.1594 H   0  0  0  0  0  0  0  0  0  0  0  0
    1.4756   -0.4878    2.3806 H   0  0  0  0  0  0  0  0  0  0  0  0
    3.9183    0.3513    2.9181 H   0  0  0  0  0  0  0  0  0  0  0  0
    4.2769    1.3741    1.2109 H   0  0  0  0  0  0  0  0  0  0  0  0
    6.3887   -2.0792    0.1268 H   0  0  0  0  0  0  0  0  0  0  0  0
    6.2927   -1.6833    1.8040 H   0  0  0  0  0  0  0  0  0  0  0  0
    5.6974   -0.5035    0.6180 H   0  0  0  0  0  0  0  0  0  0  0  0
    5.3919   -4.1073    0.6536 H   0  0  0  0  0  0  0  0  0  0  0  0
    5.2646   -5.1520    2.7638 H   0  0  0  0  0  0  0  0  0  0  0  0
    4.0229   -4.0764    3.3639 H   0  0  0  0  0  0  0  0  0  0  0  0
    5.6635   -3.4745    3.1104 H   0  0  0  0  0  0  0  0  0  0  0  0
    3.2855   -5.6141    1.2348 H   0  0  0  0  0  0  0  0  0  0  0  0
    1.8667   -5.0196   -0.6821 H   0  0  0  0  0  0  0  0  0  0  0  0
    1.9328   -2.8162   -1.6038 H   0  0  0  0  0  0  0  0  0  0  0  0
    4.9932   -3.4940   -1.6357 H   0  0  0  0  0  0  0  0  0  0  0  0
    4.1277   -2.2009   -2.6290 H   0  0  0  0  0  0  0  0  0  0  0  0
    3.3126   -1.0608   -0.7116 H   0  0  0  0  0  0  0  0  0  0  0  0
   -0.4934    1.4539    1.7561 H   0  0  0  0  0  0  0  0  0  0  0  0
   -0.2406   -0.6678    3.1189 H   0  0  0  0  0  0  0  0  0  0  0  0
   -1.6611    0.2300    3.5958 H   0  0  0  0  0  0  0  0  0  0  0  0
   -1.6974    2.7772    3.4723 H   0  0  0  0  0  0  0  0  0  0  0  0
   -0.2723    3.6687    2.9624 H   0  0  0  0  0  0  0  0  0  0  0  0
    1.6416    0.3286    1.0031 H   0  0  0  0  0  0  0  0  0  0  0  0
  1  2  1  0
  1 28  1  0
  1 29  1  0
  1 30  1  0
  2  3  1  0
  4  3  1  1
  3 31  1  0
  3 32  1  0
  4  9  1  0
  4 27  1  0
  4  5  1  0
  5  6  1  0
  5 33  1  0
  5 34  1  0
  6 26  1  0
  6  7  1  0
  6 35  1  1
  7  8  1  0
  7 36  1  0
  7 37  1  0
  8  9  1  0
  8 10  1  0
  8 38  1  6
  9 39  1  0
  9 40  1  0
 10 11  1  0
 10 25  1  0
 10 41  1  6
 11 12  1  0
 11 42  1  0
 11 63  1  0
 12 13  1  0
 12 14  1  0
 12 43  1  1
 13 44  1  0
 14 15  2  0
 14 16  1  0
 16 24  1  0
 16 17  1  6
 16 18  1  0
 17 45  1  0
 17 46  1  0
 17 47  1  0
 18 19  1  0
 18 20  1  0
 18 48  1  6
 19 49  1  0
 19 50  1  0
 19 51  1  0
 20 21  2  0
 20 52  1  0
 21 22  1  0
 21 53  1  0
 22 24  1  0
 22 23  1  0
 22 54  1  6
 23 24  1  0
 23 55  1  0
 23 56  1  0
 24 57  1  6
 25 26  1  0
 25 27  1  0
 25 58  1  6
 26 59  1  0
 26 60  1  0
 27 61  1  0
 27 62  1  0
M  CHG  1  11   1
M  END
>  <i_m_ct_stereo_status>  (97) 
1

>  <s_m_source_file>  (97) 
/var/tmp/pbs.5076255.sched01/tmprv8ptrg5/026yimkau.sdf

>  <i_m_source_file_index>  (97) 
44

>  <i_lp_mmshare_version>  (97) 
48012

>  <i_f3d_flags>  (97) 
0

>  <s_epik_input>  (97) 
W0NIM11PW0NIMl1bQ0BdMTJbQ0gyXVtDQEBIXTNbQ0gyXVtDQEhdKFtDSDJdMSlbQ0BIXShbQ0BASF0oW0NIMl0zKVtDSDJdMilbTkhdW0NASF0oW09IXSlDKD1PKVtDQF0oW0NIM10pKFtDQEhdKFtDQEhdNDUpW0NIMl01KVtDQEBIXShbQ0gzXSlbQ0hdPVtDSF00

>  <s_epik_cmdline>  (97) 
J2VwaWtfcHl0aG9uJywgJy1waHQnLCAnMi4wJywgJy1waCcsICc3LjAnLCAnLXRuJywgJzgnLCAnLW1hJywgJzIwMCcsICctaW1hZScsICc8aW5maWxlLm1hZT4nLCAnLW9tYWUnLCAnPG91dGZpbGUubWFlPic=

>  <r_epik_Ionization_Penalty>  (97) 
1.29918

>  <r_epik_Ionization_Penalty_Charging>  (97) 
0.44304

>  <r_epik_Ionization_Penalty_Neutral>  (97) 
0.856141

>  <r_epik_State_Penalty>  (97) 
2.66688

>  <r_epik_Charging_Adjusted_Penalty>  (97) 
3.10992

>  <i_epik_Tot_Q>  (97) 
1

>  <i_epik_Tot_abs_Q>  (97) 
1

>  <s_epik_Chemistry_Notes>  (97) 
This compound contains an acetal/aminal-like group ( X-CH(R)-Y where X, Y are N, S, or O) that may be acid/base labile, releasing an aldehyde.

>  <s_lp_Force_Field>  (97) 
OPLS3e

>  <r_lp_Energy>  (97) 
29.6361

>  <b_lp_Chiralities_Consistent>  (97) 
1

>  <s_lp_Variant>  (97) 
31:0-2

>  <s_i_glide_gridfile>  (97) 
pfpi4k_grid

>  <i_i_glide_lignum>  (97) 
44

>  <i_i_glide_rotatable_bonds>  (97) 
7

>  <r_i_docking_score>  (97) 
-2.3713

>  <r_i_glide_ligand_efficiency>  (97) 
-0.087826

>  <r_i_glide_ligand_efficiency_sa>  (97) 
-0.263478

>  <r_i_glide_ligand_efficiency_ln>  (97) 
-0.552

>  <r_i_glide_gscore>  (97) 
-2.3713

>  <r_i_glide_lipo>  (97) 
-0.164107

>  <r_i_glide_hbond>  (97) 
-0.342295

>  <r_i_glide_metal>  (97) 
-0

>  <r_i_glide_rewards>  (97) 
-0.877434

>  <r_i_glide_evdw>  (97) 
-17.2321

>  <r_i_glide_ecoul>  (97) 
-5.0462

>  <r_i_glide_erotb>  (97) 
0.689242

>  <r_i_glide_esite>  (97) 
-0.0581714

>  <r_i_glide_emodel>  (97) 
-21.4392

>  <r_i_glide_energy>  (97) 
-22.2783

>  <r_i_glide_einternal>  (97) 
7.32276

>  <r_i_glide_intrahb_reward>  (97) 
-0

>  <i_i_glide_confnum>  (97) 
3

>  <i_i_glide_posenum>  (97) 
33

>  <r_i_glide_eff_state_penalty>  (97) 
0

>  <ligand_id>  (97) 
31

>  <original_smiles>  (97) 
COCC12CC3CC(C1)C(NC(O)C(=O)C1(C)C(C)C=CC4CC41)C(C3)C2

>  <smiles>  (97) 
[H]OC([H])(C(=O)C1(C([H])([H])[H])C([H])(C([H])([H])[H])C([H])=C([H])C2([H])C([H])([H])C21[H])[N+]([H])([H])C1([H])C2([H])C([H])([H])C3([H])C([H])([H])C1([H])C([H])([H])C(C([H])([H])OC([H])([H])[H])(C3([H])[H])C2([H])[H]

$$$$
31:1:1
     RDKit          3D

 63 67  0  0  1  0  0  0  0  0999 V2000
    7.2242   -6.5284    0.9253 C   0  0  0  0  0  0  0  0  0  0  0  0
    6.3021   -5.4827    0.6836 O   0  0  0  0  0  0  0  0  0  0  0  0
    6.9319   -4.2354    0.4390 C   0  0  0  0  0  0  0  0  0  0  0  0
    5.9218   -3.1030    0.7131 C   0  0  2  0  0  0  0  0  0  0  0  0
    6.6113   -1.7265    0.5630 C   0  0  0  0  0  0  0  0  0  0  0  0
    5.6161   -0.5891    0.8553 C   0  0  2  0  0  0  0  0  0  0  0  0
    5.1070   -0.7210    2.3010 C   0  0  0  0  0  0  0  0  0  0  0  0
    4.3893   -2.0789    2.4592 C   0  0  2  0  0  0  0  0  0  0  0  0
    5.3804   -3.2168    2.1563 C   0  0  0  0  0  0  0  0  0  0  0  0
    3.1725   -2.1842    1.4802 C   0  0  1  0  0  0  0  0  0  0  0  0
    2.1305   -1.1603    1.7164 N   0  0  0  0  0  0  0  0  0  0  0  0
    1.6055   -1.0587    3.0945 C   0  0  2  0  0  0  0  0  0  0  0  0
    0.7247   -2.1297    3.1650 O   0  0  0  0  0  0  0  0  0  0  0  0
    0.8245    0.2570    3.1680 C   0  0  0  0  0  0  0  0  0  0  0  0
   -0.0219    0.5414    2.3116 O   0  0  0  0  0  0  0  0  0  0  0  0
    1.1025    1.2674    4.3199 C   0  0  1  0  0  0  0  0  0  0  0  0
    2.4525    0.9893    5.0318 C   0  0  0  0  0  0  0  0  0  0  0  0
    1.1254    2.7546    3.7973 C   0  0  1  0  0  0  0  0  0  0  0  0
    1.9447    2.9841    2.5037 C   0  0  0  0  0  0  0  0  0  0  0  0
   -0.2567    3.4080    3.6746 C   0  0  0  0  0  0  0  0  0  0  0  0
   -1.3090    3.0338    4.3948 C   0  0  0  0  0  0  0  0  0  0  0  0
   -1.2235    1.9390    5.3835 C   0  0  2  0  0  0  0  0  0  0  0  0
   -0.2218    2.0001    6.5140 C   0  0  0  0  0  0  0  0  0  0  0  0
   -0.0015    1.0509    5.3544 C   0  0  2  0  0  0  0  0  0  0  0  0
    3.7180   -2.0312    0.0345 C   0  0  1  0  0  0  0  0  0  0  0  0
    4.4370   -0.6714   -0.1253 C   0  0  0  0  0  0  0  0  0  0  0  0
    4.7258   -3.1631   -0.2741 C   0  0  0  0  0  0  0  0  0  0  0  0
    6.6832   -7.4594    1.0902 H   0  0  0  0  0  0  0  0  0  0  0  0
    7.8167   -6.3264    1.8170 H   0  0  0  0  0  0  0  0  0  0  0  0
    7.9007   -6.6592    0.0831 H   0  0  0  0  0  0  0  0  0  0  0  0
    7.7972   -4.1061    1.0905 H   0  0  0  0  0  0  0  0  0  0  0  0
    7.2998   -4.2016   -0.5859 H   0  0  0  0  0  0  0  0  0  0  0  0
    7.4461   -1.6431    1.2587 H   0  0  0  0  0  0  0  0  0  0  0  0
    7.0261   -1.6200   -0.4398 H   0  0  0  0  0  0  0  0  0  0  0  0
    6.1173    0.3680    0.7229 H   0  0  0  0  0  0  0  0  0  0  0  0
    5.9393   -0.6484    3.0010 H   0  0  0  0  0  0  0  0  0  0  0  0
    4.4454    0.1105    2.5387 H   0  0  0  0  0  0  0  0  0  0  0  0
    4.0927   -2.2256    3.4960 H   0  0  0  0  0  0  0  0  0  0  0  0
    4.8787   -4.1731    2.3092 H   0  0  0  0  0  0  0  0  0  0  0  0
    6.2151   -3.1911    2.8666 H   0  0  0  0  0  0  0  0  0  0  0  0
    2.7215   -3.1728    1.5776 H   0  0  0  0  0  0  0  0  0  0  0  0
    2.5679   -0.2842    1.5374 H   0  0  0  0  0  0  0  0  0  0  0  0
    2.3602   -1.1696    3.8561 H   0  0  0  0  0  0  0  0  0  0  0  0
    1.1803   -2.9014    3.4860 H   0  0  0  0  0  0  0  0  0  0  0  0
    2.6219    1.7129    5.8327 H   0  0  0  0  0  0  0  0  0  0  0  0
    3.2863    1.0696    4.3395 H   0  0  0  0  0  0  0  0  0  0  0  0
    2.4831    0.0222    5.5257 H   0  0  0  0  0  0  0  0  0  0  0  0
    1.6228    3.3555    4.5614 H   0  0  0  0  0  0  0  0  0  0  0  0
    2.0924    4.0494    2.3334 H   0  0  0  0  0  0  0  0  0  0  0  0
    1.4259    2.5971    1.6251 H   0  0  0  0  0  0  0  0  0  0  0  0
    2.9326    2.5218    2.5443 H   0  0  0  0  0  0  0  0  0  0  0  0
   -0.3320    4.2251    2.9639 H   0  0  0  0  0  0  0  0  0  0  0  0
   -2.2666    3.5246    4.2969 H   0  0  0  0  0  0  0  0  0  0  0  0
   -2.1868    1.4947    5.5917 H   0  0  0  0  0  0  0  0  0  0  0  0
    0.4223    2.8660    6.5954 H   0  0  0  0  0  0  0  0  0  0  0  0
   -0.5105    1.5405    7.4585 H   0  0  0  0  0  0  0  0  0  0  0  0
   -0.2067    0.0055    5.5747 H   0  0  0  0  0  0  0  0  0  0  0  0
    2.8958   -2.0940   -0.6811 H   0  0  0  0  0  0  0  0  0  0  0  0
    3.7557    0.1435    0.0806 H   0  0  0  0  0  0  0  0  0  0  0  0
    4.7765   -0.5309   -1.1528 H   0  0  0  0  0  0  0  0  0  0  0  0
    5.0795   -3.0695   -1.3051 H   0  0  0  0  0  0  0  0  0  0  0  0
    4.2189   -4.1296   -0.2112 H   0  0  0  0  0  0  0  0  0  0  0  0
    1.3646   -1.2206    1.0391 H   0  0  0  0  0  0  0  0  0  0  0  0
  1  2  1  0
  1 28  1  0
  1 29  1  0
  1 30  1  0
  2  3  1  0
  4  3  1  6
  3 31  1  0
  3 32  1  0
  4  9  1  0
  4 27  1  0
  4  5  1  0
  5  6  1  0
  5 33  1  0
  5 34  1  0
  6 26  1  0
  6  7  1  0
  6 35  1  1
  7  8  1  0
  7 36  1  0
  7 37  1  0
  8  9  1  0
  8 10  1  0
  8 38  1  1
  9 39  1  0
  9 40  1  0
 10 11  1  0
 10 25  1  0
 10 41  1  6
 11 12  1  0
 11 42  1  0
 11 63  1  0
 12 13  1  0
 12 14  1  0
 12 43  1  1
 13 44  1  0
 14 15  2  0
 14 16  1  0
 16 24  1  0
 16 17  1  1
 16 18  1  0
 17 45  1  0
 17 46  1  0
 17 47  1  0
 18 19  1  0
 18 20  1  0
 18 48  1  1
 19 49  1  0
 19 50  1  0
 19 51  1  0
 20 21  2  0
 20 52  1  0
 21 22  1  0
 21 53  1  0
 22 24  1  0
 22 23  1  0
 22 54  1  1
 23 24  1  0
 23 55  1  0
 23 56  1  0
 24 57  1  1
 25 26  1  0
 25 27  1  0
 25 58  1  6
 26 59  1  0
 26 60  1  0
 27 61  1  0
 27 62  1  0
M  CHG  1  11   1
M  END
>  <i_m_ct_stereo_status>  (98) 
1

>  <s_m_source_file>  (98) 
/var/tmp/pbs.5076255.sched01/tmprv8ptrg5/026yimkau.sdf

>  <i_m_source_file_index>  (98) 
44

>  <i_lp_mmshare_version>  (98) 
48012

>  <i_f3d_flags>  (98) 
0

>  <s_epik_input>  (98) 
W0NIM11PW0NIMl1bQ0BdMTJbQ0gyXVtDQEBIXTNbQ0gyXVtDQEhdKFtDSDJdMSlbQ0BIXShbQ0BASF0oW0NIMl0zKVtDSDJdMilbTkhdW0NASF0oW09IXSlDKD1PKVtDQF0oW0NIM10pKFtDQEhdKFtDQEhdNDUpW0NIMl01KVtDQEBIXShbQ0gzXSlbQ0hdPVtDSF00

>  <s_epik_cmdline>  (98) 
J2VwaWtfcHl0aG9uJywgJy1waHQnLCAnMi4wJywgJy1waCcsICc3LjAnLCAnLXRuJywgJzgnLCAnLW1hJywgJzIwMCcsICctaW1hZScsICc8aW5maWxlLm1hZT4nLCAnLW9tYWUnLCAnPG91dGZpbGUubWFlPic=

>  <r_epik_Ionization_Penalty>  (98) 
1.29918

>  <r_epik_Ionization_Penalty_Charging>  (98) 
0.44304

>  <r_epik_Ionization_Penalty_Neutral>  (98) 
0.856141

>  <r_epik_State_Penalty>  (98) 
2.66688

>  <r_epik_Charging_Adjusted_Penalty>  (98) 
3.10992

>  <i_epik_Tot_Q>  (98) 
1

>  <i_epik_Tot_abs_Q>  (98) 
1

>  <s_epik_Chemistry_Notes>  (98) 
This compound contains an acetal/aminal-like group ( X-CH(R)-Y where X, Y are N, S, or O) that may be acid/base labile, releasing an aldehyde.

>  <s_lp_Force_Field>  (98) 
OPLS3e

>  <r_lp_Energy>  (98) 
29.6361

>  <b_lp_Chiralities_Consistent>  (98) 
1

>  <s_lp_Variant>  (98) 
31:0-2

>  <s_i_glide_gridfile>  (98) 
pfpi4k_grid

>  <i_i_glide_lignum>  (98) 
44

>  <i_i_glide_rotatable_bonds>  (98) 
7

>  <r_i_docking_score>  (98) 
-2.34223

>  <r_i_glide_ligand_efficiency>  (98) 
-0.0867493

>  <r_i_glide_ligand_efficiency_sa>  (98) 
-0.260248

>  <r_i_glide_ligand_efficiency_ln>  (98) 
-0.545233

>  <r_i_glide_gscore>  (98) 
-2.34223

>  <r_i_glide_lipo>  (98) 
-0.603491

>  <r_i_glide_hbond>  (98) 
-0.2

>  <r_i_glide_metal>  (98) 
-0

>  <r_i_glide_rewards>  (98) 
-0.855431

>  <r_i_glide_evdw>  (98) 
-20.7333

>  <r_i_glide_ecoul>  (98) 
-1.51847

>  <r_i_glide_erotb>  (98) 
0.689242

>  <r_i_glide_esite>  (98) 
-0.108116

>  <r_i_glide_emodel>  (98) 
-22.7539

>  <r_i_glide_energy>  (98) 
-22.2518

>  <r_i_glide_einternal>  (98) 
6.14742

>  <r_i_glide_intrahb_reward>  (98) 
-0

>  <i_i_glide_confnum>  (98) 
3

>  <i_i_glide_posenum>  (98) 
19

>  <r_i_glide_eff_state_penalty>  (98) 
0

>  <ligand_id>  (98) 
31

>  <original_smiles>  (98) 
COCC12CC3CC(C1)C(NC(O)C(=O)C1(C)C(C)C=CC4CC41)C(C3)C2

>  <smiles>  (98) 
[H]OC([H])(C(=O)C1(C([H])([H])[H])C([H])(C([H])([H])[H])C([H])=C([H])C2([H])C([H])([H])C21[H])[N+]([H])([H])C1([H])C2([H])C([H])([H])C3([H])C([H])([H])C1([H])C([H])([H])C(C([H])([H])OC([H])([H])[H])(C3([H])[H])C2([H])[H]

$$$$
31:1:2
     RDKit          3D

 63 67  0  0  1  0  0  0  0  0999 V2000
    6.0362   -6.6968    2.1572 C   0  0  0  0  0  0  0  0  0  0  0  0
    5.3314   -5.4716    2.1811 O   0  0  0  0  0  0  0  0  0  0  0  0
    6.0521   -4.4100    1.5765 C   0  0  0  0  0  0  0  0  0  0  0  0
    5.2291   -3.1103    1.6997 C   0  0  2  0  0  0  0  0  0  0  0  0
    6.0222   -1.9105    1.1233 C   0  0  0  0  0  0  0  0  0  0  0  0
    5.2038   -0.6062    1.2432 C   0  0  2  0  0  0  0  0  0  0  0  0
    4.9009   -0.3333    2.7304 C   0  0  0  0  0  0  0  0  0  0  0  0
    4.0755   -1.5030    3.3063 C   0  0  2  0  0  0  0  0  0  0  0  0
    4.8949   -2.8078    3.1863 C   0  0  0  0  0  0  0  0  0  0  0  0
    2.7487   -1.6800    2.5185 C   0  0  1  0  0  0  0  0  0  0  0  0
    1.8698   -0.4898    2.6028 N   0  0  0  0  0  0  0  0  0  0  0  0
    1.2487   -0.1736    3.9013 C   0  0  2  0  0  0  0  0  0  0  0  0
    0.4748   -1.3188    4.1181 O   0  0  0  0  0  0  0  0  0  0  0  0
    0.2874    0.9995    3.6547 C   0  0  0  0  0  0  0  0  0  0  0  0
   -0.1970    1.2164    2.5467 O   0  0  0  0  0  0  0  0  0  0  0  0
   -0.0874    1.9556    4.8295 C   0  0  1  0  0  0  0  0  0  0  0  0
    0.4810    1.4525    6.1724 C   0  0  0  0  0  0  0  0  0  0  0  0
    0.4373    3.4167    4.5544 C   0  0  1  0  0  0  0  0  0  0  0  0
    1.8888    3.4958    4.0279 C   0  0  0  0  0  0  0  0  0  0  0  0
   -0.4646    4.2724    3.6802 C   0  0  0  0  0  0  0  0  0  0  0  0
   -1.7913    4.0605    3.5542 C   0  0  0  0  0  0  0  0  0  0  0  0
   -2.4666    2.9865    4.2957 C   0  0  2  0  0  0  0  0  0  0  0  0
   -2.3837    2.9118    5.8008 C   0  0  0  0  0  0  0  0  0  0  0  0
   -1.6192    1.9245    4.9499 C   0  0  2  0  0  0  0  0  0  0  0  0
    3.0877   -1.9347    1.0368 C   0  0  1  0  0  0  0  0  0  0  0  0
    3.8910   -0.7524    0.4539 C   0  0  0  0  0  0  0  0  0  0  0  0
    3.9071   -3.2341    0.9029 C   0  0  0  0  0  0  0  0  0  0  0  0
    5.4421   -7.4651    2.6490 H   0  0  0  0  0  0  0  0  0  0  0  0
    6.9865   -6.6155    2.6836 H   0  0  0  0  0  0  0  0  0  0  0  0
    6.2228   -7.0133    1.1325 H   0  0  0  0  0  0  0  0  0  0  0  0
    7.0186   -4.2942    2.0705 H   0  0  0  0  0  0  0  0  0  0  0  0
    6.2535   -4.6483    0.5284 H   0  0  0  0  0  0  0  0  0  0  0  0
    6.9624   -1.7849    1.6607 H   0  0  0  0  0  0  0  0  0  0  0  0
    6.2807   -2.0923    0.0775 H   0  0  0  0  0  0  0  0  0  0  0  0
    5.7826    0.2176    0.8249 H   0  0  0  0  0  0  0  0  0  0  0  0
    5.8331   -0.2151    3.2828 H   0  0  0  0  0  0  0  0  0  0  0  0
    4.3647    0.6064    2.8415 H   0  0  0  0  0  0  0  0  0  0  0  0
    3.8792   -1.3296    4.3636 H   0  0  0  0  0  0  0  0  0  0  0  0
    4.3207   -3.6266    3.6239 H   0  0  0  0  0  0  0  0  0  0  0  0
    5.8103   -2.7287    3.7744 H   0  0  0  0  0  0  0  0  0  0  0  0
    2.2423   -2.5787    2.8774 H   0  0  0  0  0  0  0  0  0  0  0  0
    2.4376    0.2972    2.3621 H   0  0  0  0  0  0  0  0  0  0  0  0
    1.9755   -0.0190    4.6926 H   0  0  0  0  0  0  0  0  0  0  0  0
    0.9856   -1.9365    4.6242 H   0  0  0  0  0  0  0  0  0  0  0  0
    0.1487    2.0943    6.9912 H   0  0  0  0  0  0  0  0  0  0  0  0
    1.5662    1.4788    6.1857 H   0  0  0  0  0  0  0  0  0  0  0  0
    0.1457    0.4423    6.3958 H   0  0  0  0  0  0  0  0  0  0  0  0
    0.4406    3.9332    5.5163 H   0  0  0  0  0  0  0  0  0  0  0  0
    2.2444    4.5236    4.0778 H   0  0  0  0  0  0  0  0  0  0  0  0
    1.9663    3.1886    2.9795 H   0  0  0  0  0  0  0  0  0  0  0  0
    2.5779    2.8856    4.6166 H   0  0  0  0  0  0  0  0  0  0  0  0
    0.0016    5.0754    3.1246 H   0  0  0  0  0  0  0  0  0  0  0  0
   -2.4039    4.6688    2.9146 H   0  0  0  0  0  0  0  0  0  0  0  0
   -3.3888    2.6898    3.8170 H   0  0  0  0  0  0  0  0  0  0  0  0
   -1.8177    3.6699    6.3318 H   0  0  0  0  0  0  0  0  0  0  0  0
   -3.2546    2.5279    6.3283 H   0  0  0  0  0  0  0  0  0  0  0  0
   -2.0452    0.9290    4.8853 H   0  0  0  0  0  0  0  0  0  0  0  0
    2.1703   -2.0738    0.4754 H   0  0  0  0  0  0  0  0  0  0  0  0
    3.3199    0.1722    0.5065 H   0  0  0  0  0  0  0  0  0  0  0  0
    4.0900   -0.9161   -0.6053 H   0  0  0  0  0  0  0  0  0  0  0  0
    4.1026   -3.4280   -0.1552 H   0  0  0  0  0  0  0  0  0  0  0  0
    3.3105   -4.0755    1.2623 H   0  0  0  0  0  0  0  0  0  0  0  0
    1.1193   -0.5404    1.9242 H   0  0  0  0  0  0  0  0  0  0  0  0
  1  2  1  0
  1 28  1  0
  1 29  1  0
  1 30  1  0
  2  3  1  0
  4  3  1  1
  3 31  1  0
  3 32  1  0
  4  9  1  0
  4 27  1  0
  4  5  1  0
  5  6  1  0
  5 33  1  0
  5 34  1  0
  6 26  1  0
  6  7  1  0
  6 35  1  6
  7  8  1  0
  7 36  1  0
  7 37  1  0
  8  9  1  0
  8 10  1  0
  8 38  1  1
  9 39  1  0
  9 40  1  0
 10 11  1  0
 10 25  1  0
 10 41  1  1
 11 12  1  0
 11 42  1  0
 11 63  1  0
 12 13  1  0
 12 14  1  0
 12 43  1  1
 13 44  1  0
 14 15  2  0
 14 16  1  0
 16 24  1  0
 16 17  1  1
 16 18  1  0
 17 45  1  0
 17 46  1  0
 17 47  1  0
 18 19  1  0
 18 20  1  0
 18 48  1  1
 19 49  1  0
 19 50  1  0
 19 51  1  0
 20 21  2  0
 20 52  1  0
 21 22  1  0
 21 53  1  0
 22 24  1  0
 22 23  1  0
 22 54  1  1
 23 24  1  0
 23 55  1  0
 23 56  1  0
 24 57  1  1
 25 26  1  0
 25 27  1  0
 25 58  1  6
 26 59  1  0
 26 60  1  0
 27 61  1  0
 27 62  1  0
M  CHG  1  11   1
M  END
>  <i_m_ct_stereo_status>  (99) 
1

>  <s_m_source_file>  (99) 
/var/tmp/pbs.5076255.sched01/tmprv8ptrg5/026yimkau.sdf

>  <i_m_source_file_index>  (99) 
44

>  <i_lp_mmshare_version>  (99) 
48012

>  <i_f3d_flags>  (99) 
0

>  <s_epik_input>  (99) 
W0NIM11PW0NIMl1bQ0BdMTJbQ0gyXVtDQEBIXTNbQ0gyXVtDQEhdKFtDSDJdMSlbQ0BIXShbQ0BASF0oW0NIMl0zKVtDSDJdMilbTkhdW0NASF0oW09IXSlDKD1PKVtDQF0oW0NIM10pKFtDQEhdKFtDQEhdNDUpW0NIMl01KVtDQEBIXShbQ0gzXSlbQ0hdPVtDSF00

>  <s_epik_cmdline>  (99) 
J2VwaWtfcHl0aG9uJywgJy1waHQnLCAnMi4wJywgJy1waCcsICc3LjAnLCAnLXRuJywgJzgnLCAnLW1hJywgJzIwMCcsICctaW1hZScsICc8aW5maWxlLm1hZT4nLCAnLW9tYWUnLCAnPG91dGZpbGUubWFlPic=

>  <r_epik_Ionization_Penalty>  (99) 
1.29918

>  <r_epik_Ionization_Penalty_Charging>  (99) 
0.44304

>  <r_epik_Ionization_Penalty_Neutral>  (99) 
0.856141

>  <r_epik_State_Penalty>  (99) 
2.66688

>  <r_epik_Charging_Adjusted_Penalty>  (99) 
3.10992

>  <i_epik_Tot_Q>  (99) 
1

>  <i_epik_Tot_abs_Q>  (99) 
1

>  <s_epik_Chemistry_Notes>  (99) 
This compound contains an acetal/aminal-like group ( X-CH(R)-Y where X, Y are N, S, or O) that may be acid/base labile, releasing an aldehyde.

>  <s_lp_Force_Field>  (99) 
OPLS3e

>  <r_lp_Energy>  (99) 
29.6361

>  <b_lp_Chiralities_Consistent>  (99) 
1

>  <s_lp_Variant>  (99) 
31:0-2

>  <s_i_glide_gridfile>  (99) 
pfpi4k_grid

>  <i_i_glide_lignum>  (99) 
44

>  <i_i_glide_rotatable_bonds>  (99) 
7

>  <r_i_docking_score>  (99) 
-2.16735

>  <r_i_glide_ligand_efficiency>  (99) 
-0.0802722

>  <r_i_glide_ligand_efficiency_sa>  (99) 
-0.240817

>  <r_i_glide_ligand_efficiency_ln>  (99) 
-0.504523

>  <r_i_glide_gscore>  (99) 
-2.16735

>  <r_i_glide_lipo>  (99) 
-0.659672

>  <r_i_glide_hbond>  (99) 
0

>  <r_i_glide_metal>  (99) 
-0

>  <r_i_glide_rewards>  (99) 
-0.855431

>  <r_i_glide_evdw>  (99) 
-21.7931

>  <r_i_glide_ecoul>  (99) 
-1.33807

>  <r_i_glide_erotb>  (99) 
0.689242

>  <r_i_glide_esite>  (99) 
-0.0511229

>  <r_i_glide_emodel>  (99) 
-22.8771

>  <r_i_glide_energy>  (99) 
-23.1312

>  <r_i_glide_einternal>  (99) 
7.51064

>  <r_i_glide_intrahb_reward>  (99) 
-0

>  <i_i_glide_confnum>  (99) 
3

>  <i_i_glide_posenum>  (99) 
23

>  <r_i_glide_eff_state_penalty>  (99) 
0

>  <ligand_id>  (99) 
31

>  <original_smiles>  (99) 
COCC12CC3CC(C1)C(NC(O)C(=O)C1(C)C(C)C=CC4CC41)C(C3)C2

>  <smiles>  (99) 
[H]OC([H])(C(=O)C1(C([H])([H])[H])C([H])(C([H])([H])[H])C([H])=C([H])C2([H])C([H])([H])C21[H])[N+]([H])([H])C1([H])C2([H])C([H])([H])C3([H])C([H])([H])C1([H])C([H])([H])C(C([H])([H])OC([H])([H])[H])(C3([H])[H])C2([H])[H]

$$$$
32:0:0
     RDKit          3D

 56 61  0  0  1  0  0  0  0  0999 V2000
   -1.0650   -8.7477    3.3512 C   0  0  0  0  0  0  0  0  0  0  0  0
   -1.2573   -7.4813    2.7297 C   0  0  0  0  0  0  0  0  0  0  0  0
   -0.1157   -6.8826    2.4475 N   0  0  0  0  0  0  0  0  0  0  0  0
    0.8415   -7.7272    2.9003 N   0  0  0  0  0  0  0  0  0  0  0  0
    2.2483   -7.3978    2.7843 C   0  0  2  0  0  0  0  0  0  0  0  0
    2.5445   -6.0429    3.4484 C   0  0  0  0  0  0  0  0  0  0  0  0
    3.9086   -5.4488    3.0746 C   0  0  1  0  0  0  0  0  0  0  0  0
    5.1531   -6.1368    3.6675 C   0  0  0  0  0  0  0  0  0  0  0  0
    5.4945   -7.4944    3.0361 C   0  0  0  0  0  0  0  0  0  0  0  0
    5.3128   -7.5156    1.5036 C   0  0  0  0  0  0  0  0  0  0  0  0
    4.0547   -6.7545    1.0160 C   0  0  1  0  0  0  0  0  0  0  0  0
    2.7066   -7.4529    1.3086 C   0  0  0  0  0  0  0  0  0  0  0  0
    4.0107   -5.3756    1.5745 N   0  0  2  0  0  0  0  0  0  0  0  0
    4.9942   -4.4102    0.9967 C   0  0  2  0  0  0  0  0  0  0  0  0
    5.1414   -3.1135    1.8474 C   0  0  2  0  0  0  0  0  0  0  0  0
    3.7994   -2.3384    1.8785 C   0  0  0  0  0  0  0  0  0  0  0  0
    3.4169   -1.9547    0.4431 C   0  0  1  0  0  0  0  0  0  0  0  0
    4.5116   -1.0511   -0.1468 C   0  0  0  0  0  0  0  0  0  0  0  0
    5.8504   -1.8150   -0.1828 C   0  0  1  0  0  0  0  0  0  0  0  0
    6.2427   -2.2358    1.2414 C   0  0  0  0  0  0  0  0  0  0  0  0
    5.6990   -3.0785   -1.0523 C   0  0  0  0  0  0  0  0  0  0  0  0
    4.6020   -3.9907   -0.4552 C   0  0  2  0  0  0  0  0  0  0  0  0
    3.2575   -3.2222   -0.4355 C   0  0  0  0  0  0  0  0  0  0  0  0
    0.2865   -8.8668    3.4426 C   0  0  0  0  0  0  0  0  0  0  0  0
   -1.7970   -9.4644    3.6889 H   0  0  0  0  0  0  0  0  0  0  0  0
   -2.1813   -6.9851    2.4817 H   0  0  0  0  0  0  0  0  0  0  0  0
    2.7911   -8.1542    3.3391 H   0  0  0  0  0  0  0  0  0  0  0  0
    1.8090   -5.2984    3.1376 H   0  0  0  0  0  0  0  0  0  0  0  0
    2.4407   -6.1166    4.5333 H   0  0  0  0  0  0  0  0  0  0  0  0
    3.8446   -4.4708    3.5611 H   0  0  0  0  0  0  0  0  0  0  0  0
    5.9935   -5.4614    3.5172 H   0  0  0  0  0  0  0  0  0  0  0  0
    5.0384   -6.2345    4.7506 H   0  0  0  0  0  0  0  0  0  0  0  0
    6.5254   -7.7466    3.2817 H   0  0  0  0  0  0  0  0  0  0  0  0
    4.8913   -8.2737    3.4916 H   0  0  0  0  0  0  0  0  0  0  0  0
    6.1955   -7.0659    1.0433 H   0  0  0  0  0  0  0  0  0  0  0  0
    5.3040   -8.5471    1.1390 H   0  0  0  0  0  0  0  0  0  0  0  0
    4.1128   -6.7178   -0.0724 H   0  0  0  0  0  0  0  0  0  0  0  0
    2.7331   -8.4924    0.9758 H   0  0  0  0  0  0  0  0  0  0  0  0
    1.9463   -6.9652    0.6918 H   0  0  0  0  0  0  0  0  0  0  0  0
    5.9886   -4.8676    0.9603 H   0  0  0  0  0  0  0  0  0  0  0  0
    5.4939   -3.3366    2.8520 H   0  0  0  0  0  0  0  0  0  0  0  0
    2.9792   -2.9265    2.2909 H   0  0  0  0  0  0  0  0  0  0  0  0
    3.8851   -1.4533    2.5120 H   0  0  0  0  0  0  0  0  0  0  0  0
    2.4711   -1.4087    0.4761 H   0  0  0  0  0  0  0  0  0  0  0  0
    4.2263   -0.7409   -1.1490 H   0  0  0  0  0  0  0  0  0  0  0  0
    4.5990   -0.1488    0.4649 H   0  0  0  0  0  0  0  0  0  0  0  0
    6.6280   -1.1696   -0.5831 H   0  0  0  0  0  0  0  0  0  0  0  0
    6.4126   -1.3621    1.8743 H   0  0  0  0  0  0  0  0  0  0  0  0
    7.1866   -2.7913    1.2289 H   0  0  0  0  0  0  0  0  0  0  0  0
    5.4404   -2.8023   -2.0717 H   0  0  0  0  0  0  0  0  0  0  0  0
    6.6441   -3.6205   -1.1044 H   0  0  0  0  0  0  0  0  0  0  0  0
    4.5150   -4.8532   -1.1197 H   0  0  0  0  0  0  0  0  0  0  0  0
    2.4511   -3.8540   -0.0651 H   0  0  0  0  0  0  0  0  0  0  0  0
    2.9658   -2.9435   -1.4479 H   0  0  0  0  0  0  0  0  0  0  0  0
    0.8950   -9.6632    3.8604 H   0  0  0  0  0  0  0  0  0  0  0  0
    3.1186   -5.0037    1.2835 H   0  0  0  0  0  0  0  0  0  0  0  0
  1 24  2  0
  1  2  1  0
  1 25  1  0
  2  3  2  0
  2 26  1  0
  3  4  1  0
  4  5  1  0
  4 24  1  0
  5 12  1  0
  5  6  1  0
  5 27  1  1
  6  7  1  0
  6 28  1  0
  6 29  1  0
  7 13  1  0
  7  8  1  0
  7 30  1  1
  8  9  1  0
  8 31  1  0
  8 32  1  0
  9 10  1  0
  9 33  1  0
  9 34  1  0
 10 11  1  0
 10 35  1  0
 10 36  1  0
 11 12  1  0
 11 13  1  0
 11 37  1  6
 12 38  1  0
 12 39  1  0
 13 14  1  0
 13 56  1  6
 14 22  1  0
 14 15  1  0
 14 40  1  6
 15 20  1  0
 15 16  1  0
 15 41  1  1
 16 17  1  0
 16 42  1  0
 16 43  1  0
 17 23  1  0
 17 18  1  0
 17 44  1  1
 18 19  1  0
 18 45  1  0
 18 46  1  0
 19 20  1  0
 19 21  1  0
 19 47  1  6
 20 48  1  0
 20 49  1  0
 21 22  1  0
 21 50  1  0
 21 51  1  0
 22 23  1  0
 22 52  1  6
 23 53  1  0
 23 54  1  0
 24 55  1  0
M  CHG  1  13   1
M  END
>  <i_m_ct_stereo_status>  (100) 
1

>  <s_m_source_file>  (100) 
/var/tmp/pbs.5076255.sched01/tmprv8ptrg5/026yimkau.sdf

>  <i_m_source_file_index>  (100) 
45

>  <i_lp_mmshare_version>  (100) 
48012

>  <i_f3d_flags>  (100) 
0

>  <s_epik_input>  (100) 
W2NIXTFbY0hdW2NIXW5uMVtDQEhdKFtDSDJdW0NAQEhdMjMpW0NIMl1bQ0BIXShbQ0gyXVtDSDJdW0NIMl0yKU4zW0NASF0oW0NAQEhdNDUpW0NASF02W0NIMl1bQ0BASF0oW0NIMl01KVtDSDJdW0NAQEhdKFtDSDJdNClbQ0gyXTY=

>  <s_epik_cmdline>  (100) 
J2VwaWtfcHl0aG9uJywgJy1waHQnLCAnMi4wJywgJy1waCcsICc3LjAnLCAnLXRuJywgJzgnLCAnLW1hJywgJzIwMCcsICctaW1hZScsICc8aW5maWxlLm1hZT4nLCAnLW9tYWUnLCAnPG91dGZpbGUubWFlPic=

>  <r_lp_tautomer_probability>  (100) 
1

>  <r_epik_Ionization_Penalty>  (100) 
0.000678804

>  <r_epik_Ionization_Penalty_Charging>  (100) 
0.000655921

>  <r_epik_Ionization_Penalty_Neutral>  (100) 
2.28829e-05

>  <r_epik_State_Penalty>  (100) 
-0

>  <r_epik_Charging_Adjusted_Penalty>  (100) 
0.000655921

>  <i_epik_Tot_Q>  (100) 
1

>  <i_epik_Tot_abs_Q>  (100) 
1

>  <s_lp_Force_Field>  (100) 
OPLS3e

>  <r_lp_Energy>  (100) 
20.381

>  <b_lp_Chiralities_Consistent>  (100) 
1

>  <s_lp_Variant>  (100) 
32:0-1

>  <s_i_glide_gridfile>  (100) 
pfpi4k_grid

>  <i_i_glide_lignum>  (100) 
45

>  <i_i_glide_rotatable_bonds>  (100) 
2

>  <r_i_docking_score>  (100) 
-3.2501

>  <r_i_glide_ligand_efficiency>  (100) 
-0.135421

>  <r_i_glide_ligand_efficiency_sa>  (100) 
-0.390622

>  <r_i_glide_ligand_efficiency_ln>  (100) 
-0.777899

>  <r_i_glide_gscore>  (100) 
-3.2501

>  <r_i_glide_lipo>  (100) 
-0.477619

>  <r_i_glide_hbond>  (100) 
-0.105657

>  <r_i_glide_metal>  (100) 
-0

>  <r_i_glide_rewards>  (100) 
-1.18296

>  <r_i_glide_evdw>  (100) 
-26.0565

>  <r_i_glide_ecoul>  (100) 
-3.3597

>  <r_i_glide_erotb>  (100) 
0.351882

>  <r_i_glide_esite>  (100) 
-0.028965

>  <r_i_glide_emodel>  (100) 
-34.8271

>  <r_i_glide_energy>  (100) 
-29.4162

>  <r_i_glide_einternal>  (100) 
1.14285

>  <r_i_glide_intrahb_reward>  (100) 
-0

>  <i_i_glide_confnum>  (100) 
5

>  <i_i_glide_posenum>  (100) 
12

>  <r_i_glide_eff_state_penalty>  (100) 
0

>  <ligand_id>  (100) 
32

>  <original_smiles>  (100) 
c1cnn(C2CC3CCCC(C2)N3C2C3CC4CC(C3)CC2C4)c1

>  <smiles>  (100) 
[H]c1nn(C2([H])C([H])([H])C3([H])C([H])([H])C([H])([H])C([H])([H])C([H])(C2([H])[H])[N+]3([H])C2([H])C3([H])C([H])([H])C4([H])C([H])([H])C([H])(C3([H])[H])C([H])([H])C2([H])C4([H])[H])c([H])c1[H]

$$$$
32:0:1
     RDKit          3D

 56 61  0  0  1  0  0  0  0  0999 V2000
   -0.3508   -9.0983    3.0002 C   0  0  0  0  0  0  0  0  0  0  0  0
   -0.6042   -7.9874    2.1589 C   0  0  0  0  0  0  0  0  0  0  0  0
    0.4210   -7.1576    2.0742 N   0  0  0  0  0  0  0  0  0  0  0  0
    1.3663   -7.7119    2.8623 N   0  0  0  0  0  0  0  0  0  0  0  0
    2.6648   -7.0832    3.0172 C   0  0  2  0  0  0  0  0  0  0  0  0
    2.5058   -5.6100    3.4512 C   0  0  0  0  0  0  0  0  0  0  0  0
    3.7768   -4.7673    3.2806 C   0  0  1  0  0  0  0  0  0  0  0  0
    4.9165   -5.0551    4.2826 C   0  0  0  0  0  0  0  0  0  0  0  0
    5.6730   -6.3724    4.0216 C   0  0  0  0  0  0  0  0  0  0  0  0
    5.9182   -6.6423    2.5244 C   0  0  0  0  0  0  0  0  0  0  0  0
    4.7068   -6.3010    1.6250 C   0  0  1  0  0  0  0  0  0  0  0  0
    3.4928   -7.2441    1.7253 C   0  0  0  0  0  0  0  0  0  0  0  0
    4.2553   -4.8992    1.8685 N   0  0  2  0  0  0  0  0  0  0  0  0
    5.1759   -3.8252    1.3808 C   0  0  2  0  0  0  0  0  0  0  0  0
    4.5775   -2.3995    1.5935 C   0  0  2  0  0  0  0  0  0  0  0  0
    3.2704   -2.2493    0.7743 C   0  0  0  0  0  0  0  0  0  0  0  0
    3.5821   -2.4466   -0.7243 C   0  0  1  0  0  0  0  0  0  0  0  0
    4.6031   -1.3802   -1.1713 C   0  0  0  0  0  0  0  0  0  0  0  0
    5.9018   -1.5189   -0.3428 C   0  0  1  0  0  0  0  0  0  0  0  0
    5.6029   -1.3461    1.1510 C   0  0  0  0  0  0  0  0  0  0  0  0
    6.5065   -2.9114   -0.5833 C   0  0  0  0  0  0  0  0  0  0  0  0
    5.4962   -3.9850   -0.1396 C   0  0  2  0  0  0  0  0  0  0  0  0
    4.1896   -3.8470   -0.9636 C   0  0  0  0  0  0  0  0  0  0  0  0
    0.9384   -8.8958    3.4261 C   0  0  0  0  0  0  0  0  0  0  0  0
   -0.9929   -9.9276    3.2658 H   0  0  0  0  0  0  0  0  0  0  0  0
   -1.5017   -7.7529    1.6159 H   0  0  0  0  0  0  0  0  0  0  0  0
    3.1713   -7.6163    3.8115 H   0  0  0  0  0  0  0  0  0  0  0  0
    1.7462   -5.1143    2.8444 H   0  0  0  0  0  0  0  0  0  0  0  0
    2.1396   -5.5575    4.4783 H   0  0  0  0  0  0  0  0  0  0  0  0
    3.4041   -3.7640    3.4923 H   0  0  0  0  0  0  0  0  0  0  0  0
    5.6208   -4.2243    4.2330 H   0  0  0  0  0  0  0  0  0  0  0  0
    4.5270   -5.0465    5.3040 H   0  0  0  0  0  0  0  0  0  0  0  0
    6.6255   -6.3530    4.5493 H   0  0  0  0  0  0  0  0  0  0  0  0
    5.1310   -7.2052    4.4557 H   0  0  0  0  0  0  0  0  0  0  0  0
    6.7653   -6.0372    2.1977 H   0  0  0  0  0  0  0  0  0  0  0  0
    6.2313   -7.6758    2.3685 H   0  0  0  0  0  0  0  0  0  0  0  0
    5.0196   -6.4537    0.5924 H   0  0  0  0  0  0  0  0  0  0  0  0
    3.8066   -8.2812    1.5973 H   0  0  0  0  0  0  0  0  0  0  0  0
    2.8532   -7.0248    0.8691 H   0  0  0  0  0  0  0  0  0  0  0  0
    6.1144   -3.8734    1.9398 H   0  0  0  0  0  0  0  0  0  0  0  0
    4.3989   -2.1798    2.6447 H   0  0  0  0  0  0  0  0  0  0  0  0
    2.5205   -2.9713    1.0992 H   0  0  0  0  0  0  0  0  0  0  0  0
    2.8191   -1.2686    0.9421 H   0  0  0  0  0  0  0  0  0  0  0  0
    2.6586   -2.3419   -1.3009 H   0  0  0  0  0  0  0  0  0  0  0  0
    4.8216   -1.5054   -2.2312 H   0  0  0  0  0  0  0  0  0  0  0  0
    4.1904   -0.3787   -1.0430 H   0  0  0  0  0  0  0  0  0  0  0  0
    6.6141   -0.7553   -0.6313 H   0  0  0  0  0  0  0  0  0  0  0  0
    5.2283   -0.3428    1.3557 H   0  0  0  0  0  0  0  0  0  0  0  0
    6.5176   -1.4610    1.7348 H   0  0  0  0  0  0  0  0  0  0  0  0
    6.7486   -3.0457   -1.6371 H   0  0  0  0  0  0  0  0  0  0  0  0
    7.4375   -3.0270   -0.0286 H   0  0  0  0  0  0  0  0  0  0  0  0
    5.9883   -4.9311   -0.3658 H   0  0  0  0  0  0  0  0  0  0  0  0
    3.4704   -4.6220   -0.6943 H   0  0  0  0  0  0  0  0  0  0  0  0
    4.3944   -3.9957   -2.0242 H   0  0  0  0  0  0  0  0  0  0  0  0
    1.5631   -9.4840    4.0766 H   0  0  0  0  0  0  0  0  0  0  0  0
    3.4310   -4.7858    1.2989 H   0  0  0  0  0  0  0  0  0  0  0  0
  1 24  2  0
  1  2  1  0
  1 25  1  0
  2  3  2  0
  2 26  1  0
  3  4  1  0
  4  5  1  0
  4 24  1  0
  5 12  1  0
  5  6  1  0
  5 27  1  1
  6  7  1  0
  6 28  1  0
  6 29  1  0
  7 13  1  0
  7  8  1  0
  7 30  1  6
  8  9  1  0
  8 31  1  0
  8 32  1  0
  9 10  1  0
  9 33  1  0
  9 34  1  0
 10 11  1  0
 10 35  1  0
 10 36  1  0
 11 12  1  0
 11 13  1  0
 11 37  1  6
 12 38  1  0
 12 39  1  0
 13 14  1  0
 13 56  1  6
 14 22  1  0
 14 15  1  0
 14 40  1  1
 15 20  1  0
 15 16  1  0
 15 41  1  1
 16 17  1  0
 16 42  1  0
 16 43  1  0
 17 23  1  0
 17 18  1  0
 17 44  1  6
 18 19  1  0
 18 45  1  0
 18 46  1  0
 19 20  1  0
 19 21  1  0
 19 47  1  6
 20 48  1  0
 20 49  1  0
 21 22  1  0
 21 50  1  0
 21 51  1  0
 22 23  1  0
 22 52  1  1
 23 53  1  0
 23 54  1  0
 24 55  1  0
M  CHG  1  13   1
M  END
>  <i_m_ct_stereo_status>  (101) 
1

>  <s_m_source_file>  (101) 
/var/tmp/pbs.5076255.sched01/tmprv8ptrg5/026yimkau.sdf

>  <i_m_source_file_index>  (101) 
45

>  <i_lp_mmshare_version>  (101) 
48012

>  <i_f3d_flags>  (101) 
0

>  <s_epik_input>  (101) 
W2NIXTFbY0hdW2NIXW5uMVtDQEhdKFtDSDJdW0NAQEhdMjMpW0NIMl1bQ0BIXShbQ0gyXVtDSDJdW0NIMl0yKU4zW0NASF0oW0NAQEhdNDUpW0NASF02W0NIMl1bQ0BASF0oW0NIMl01KVtDSDJdW0NAQEhdKFtDSDJdNClbQ0gyXTY=

>  <s_epik_cmdline>  (101) 
J2VwaWtfcHl0aG9uJywgJy1waHQnLCAnMi4wJywgJy1waCcsICc3LjAnLCAnLXRuJywgJzgnLCAnLW1hJywgJzIwMCcsICctaW1hZScsICc8aW5maWxlLm1hZT4nLCAnLW9tYWUnLCAnPG91dGZpbGUubWFlPic=

>  <r_lp_tautomer_probability>  (101) 
1

>  <r_epik_Ionization_Penalty>  (101) 
0.000678804

>  <r_epik_Ionization_Penalty_Charging>  (101) 
0.000655921

>  <r_epik_Ionization_Penalty_Neutral>  (101) 
2.28829e-05

>  <r_epik_State_Penalty>  (101) 
-0

>  <r_epik_Charging_Adjusted_Penalty>  (101) 
0.000655921

>  <i_epik_Tot_Q>  (101) 
1

>  <i_epik_Tot_abs_Q>  (101) 
1

>  <s_lp_Force_Field>  (101) 
OPLS3e

>  <r_lp_Energy>  (101) 
20.381

>  <b_lp_Chiralities_Consistent>  (101) 
1

>  <s_lp_Variant>  (101) 
32:0-1

>  <s_i_glide_gridfile>  (101) 
pfpi4k_grid

>  <i_i_glide_lignum>  (101) 
45

>  <i_i_glide_rotatable_bonds>  (101) 
2

>  <r_i_docking_score>  (101) 
-2.95407

>  <r_i_glide_ligand_efficiency>  (101) 
-0.123086

>  <r_i_glide_ligand_efficiency_sa>  (101) 
-0.355042

>  <r_i_glide_ligand_efficiency_ln>  (101) 
-0.707044

>  <r_i_glide_gscore>  (101) 
-2.95407

>  <r_i_glide_lipo>  (101) 
-0.393598

>  <r_i_glide_hbond>  (101) 
0

>  <r_i_glide_metal>  (101) 
-0

>  <r_i_glide_rewards>  (101) 
-1.18296

>  <r_i_glide_evdw>  (101) 
-25.8751

>  <r_i_glide_ecoul>  (101) 
-2.77425

>  <r_i_glide_erotb>  (101) 
0.351882

>  <r_i_glide_esite>  (101) 
-0.019496

>  <r_i_glide_emodel>  (101) 
-34.2029

>  <r_i_glide_energy>  (101) 
-28.6493

>  <r_i_glide_einternal>  (101) 
0.146268

>  <r_i_glide_intrahb_reward>  (101) 
-0

>  <i_i_glide_confnum>  (101) 
6

>  <i_i_glide_posenum>  (101) 
5

>  <r_i_glide_eff_state_penalty>  (101) 
0

>  <ligand_id>  (101) 
32

>  <original_smiles>  (101) 
c1cnn(C2CC3CCCC(C2)N3C2C3CC4CC(C3)CC2C4)c1

>  <smiles>  (101) 
[H]c1nn(C2([H])C([H])([H])C3([H])C([H])([H])C([H])([H])C([H])([H])C([H])(C2([H])[H])[N+]3([H])C2([H])C3([H])C([H])([H])C4([H])C([H])([H])C([H])(C3([H])[H])C([H])([H])C2([H])C4([H])[H])c([H])c1[H]

$$$$
32:0:2
     RDKit          3D

 56 61  0  0  1  0  0  0  0  0999 V2000
    0.3638   -9.2139    3.7312 C   0  0  0  0  0  0  0  0  0  0  0  0
    0.9712   -9.6155    2.4980 C   0  0  0  0  0  0  0  0  0  0  0  0
    2.1006   -8.9804    2.2719 N   0  0  0  0  0  0  0  0  0  0  0  0
    2.2738   -8.1482    3.3156 N   0  0  0  0  0  0  0  0  0  0  0  0
    3.4371   -7.2796    3.4085 C   0  0  2  0  0  0  0  0  0  0  0  0
    2.9984   -5.8417    3.7558 C   0  0  0  0  0  0  0  0  0  0  0  0
    4.0726   -4.7650    3.5304 C   0  0  1  0  0  0  0  0  0  0  0  0
    5.2518   -4.7655    4.5326 C   0  0  0  0  0  0  0  0  0  0  0  0
    6.2541   -5.9195    4.3360 C   0  0  0  0  0  0  0  0  0  0  0  0
    6.5533   -6.2170    2.8564 C   0  0  0  0  0  0  0  0  0  0  0  0
    5.2957   -6.1679    1.9543 C   0  0  1  0  0  0  0  0  0  0  0  0
    4.2999   -7.3182    2.1177 C   0  0  0  0  0  0  0  0  0  0  0  0
    4.5790   -4.8699    2.1269 N   0  0  2  0  0  0  0  0  0  0  0  0
    5.2619   -3.6641    1.5594 C   0  0  2  0  0  0  0  0  0  0  0  0
    4.3686   -2.3883    1.6322 C   0  0  2  0  0  0  0  0  0  0  0  0
    3.0850   -2.5860    0.7856 C   0  0  0  0  0  0  0  0  0  0  0  0
    3.4856   -2.8338   -0.6846 C   0  0  1  0  0  0  0  0  0  0  0  0
    4.2734   -1.6129   -1.1997 C   0  0  0  0  0  0  0  0  0  0  0  0
    5.5462   -1.3966   -0.3500 C   0  0  1  0  0  0  0  0  0  0  0  0
    5.1640   -1.1751    1.1205 C   0  0  0  0  0  0  0  0  0  0  0  0
    6.4389   -2.6418   -0.4522 C   0  0  0  0  0  0  0  0  0  0  0  0
    5.6663   -3.8695    0.0621 C   0  0  2  0  0  0  0  0  0  0  0  0
    4.3852   -4.0841   -0.7887 C   0  0  0  0  0  0  0  0  0  0  0  0
    1.2463   -8.2901    4.2300 C   0  0  0  0  0  0  0  0  0  0  0  0
   -0.5527   -9.5505    4.1924 H   0  0  0  0  0  0  0  0  0  0  0  0
    0.6392  -10.3302    1.7675 H   0  0  0  0  0  0  0  0  0  0  0  0
    4.0388   -7.6617    4.2229 H   0  0  0  0  0  0  0  0  0  0  0  0
    2.1436   -5.5733    3.1294 H   0  0  0  0  0  0  0  0  0  0  0  0
    2.6372   -5.7853    4.7853 H   0  0  0  0  0  0  0  0  0  0  0  0
    3.5073   -3.8464    3.7027 H   0  0  0  0  0  0  0  0  0  0  0  0
    5.7754   -3.8161    4.4256 H   0  0  0  0  0  0  0  0  0  0  0  0
    4.8726   -4.7725    5.5589 H   0  0  0  0  0  0  0  0  0  0  0  0
    7.1844   -5.6825    4.8479 H   0  0  0  0  0  0  0  0  0  0  0  0
    5.8851   -6.8170    4.8186 H   0  0  0  0  0  0  0  0  0  0  0  0
    7.2581   -5.4756    2.4789 H   0  0  0  0  0  0  0  0  0  0  0  0
    7.0559   -7.1798    2.7475 H   0  0  0  0  0  0  0  0  0  0  0  0
    5.6266   -6.3354    0.9270 H   0  0  0  0  0  0  0  0  0  0  0  0
    4.8136   -8.2747    2.0251 H   0  0  0  0  0  0  0  0  0  0  0  0
    3.6547   -7.2302    1.2371 H   0  0  0  0  0  0  0  0  0  0  0  0
    6.1731   -3.4631    2.1328 H   0  0  0  0  0  0  0  0  0  0  0  0
    4.1079   -2.1172    2.6558 H   0  0  0  0  0  0  0  0  0  0  0  0
    2.4916   -3.4215    1.1598 H   0  0  0  0  0  0  0  0  0  0  0  0
    2.4339   -1.7129    0.8612 H   0  0  0  0  0  0  0  0  0  0  0  0
    2.5836   -2.9713   -1.2848 H   0  0  0  0  0  0  0  0  0  0  0  0
    4.5510   -1.7721   -2.2421 H   0  0  0  0  0  0  0  0  0  0  0  0
    3.6396   -0.7235   -1.1656 H   0  0  0  0  0  0  0  0  0  0  0  0
    6.0881   -0.5250   -0.7033 H   0  0  0  0  0  0  0  0  0  0  0  0
    4.5751   -0.2649    1.2318 H   0  0  0  0  0  0  0  0  0  0  0  0
    6.0562   -1.0499    1.7351 H   0  0  0  0  0  0  0  0  0  0  0  0
    6.7407   -2.8158   -1.4825 H   0  0  0  0  0  0  0  0  0  0  0  0
    7.3496   -2.5187    0.1318 H   0  0  0  0  0  0  0  0  0  0  0  0
    6.3682   -4.6915   -0.0827 H   0  0  0  0  0  0  0  0  0  0  0  0
    3.8381   -4.9706   -0.4664 H   0  0  0  0  0  0  0  0  0  0  0  0
    4.6523   -4.2739   -1.8280 H   0  0  0  0  0  0  0  0  0  0  0  0
    1.2146   -7.7163    5.1438 H   0  0  0  0  0  0  0  0  0  0  0  0
    3.7467   -4.9616    1.5577 H   0  0  0  0  0  0  0  0  0  0  0  0
  1 24  2  0
  1  2  1  0
  1 25  1  0
  2  3  2  0
  2 26  1  0
  3  4  1  0
  4  5  1  0
  4 24  1  0
  5 12  1  0
  5  6  1  0
  5 27  1  1
  6  7  1  0
  6 28  1  0
  6 29  1  0
  7 13  1  0
  7  8  1  0
  7 30  1  6
  8  9  1  0
  8 31  1  0
  8 32  1  0
  9 10  1  0
  9 33  1  0
  9 34  1  0
 10 11  1  0
 10 35  1  0
 10 36  1  0
 11 12  1  0
 11 13  1  0
 11 37  1  6
 12 38  1  0
 12 39  1  0
 13 14  1  0
 13 56  1  6
 14 22  1  0
 14 15  1  0
 14 40  1  1
 15 20  1  0
 15 16  1  0
 15 41  1  1
 16 17  1  0
 16 42  1  0
 16 43  1  0
 17 23  1  0
 17 18  1  0
 17 44  1  6
 18 19  1  0
 18 45  1  0
 18 46  1  0
 19 20  1  0
 19 21  1  0
 19 47  1  6
 20 48  1  0
 20 49  1  0
 21 22  1  0
 21 50  1  0
 21 51  1  0
 22 23  1  0
 22 52  1  1
 23 53  1  0
 23 54  1  0
 24 55  1  0
M  CHG  1  13   1
M  END
>  <i_m_ct_stereo_status>  (102) 
1

>  <s_m_source_file>  (102) 
/var/tmp/pbs.5076255.sched01/tmprv8ptrg5/026yimkau.sdf

>  <i_m_source_file_index>  (102) 
45

>  <i_lp_mmshare_version>  (102) 
48012

>  <i_f3d_flags>  (102) 
0

>  <s_epik_input>  (102) 
W2NIXTFbY0hdW2NIXW5uMVtDQEhdKFtDSDJdW0NAQEhdMjMpW0NIMl1bQ0BIXShbQ0gyXVtDSDJdW0NIMl0yKU4zW0NASF0oW0NAQEhdNDUpW0NASF02W0NIMl1bQ0BASF0oW0NIMl01KVtDSDJdW0NAQEhdKFtDSDJdNClbQ0gyXTY=

>  <s_epik_cmdline>  (102) 
J2VwaWtfcHl0aG9uJywgJy1waHQnLCAnMi4wJywgJy1waCcsICc3LjAnLCAnLXRuJywgJzgnLCAnLW1hJywgJzIwMCcsICctaW1hZScsICc8aW5maWxlLm1hZT4nLCAnLW9tYWUnLCAnPG91dGZpbGUubWFlPic=

>  <r_lp_tautomer_probability>  (102) 
1

>  <r_epik_Ionization_Penalty>  (102) 
0.000678804

>  <r_epik_Ionization_Penalty_Charging>  (102) 
0.000655921

>  <r_epik_Ionization_Penalty_Neutral>  (102) 
2.28829e-05

>  <r_epik_State_Penalty>  (102) 
-0

>  <r_epik_Charging_Adjusted_Penalty>  (102) 
0.000655921

>  <i_epik_Tot_Q>  (102) 
1

>  <i_epik_Tot_abs_Q>  (102) 
1

>  <s_lp_Force_Field>  (102) 
OPLS3e

>  <r_lp_Energy>  (102) 
20.381

>  <b_lp_Chiralities_Consistent>  (102) 
1

>  <s_lp_Variant>  (102) 
32:0-1

>  <s_i_glide_gridfile>  (102) 
pfpi4k_grid

>  <i_i_glide_lignum>  (102) 
45

>  <i_i_glide_rotatable_bonds>  (102) 
2

>  <r_i_docking_score>  (102) 
-2.75379

>  <r_i_glide_ligand_efficiency>  (102) 
-0.114741

>  <r_i_glide_ligand_efficiency_sa>  (102) 
-0.330971

>  <r_i_glide_ligand_efficiency_ln>  (102) 
-0.659108

>  <r_i_glide_gscore>  (102) 
-2.75379

>  <r_i_glide_lipo>  (102) 
-0.378097

>  <r_i_glide_hbond>  (102) 
0

>  <r_i_glide_metal>  (102) 
-0

>  <r_i_glide_rewards>  (102) 
-1.18296

>  <r_i_glide_evdw>  (102) 
-24.0376

>  <r_i_glide_ecoul>  (102) 
-2.25034

>  <r_i_glide_erotb>  (102) 
0.351882

>  <r_i_glide_esite>  (102) 
-0.00517734

>  <r_i_glide_emodel>  (102) 
-30.4529

>  <r_i_glide_energy>  (102) 
-26.288

>  <r_i_glide_einternal>  (102) 
2.02687

>  <r_i_glide_intrahb_reward>  (102) 
-0

>  <i_i_glide_confnum>  (102) 
6

>  <i_i_glide_posenum>  (102) 
37

>  <r_i_glide_eff_state_penalty>  (102) 
0

>  <ligand_id>  (102) 
32

>  <original_smiles>  (102) 
c1cnn(C2CC3CCCC(C2)N3C2C3CC4CC(C3)CC2C4)c1

>  <smiles>  (102) 
[H]c1nn(C2([H])C([H])([H])C3([H])C([H])([H])C([H])([H])C([H])([H])C([H])(C2([H])[H])[N+]3([H])C2([H])C3([H])C([H])([H])C4([H])C([H])([H])C([H])(C3([H])[H])C([H])([H])C2([H])C4([H])[H])c([H])c1[H]

$$$$
32:1:0
     RDKit          3D

 56 61  0  0  1  0  0  0  0  0999 V2000
    2.4717  -11.6360    4.4949 C   0  0  0  0  0  0  0  0  0  0  0  0
    1.3581  -10.7519    4.7336 C   0  0  0  0  0  0  0  0  0  0  0  0
    1.1662   -9.9078    3.7356 N   0  0  0  0  0  0  0  0  0  0  0  0
    2.1783  -10.1331    2.8594 N   0  0  0  0  0  0  0  0  0  0  0  0
    2.3458   -9.2654    1.6933 C   0  0  1  0  0  0  0  0  0  0  0  0
    1.6778   -7.8725    1.8681 C   0  0  0  0  0  0  0  0  0  0  0  0
    2.5609   -6.8346    2.5859 C   0  0  1  0  0  0  0  0  0  0  0  0
    2.8456   -7.0252    4.1020 C   0  0  0  0  0  0  0  0  0  0  0  0
    3.9211   -8.0995    4.4833 C   0  0  0  0  0  0  0  0  0  0  0  0
    5.0629   -8.2030    3.4239 C   0  0  0  0  0  0  0  0  0  0  0  0
    4.6221   -7.9496    1.9648 C   0  0  1  0  0  0  0  0  0  0  0  0
    3.8279   -9.0898    1.2617 C   0  0  0  0  0  0  0  0  0  0  0  0
    3.8482   -6.6876    1.8348 N   0  0  2  0  0  0  0  0  0  0  0  0
    4.6241   -5.4306    2.0495 C   0  0  2  0  0  0  0  0  0  0  0  0
    3.7265   -4.1833    2.2214 C   0  0  2  0  0  0  0  0  0  0  0  0
    2.9092   -3.9299    0.9248 C   0  0  0  0  0  0  0  0  0  0  0  0
    3.8845   -3.6912   -0.2420 C   0  0  1  0  0  0  0  0  0  0  0  0
    4.7447   -2.4548    0.0794 C   0  0  0  0  0  0  0  0  0  0  0  0
    5.5585   -2.6923    1.3718 C   0  0  1  0  0  0  0  0  0  0  0  0
    4.5946   -2.9606    2.5438 C   0  0  0  0  0  0  0  0  0  0  0  0
    6.4699   -3.9137    1.1707 C   0  0  0  0  0  0  0  0  0  0  0  0
    5.6079   -5.1617    0.8753 C   0  0  2  0  0  0  0  0  0  0  0  0
    4.8080   -4.9142   -0.4245 C   0  0  0  0  0  0  0  0  0  0  0  0
    2.9142  -11.2310    3.2360 C   0  0  0  0  0  0  0  0  0  0  0  0
    2.9061  -12.3753    5.1197 H   0  0  0  0  0  0  0  0  0  0  0  0
    0.7871  -10.6395    5.6374 H   0  0  0  0  0  0  0  0  0  0  0  0
    1.8559   -9.7811    0.8772 H   0  0  0  0  0  0  0  0  0  0  0  0
    1.4632   -7.4867    0.8602 H   0  0  0  0  0  0  0  0  0  0  0  0
    0.6818   -7.9164    2.3152 H   0  0  0  0  0  0  0  0  0  0  0  0
    1.9448   -5.9382    2.5155 H   0  0  0  0  0  0  0  0  0  0  0  0
    3.1760   -6.0613    4.4800 H   0  0  0  0  0  0  0  0  0  0  0  0
    1.9227   -7.2399    4.6275 H   0  0  0  0  0  0  0  0  0  0  0  0
    4.3604   -7.8173    5.4606 H   0  0  0  0  0  0  0  0  0  0  0  0
    3.4672   -9.0669    4.6146 H   0  0  0  0  0  0  0  0  0  0  0  0
    5.8556   -7.4963    3.6834 H   0  0  0  0  0  0  0  0  0  0  0  0
    5.5239   -9.1794    3.5105 H   0  0  0  0  0  0  0  0  0  0  0  0
    5.5273   -7.8842    1.3763 H   0  0  0  0  0  0  0  0  0  0  0  0
    4.4040  -10.0189    1.2910 H   0  0  0  0  0  0  0  0  0  0  0  0
    3.8178   -8.8591    0.1779 H   0  0  0  0  0  0  0  0  0  0  0  0
    5.2123   -5.5145    2.9730 H   0  0  0  0  0  0  0  0  0  0  0  0
    3.0475   -4.2973    3.0770 H   0  0  0  0  0  0  0  0  0  0  0  0
    2.2805   -4.7829    0.6654 H   0  0  0  0  0  0  0  0  0  0  0  0
    2.2381   -3.0806    1.0495 H   0  0  0  0  0  0  0  0  0  0  0  0
    3.3082   -3.5273   -1.1625 H   0  0  0  0  0  0  0  0  0  0  0  0
    5.4197   -2.2491   -0.7577 H   0  0  0  0  0  0  0  0  0  0  0  0
    4.0873   -1.5764    0.1876 H   0  0  0  0  0  0  0  0  0  0  0  0
    6.1604   -1.8070    1.5993 H   0  0  0  0  0  0  0  0  0  0  0  0
    3.9695   -2.0918    2.7401 H   0  0  0  0  0  0  0  0  0  0  0  0
    5.1632   -3.1446    3.4576 H   0  0  0  0  0  0  0  0  0  0  0  0
    7.1681   -3.7365    0.3668 H   0  0  0  0  0  0  0  0  0  0  0  0
    7.0621   -4.1020    2.0648 H   0  0  0  0  0  0  0  0  0  0  0  0
    6.3026   -5.9862    0.7120 H   0  0  0  0  0  0  0  0  0  0  0  0
    4.2243   -5.8044   -0.7023 H   0  0  0  0  0  0  0  0  0  0  0  0
    5.4793   -4.7422   -1.2688 H   0  0  0  0  0  0  0  0  0  0  0  0
    3.7304  -11.6025    2.6683 H   0  0  0  0  0  0  0  0  0  0  0  0
    3.5694   -6.6315    0.8622 H   0  0  0  0  0  0  0  0  0  0  0  0
  1 24  2  0
  1  2  1  0
  1 25  1  0
  2  3  2  0
  2 26  1  0
  3  4  1  0
  4  5  1  0
  4 24  1  0
  5 12  1  0
  5  6  1  0
  5 27  1  6
  6  7  1  0
  6 28  1  0
  6 29  1  0
  7 13  1  0
  7  8  1  0
  7 30  1  1
  8  9  1  0
  8 31  1  0
  8 32  1  0
  9 10  1  0
  9 33  1  0
  9 34  1  0
 10 11  1  0
 10 35  1  0
 10 36  1  0
 11 12  1  0
 11 13  1  0
 11 37  1  6
 12 38  1  0
 12 39  1  0
 13 14  1  0
 13 56  1  6
 14 22  1  0
 14 15  1  0
 14 40  1  1
 15 20  1  0
 15 16  1  0
 15 41  1  1
 16 17  1  0
 16 42  1  0
 16 43  1  0
 17 23  1  0
 17 18  1  0
 17 44  1  6
 18 19  1  0
 18 45  1  0
 18 46  1  0
 19 20  1  0
 19 21  1  0
 19 47  1  1
 20 48  1  0
 20 49  1  0
 21 22  1  0
 21 50  1  0
 21 51  1  0
 22 23  1  0
 22 52  1  6
 23 53  1  0
 23 54  1  0
 24 55  1  0
M  CHG  1  13   1
M  END
>  <i_m_ct_stereo_status>  (103) 
1

>  <s_m_source_file>  (103) 
/var/tmp/pbs.5076255.sched01/tmp7w47f283/46ruht8ay8.sdf

>  <i_m_source_file_index>  (103) 
1

>  <i_lp_mmshare_version>  (103) 
48012

>  <i_f3d_flags>  (103) 
0

>  <s_epik_input>  (103) 
W2NIXTFbY0hdW2NIXW5uMVtDQEhdKFtDSDJdW0NAQEhdMjMpW0NIMl1bQ0BIXShbQ0gyXVtDSDJdW0NIMl0yKU4zW0NASF0oW0NAQEhdNDUpW0NASF02W0NIMl1bQ0BASF0oW0NIMl01KVtDSDJdW0NAQEhdKFtDSDJdNClbQ0gyXTY=

>  <s_epik_cmdline>  (103) 
J2VwaWtfcHl0aG9uJywgJy1waHQnLCAnMi4wJywgJy1waCcsICc3LjAnLCAnLXRuJywgJzgnLCAnLW1hJywgJzIwMCcsICctaW1hZScsICc8aW5maWxlLm1hZT4nLCAnLW9tYWUnLCAnPG91dGZpbGUubWFlPic=

>  <r_lp_tautomer_probability>  (103) 
1

>  <r_epik_Ionization_Penalty>  (103) 
0.000678804

>  <r_epik_Ionization_Penalty_Charging>  (103) 
0.000655921

>  <r_epik_Ionization_Penalty_Neutral>  (103) 
2.28829e-05

>  <r_epik_State_Penalty>  (103) 
-0

>  <r_epik_Charging_Adjusted_Penalty>  (103) 
0.000655921

>  <i_epik_Tot_Q>  (103) 
1

>  <i_epik_Tot_abs_Q>  (103) 
1

>  <s_lp_Force_Field>  (103) 
OPLS3e

>  <r_lp_Energy>  (103) 
26.2865

>  <b_lp_Chiralities_Consistent>  (103) 
1

>  <s_lp_Variant>  (103) 
32:0-2

>  <s_i_glide_gridfile>  (103) 
pfpi4k_grid

>  <i_i_glide_lignum>  (103) 
1

>  <i_i_glide_rotatable_bonds>  (103) 
2

>  <r_i_docking_score>  (103) 
-2.83505

>  <r_i_glide_ligand_efficiency>  (103) 
-0.118127

>  <r_i_glide_ligand_efficiency_sa>  (103) 
-0.340737

>  <r_i_glide_ligand_efficiency_ln>  (103) 
-0.678557

>  <r_i_glide_gscore>  (103) 
-2.83505

>  <r_i_glide_lipo>  (103) 
-0.350154

>  <r_i_glide_hbond>  (103) 
0

>  <r_i_glide_metal>  (103) 
-0

>  <r_i_glide_rewards>  (103) 
-1.24306

>  <r_i_glide_evdw>  (103) 
-24.2182

>  <r_i_glide_ecoul>  (103) 
-2.55203

>  <r_i_glide_erotb>  (103) 
0.351882

>  <r_i_glide_esite>  (103) 
0

>  <r_i_glide_emodel>  (103) 
-30.7033

>  <r_i_glide_energy>  (103) 
-26.7703

>  <r_i_glide_einternal>  (103) 
0.644998

>  <r_i_glide_intrahb_reward>  (103) 
-0

>  <i_i_glide_confnum>  (103) 
5

>  <i_i_glide_posenum>  (103) 
18

>  <r_i_glide_eff_state_penalty>  (103) 
0

>  <ligand_id>  (103) 
32

>  <original_smiles>  (103) 
c1cnn(C2CC3CCCC(C2)N3C2C3CC4CC(C3)CC2C4)c1

>  <smiles>  (103) 
[H]c1nn(C2([H])C([H])([H])C3([H])C([H])([H])C([H])([H])C([H])([H])C([H])(C2([H])[H])[N+]3([H])C2([H])C3([H])C([H])([H])C4([H])C([H])([H])C([H])(C3([H])[H])C([H])([H])C2([H])C4([H])[H])c([H])c1[H]

$$$$
33:0:0
     RDKit          3D

 58 61  0  0  1  0  0  0  0  0999 V2000
  -12.4276   -9.1398   -8.6050 C   0  0  0  0  0  0  0  0  0  0  0  0
  -10.9913   -8.9071   -8.0987 C   0  0  0  0  0  0  0  0  0  0  0  0
   -9.9195   -8.5746   -9.1899 C   0  0  1  0  0  0  0  0  0  0  0  0
  -10.2540   -6.9373   -9.9387 S   0  0  0  0  0  0  0  0  0  0  0  0
  -10.1353   -5.8910   -8.4654 C   0  0  0  0  0  0  0  0  0  0  0  0
   -8.9796   -6.2480   -7.5435 C   0  0  0  0  0  0  0  0  0  0  0  0
   -8.7082   -5.2184   -6.4623 C   0  0  0  0  0  0  0  0  0  0  0  0
   -8.2770   -7.3991   -7.6099 C   0  0  0  0  0  0  0  0  0  0  0  0
   -8.4624   -8.5405   -8.6203 C   0  0  1  0  0  0  0  0  0  0  0  0
   -7.9388   -9.9361   -8.0951 C   0  0  1  0  0  0  0  0  0  0  0  0
   -8.5432  -11.1050   -8.8837 C   0  0  0  0  0  0  0  0  0  0  0  0
   -9.4202  -10.9822   -9.9080 C   0  0  0  0  0  0  0  0  0  0  0  0
   -9.9059  -12.0562  -10.6160 O   0  0  0  0  0  0  0  0  0  0  0  0
  -10.7164  -12.9566   -9.8723 C   0  0  0  0  0  0  0  0  0  0  0  0
   -9.9699   -9.6648  -10.2744 C   0  0  0  0  0  0  0  0  0  0  0  0
  -10.5173   -9.4527  -11.3609 O   0  0  0  0  0  0  0  0  0  0  0  0
   -8.1151  -12.3639   -8.5452 O   0  0  0  0  0  0  0  0  0  0  0  0
   -6.8454  -12.6689   -8.1958 C   0  0  0  0  0  0  0  0  0  0  0  0
   -6.4376  -13.8296   -8.2451 O   0  0  0  0  0  0  0  0  0  0  0  0
   -5.9241  -11.5433   -7.6584 C   0  0  2  0  0  0  0  0  0  0  0  0
   -4.5060  -11.8485   -8.2174 C   0  0  0  0  0  0  0  0  0  0  0  0
   -5.8955  -11.5563   -6.1007 C   0  0  1  0  0  0  0  0  0  0  0  0
   -5.5611  -12.9281   -5.4610 C   0  0  0  0  0  0  0  0  0  0  0  0
   -4.9568  -10.4614   -5.5314 C   0  0  0  0  0  0  0  0  0  0  0  0
   -4.9830   -9.1501   -6.2944 C   0  0  0  0  0  0  0  0  0  0  0  0
   -4.1995   -8.0164   -5.6559 C   0  0  0  0  0  0  0  0  0  0  0  0
   -5.6192   -9.0250   -7.4725 C   0  0  0  0  0  0  0  0  0  0  0  0
   -6.3961  -10.1405   -8.1553 C   0  0  2  0  0  0  0  0  0  0  0  0
  -13.0691   -9.3621   -7.7587 H   0  0  0  0  0  0  0  0  0  0  0  0
  -12.5083   -9.9926   -9.2780 H   0  0  0  0  0  0  0  0  0  0  0  0
  -12.8350   -8.2626   -9.1095 H   0  0  0  0  0  0  0  0  0  0  0  0
  -11.0455   -8.1157   -7.3593 H   0  0  0  0  0  0  0  0  0  0  0  0
  -10.6912   -9.7875   -7.5297 H   0  0  0  0  0  0  0  0  0  0  0  0
  -10.0392   -4.8579   -8.7879 H   0  0  0  0  0  0  0  0  0  0  0  0
  -11.0739   -5.9496   -7.9141 H   0  0  0  0  0  0  0  0  0  0  0  0
   -9.5949   -5.0630   -5.8471 H   0  0  0  0  0  0  0  0  0  0  0  0
   -8.4293   -4.2598   -6.9014 H   0  0  0  0  0  0  0  0  0  0  0  0
   -7.8977   -5.5378   -5.8078 H   0  0  0  0  0  0  0  0  0  0  0  0
   -7.5098   -7.5380   -6.8651 H   0  0  0  0  0  0  0  0  0  0  0  0
   -7.8116   -8.2641   -9.4534 H   0  0  0  0  0  0  0  0  0  0  0  0
   -8.2820  -10.0491   -7.0654 H   0  0  0  0  0  0  0  0  0  0  0  0
  -10.9177  -13.8357  -10.4829 H   0  0  0  0  0  0  0  0  0  0  0  0
  -11.6702  -12.4849   -9.6380 H   0  0  0  0  0  0  0  0  0  0  0  0
  -10.2762  -13.3092   -8.9412 H   0  0  0  0  0  0  0  0  0  0  0  0
   -3.7637  -11.1126   -7.9178 H   0  0  0  0  0  0  0  0  0  0  0  0
   -4.5275  -11.8861   -9.3066 H   0  0  0  0  0  0  0  0  0  0  0  0
   -4.1310  -12.8221   -7.8966 H   0  0  0  0  0  0  0  0  0  0  0  0
   -6.9119  -11.3047   -5.7951 H   0  0  0  0  0  0  0  0  0  0  0  0
   -4.5882  -13.3009   -5.7767 H   0  0  0  0  0  0  0  0  0  0  0  0
   -6.3049  -13.6895   -5.6837 H   0  0  0  0  0  0  0  0  0  0  0  0
   -5.4959  -12.8746   -4.3759 H   0  0  0  0  0  0  0  0  0  0  0  0
   -5.2069  -10.2203   -4.5028 H   0  0  0  0  0  0  0  0  0  0  0  0
   -3.9253  -10.8201   -5.4940 H   0  0  0  0  0  0  0  0  0  0  0  0
   -3.1644   -8.3183   -5.5043 H   0  0  0  0  0  0  0  0  0  0  0  0
   -4.6231   -7.7445   -4.6906 H   0  0  0  0  0  0  0  0  0  0  0  0
   -4.2027   -7.1339   -6.2927 H   0  0  0  0  0  0  0  0  0  0  0  0
   -5.5670   -8.0813   -8.0057 H   0  0  0  0  0  0  0  0  0  0  0  0
   -6.1330  -10.0604   -9.2074 H   0  0  0  0  0  0  0  0  0  0  0  0
  1  2  1  0
  1 29  1  0
  1 30  1  0
  1 31  1  0
  3  2  1  1
  2 32  1  0
  2 33  1  0
  3  9  1  0
  3 15  1  0
  3  4  1  0
  4  5  1  0
  5  6  1  0
  5 34  1  0
  5 35  1  0
  6  7  1  0
  6  8  2  0
  7 36  1  0
  7 37  1  0
  7 38  1  0
  8  9  1  0
  8 39  1  0
  9 10  1  0
  9 40  1  6
 10 28  1  0
 10 11  1  0
 10 41  1  1
 11 12  2  0
 11 17  1  0
 12 13  1  0
 12 15  1  0
 13 14  1  0
 14 42  1  0
 14 43  1  0
 14 44  1  0
 15 16  2  0
 17 18  1  0
 18 19  2  0
 18 20  1  0
 20 28  1  0
 20 21  1  6
 20 22  1  0
 21 45  1  0
 21 46  1  0
 21 47  1  0
 22 23  1  0
 22 24  1  0
 22 48  1  1
 23 49  1  0
 23 50  1  0
 23 51  1  0
 24 25  1  0
 24 52  1  0
 24 53  1  0
 25 26  1  0
 25 27  2  0
 26 54  1  0
 26 55  1  0
 26 56  1  0
 27 28  1  0
 27 57  1  0
 28 58  1  6
M  END
>  <i_m_ct_stereo_status>  (104) 
1

>  <s_m_source_file>  (104) 
/var/tmp/pbs.5076255.sched01/tmp7w47f283/46ruht8ay8.sdf

>  <i_m_source_file_index>  (104) 
2

>  <i_lp_mmshare_version>  (104) 
48012

>  <i_f3d_flags>  (104) 
0

>  <s_epik_input>  (104) 
UzFbQ0gyXUMoW0NIM10pPVtDSF1bQ0BIXShbQ0BAXTEyW0NIMl1bQ0gzXSlbQ0BIXTNDKD1DKEMyPU8pT1tDSDNdKU9DKD1PKVtDQEBdNChbQ0gzXSlbQ0BASF0zW0NIXT1DKFtDSDNdKVtDSDJdW0NAQEhdNFtDSDNd

>  <s_epik_cmdline>  (104) 
J2VwaWtfcHl0aG9uJywgJy1waHQnLCAnMi4wJywgJy1waCcsICc3LjAnLCAnLXRuJywgJzgnLCAnLW1hJywgJzIwMCcsICctaW1hZScsICc8aW5maWxlLm1hZT4nLCAnLW9tYWUnLCAnPG91dGZpbGUubWFlPic=

>  <r_lp_tautomer_probability>  (104) 
1

>  <r_epik_Ionization_Penalty>  (104) 
0

>  <r_epik_Ionization_Penalty_Charging>  (104) 
0

>  <r_epik_Ionization_Penalty_Neutral>  (104) 
0

>  <r_epik_State_Penalty>  (104) 
-0

>  <r_epik_Charging_Adjusted_Penalty>  (104) 
0

>  <i_epik_Tot_Q>  (104) 
0

>  <i_epik_Tot_abs_Q>  (104) 
0

>  <s_lp_Force_Field>  (104) 
OPLS3e

>  <r_lp_Energy>  (104) 
34.3012

>  <b_lp_Chiralities_Consistent>  (104) 
1

>  <s_lp_Variant>  (104) 
33:0-1

>  <s_i_glide_gridfile>  (104) 
pfpi4k_grid

>  <i_i_glide_lignum>  (104) 
2

>  <i_i_glide_rotatable_bonds>  (104) 
2

>  <r_i_docking_score>  (104) 
-4.04854

>  <r_i_glide_ligand_efficiency>  (104) 
-0.144591

>  <r_i_glide_ligand_efficiency_sa>  (104) 
-0.439062

>  <r_i_glide_ligand_efficiency_ln>  (104) 
-0.934521

>  <r_i_glide_gscore>  (104) 
-4.04854

>  <r_i_glide_lipo>  (104) 
-1.4274

>  <r_i_glide_hbond>  (104) 
0

>  <r_i_glide_metal>  (104) 
-0

>  <r_i_glide_rewards>  (104) 
-1.27138

>  <r_i_glide_evdw>  (104) 
-26.0132

>  <r_i_glide_ecoul>  (104) 
-0.327343

>  <r_i_glide_erotb>  (104) 
0

>  <r_i_glide_esite>  (104) 
0

>  <r_i_glide_emodel>  (104) 
-31.7036

>  <r_i_glide_energy>  (104) 
-26.3405

>  <r_i_glide_einternal>  (104) 
0.782046

>  <r_i_glide_intrahb_reward>  (104) 
-0

>  <i_i_glide_confnum>  (104) 
1

>  <i_i_glide_posenum>  (104) 
36

>  <r_i_glide_eff_state_penalty>  (104) 
0

>  <ligand_id>  (104) 
33

>  <original_smiles>  (104) 
CCC12SCC(C)=CC1C1C(=C(OC)C2=O)OC(=O)C2(C)C(C)CC(C)=CC12

>  <smiles>  (104) 
[H]C1=C(C([H])([H])[H])C([H])([H])SC2(C([H])([H])C([H])([H])[H])C(=O)C(OC([H])([H])[H])=C3OC(=O)C4(C([H])([H])[H])C([H])(C([H])=C(C([H])([H])[H])C([H])([H])C4([H])C([H])([H])[H])C3([H])C12[H]

$$$$
33:0:1
     RDKit          3D

 58 61  0  0  1  0  0  0  0  0999 V2000
    4.5684   -4.1043   -1.2173 C   0  0  0  0  0  0  0  0  0  0  0  0
    3.7179   -4.4011    0.0372 C   0  0  0  0  0  0  0  0  0  0  0  0
    4.5159   -4.7330    1.3423 C   0  0  1  0  0  0  0  0  0  0  0  0
    5.6781   -3.3745    1.7288 S   0  0  0  0  0  0  0  0  0  0  0  0
    4.5023   -2.0069    1.9051 C   0  0  0  0  0  0  0  0  0  0  0  0
    3.2341   -2.3689    2.6654 C   0  0  0  0  0  0  0  0  0  0  0  0
    2.3783   -1.1798    3.0583 C   0  0  0  0  0  0  0  0  0  0  0  0
    2.8463   -3.6320    2.9439 C   0  0  0  0  0  0  0  0  0  0  0  0
    3.5925   -4.9257    2.5933 C   0  0  1  0  0  0  0  0  0  0  0  0
    2.6492   -6.1887    2.5250 C   0  0  1  0  0  0  0  0  0  0  0  0
    3.2780   -7.3254    1.7257 C   0  0  0  0  0  0  0  0  0  0  0  0
    4.4862   -7.2864    1.1283 C   0  0  0  0  0  0  0  0  0  0  0  0
    5.0177   -8.3804    0.4971 O   0  0  0  0  0  0  0  0  0  0  0  0
    5.3409   -9.4677    1.3600 C   0  0  0  0  0  0  0  0  0  0  0  0
    5.2894   -6.0470    1.1213 C   0  0  0  0  0  0  0  0  0  0  0  0
    6.5026   -6.0360    0.8912 O   0  0  0  0  0  0  0  0  0  0  0  0
    2.5240   -8.4630    1.5922 O   0  0  0  0  0  0  0  0  0  0  0  0
    1.8226   -9.0092    2.6095 C   0  0  0  0  0  0  0  0  0  0  0  0
    1.5196  -10.2013    2.6000 O   0  0  0  0  0  0  0  0  0  0  0  0
    1.3185   -8.0793    3.7416 C   0  0  2  0  0  0  0  0  0  0  0  0
    1.3851   -8.9104    5.0579 C   0  0  0  0  0  0  0  0  0  0  0  0
   -0.1488   -7.6269    3.4401 C   0  0  1  0  0  0  0  0  0  0  0  0
   -1.1701   -8.7565    3.1599 C   0  0  0  0  0  0  0  0  0  0  0  0
   -0.7088   -6.7108    4.5441 C   0  0  0  0  0  0  0  0  0  0  0  0
    0.3013   -5.7442    5.1500 C   0  0  0  0  0  0  0  0  0  0  0  0
   -0.2429   -4.7368    6.1482 C   0  0  0  0  0  0  0  0  0  0  0  0
    1.6105   -5.8074    4.8440 C   0  0  0  0  0  0  0  0  0  0  0  0
    2.2313   -6.8171    3.8910 C   0  0  2  0  0  0  0  0  0  0  0  0
    3.9197   -3.8789   -2.0643 H   0  0  0  0  0  0  0  0  0  0  0  0
    5.1859   -4.9548   -1.5050 H   0  0  0  0  0  0  0  0  0  0  0  0
    5.2216   -3.2420   -1.0848 H   0  0  0  0  0  0  0  0  0  0  0  0
    3.0548   -3.5538    0.1943 H   0  0  0  0  0  0  0  0  0  0  0  0
    3.0510   -5.2286   -0.2063 H   0  0  0  0  0  0  0  0  0  0  0  0
    5.0162   -1.1866    2.4050 H   0  0  0  0  0  0  0  0  0  0  0  0
    4.2332   -1.6465    0.9123 H   0  0  0  0  0  0  0  0  0  0  0  0
    2.0769   -0.6125    2.1767 H   0  0  0  0  0  0  0  0  0  0  0  0
    2.9306   -0.5134    3.7220 H   0  0  0  0  0  0  0  0  0  0  0  0
    1.4747   -1.4959    3.5784 H   0  0  0  0  0  0  0  0  0  0  0  0
    1.9112   -3.7448    3.4670 H   0  0  0  0  0  0  0  0  0  0  0  0
    4.2543   -5.0942    3.4449 H   0  0  0  0  0  0  0  0  0  0  0  0
    1.7596   -5.9019    1.9668 H   0  0  0  0  0  0  0  0  0  0  0  0
    5.8437  -10.2492    0.7905 H   0  0  0  0  0  0  0  0  0  0  0  0
    4.4676   -9.9246    1.8205 H   0  0  0  0  0  0  0  0  0  0  0  0
    6.0178   -9.1462    2.1533 H   0  0  0  0  0  0  0  0  0  0  0  0
    1.0524   -8.3519    5.9292 H   0  0  0  0  0  0  0  0  0  0  0  0
    2.4059   -9.2469    5.2654 H   0  0  0  0  0  0  0  0  0  0  0  0
    0.7719   -9.8137    5.0135 H   0  0  0  0  0  0  0  0  0  0  0  0
   -0.1161   -7.0325    2.5273 H   0  0  0  0  0  0  0  0  0  0  0  0
   -1.2554   -9.4447    3.9998 H   0  0  0  0  0  0  0  0  0  0  0  0
   -0.9190   -9.3449    2.2792 H   0  0  0  0  0  0  0  0  0  0  0  0
   -2.1666   -8.3500    2.9832 H   0  0  0  0  0  0  0  0  0  0  0  0
   -1.5594   -6.1769    4.1367 H   0  0  0  0  0  0  0  0  0  0  0  0
   -1.0984   -7.3292    5.3466 H   0  0  0  0  0  0  0  0  0  0  0  0
   -0.7332   -5.2418    6.9799 H   0  0  0  0  0  0  0  0  0  0  0  0
   -0.9587   -4.0670    5.6785 H   0  0  0  0  0  0  0  0  0  0  0  0
    0.5587   -4.1229    6.5579 H   0  0  0  0  0  0  0  0  0  0  0  0
    2.2995   -5.1208    5.3197 H   0  0  0  0  0  0  0  0  0  0  0  0
    3.1509   -7.1373    4.3907 H   0  0  0  0  0  0  0  0  0  0  0  0
  1  2  1  0
  1 29  1  0
  1 30  1  0
  1 31  1  0
  3  2  1  6
  2 32  1  0
  2 33  1  0
  3  9  1  0
  3 15  1  0
  3  4  1  0
  4  5  1  0
  5  6  1  0
  5 34  1  0
  5 35  1  0
  6  7  1  0
  6  8  2  0
  7 36  1  0
  7 37  1  0
  7 38  1  0
  8  9  1  0
  8 39  1  0
  9 10  1  0
  9 40  1  1
 10 28  1  0
 10 11  1  0
 10 41  1  6
 11 12  2  0
 11 17  1  0
 12 13  1  0
 12 15  1  0
 13 14  1  0
 14 42  1  0
 14 43  1  0
 14 44  1  0
 15 16  2  0
 17 18  1  0
 18 19  2  0
 18 20  1  0
 20 28  1  0
 20 21  1  1
 20 22  1  0
 21 45  1  0
 21 46  1  0
 21 47  1  0
 22 23  1  0
 22 24  1  0
 22 48  1  6
 23 49  1  0
 23 50  1  0
 23 51  1  0
 24 25  1  0
 24 52  1  0
 24 53  1  0
 25 26  1  0
 25 27  2  0
 26 54  1  0
 26 55  1  0
 26 56  1  0
 27 28  1  0
 27 57  1  0
 28 58  1  1
M  END
>  <i_m_ct_stereo_status>  (105) 
1

>  <s_m_source_file>  (105) 
/var/tmp/pbs.5076255.sched01/tmp7w47f283/46ruht8ay8.sdf

>  <i_m_source_file_index>  (105) 
2

>  <i_lp_mmshare_version>  (105) 
48012

>  <i_f3d_flags>  (105) 
0

>  <s_epik_input>  (105) 
UzFbQ0gyXUMoW0NIM10pPVtDSF1bQ0BIXShbQ0BAXTEyW0NIMl1bQ0gzXSlbQ0BIXTNDKD1DKEMyPU8pT1tDSDNdKU9DKD1PKVtDQEBdNChbQ0gzXSlbQ0BASF0zW0NIXT1DKFtDSDNdKVtDSDJdW0NAQEhdNFtDSDNd

>  <s_epik_cmdline>  (105) 
J2VwaWtfcHl0aG9uJywgJy1waHQnLCAnMi4wJywgJy1waCcsICc3LjAnLCAnLXRuJywgJzgnLCAnLW1hJywgJzIwMCcsICctaW1hZScsICc8aW5maWxlLm1hZT4nLCAnLW9tYWUnLCAnPG91dGZpbGUubWFlPic=

>  <r_lp_tautomer_probability>  (105) 
1

>  <r_epik_Ionization_Penalty>  (105) 
0

>  <r_epik_Ionization_Penalty_Charging>  (105) 
0

>  <r_epik_Ionization_Penalty_Neutral>  (105) 
0

>  <r_epik_State_Penalty>  (105) 
-0

>  <r_epik_Charging_Adjusted_Penalty>  (105) 
0

>  <i_epik_Tot_Q>  (105) 
0

>  <i_epik_Tot_abs_Q>  (105) 
0

>  <s_lp_Force_Field>  (105) 
OPLS3e

>  <r_lp_Energy>  (105) 
34.3012

>  <b_lp_Chiralities_Consistent>  (105) 
1

>  <s_lp_Variant>  (105) 
33:0-1

>  <s_i_glide_gridfile>  (105) 
pfpi4k_grid

>  <i_i_glide_lignum>  (105) 
2

>  <i_i_glide_rotatable_bonds>  (105) 
2

>  <r_i_docking_score>  (105) 
-2.42768

>  <r_i_glide_ligand_efficiency>  (105) 
-0.086703

>  <r_i_glide_ligand_efficiency_sa>  (105) 
-0.263281

>  <r_i_glide_ligand_efficiency_ln>  (105) 
-0.56038

>  <r_i_glide_gscore>  (105) 
-2.42768

>  <r_i_glide_lipo>  (105) 
-0.252986

>  <r_i_glide_hbond>  (105) 
0

>  <r_i_glide_metal>  (105) 
-0

>  <r_i_glide_rewards>  (105) 
-0.805871

>  <r_i_glide_evdw>  (105) 
-24.9365

>  <r_i_glide_ecoul>  (105) 
-0.813338

>  <r_i_glide_erotb>  (105) 
0

>  <r_i_glide_esite>  (105) 
0

>  <r_i_glide_emodel>  (105) 
-29.1609

>  <r_i_glide_energy>  (105) 
-25.7498

>  <r_i_glide_einternal>  (105) 
0.0584423

>  <r_i_glide_intrahb_reward>  (105) 
-0

>  <i_i_glide_confnum>  (105) 
1

>  <i_i_glide_posenum>  (105) 
16

>  <r_i_glide_eff_state_penalty>  (105) 
0

>  <ligand_id>  (105) 
33

>  <original_smiles>  (105) 
CCC12SCC(C)=CC1C1C(=C(OC)C2=O)OC(=O)C2(C)C(C)CC(C)=CC12

>  <smiles>  (105) 
[H]C1=C(C([H])([H])[H])C([H])([H])SC2(C([H])([H])C([H])([H])[H])C(=O)C(OC([H])([H])[H])=C3OC(=O)C4(C([H])([H])[H])C([H])(C([H])=C(C([H])([H])[H])C([H])([H])C4([H])C([H])([H])[H])C3([H])C12[H]

$$$$
33:0:2
     RDKit          3D

 58 61  0  0  1  0  0  0  0  0999 V2000
    3.4452   -3.4551   -1.5424 C   0  0  0  0  0  0  0  0  0  0  0  0
    2.8511   -3.7651   -0.1514 C   0  0  0  0  0  0  0  0  0  0  0  0
    3.8557   -3.7655    1.0454 C   0  0  1  0  0  0  0  0  0  0  0  0
    4.7411   -2.1708    1.1352 S   0  0  0  0  0  0  0  0  0  0  0  0
    3.3255   -1.0556    1.3511 C   0  0  0  0  0  0  0  0  0  0  0  0
    2.2707   -1.5673    2.3226 C   0  0  0  0  0  0  0  0  0  0  0  0
    1.2306   -0.5450    2.7218 C   0  0  0  0  0  0  0  0  0  0  0  0
    2.2089   -2.8445    2.7693 C   0  0  0  0  0  0  0  0  0  0  0  0
    3.1614   -3.9937    2.4291 C   0  0  1  0  0  0  0  0  0  0  0  0
    2.5149   -5.4159    2.6228 C   0  0  1  0  0  0  0  0  0  0  0  0
    3.2719   -6.4891    1.8365 C   0  0  0  0  0  0  0  0  0  0  0  0
    4.3543   -6.2804    1.0819 C   0  0  0  0  0  0  0  0  0  0  0  0
    5.0345   -7.3064    0.4827 O   0  0  0  0  0  0  0  0  0  0  0  0
    5.6880   -8.1997    1.3746 C   0  0  0  0  0  0  0  0  0  0  0  0
    4.8634   -4.9125    0.8318 C   0  0  0  0  0  0  0  0  0  0  0  0
    5.9962   -4.6796    0.4185 O   0  0  0  0  0  0  0  0  0  0  0  0
    2.7554   -7.7603    1.9067 O   0  0  0  0  0  0  0  0  0  0  0  0
    2.3364   -8.3129    3.0809 C   0  0  0  0  0  0  0  0  0  0  0  0
    2.2887   -9.5296    3.2343 O   0  0  0  0  0  0  0  0  0  0  0  0
    1.7891   -7.3799    4.1811 C   0  0  2  0  0  0  0  0  0  0  0  0
    2.2061   -8.0178    5.5444 C   0  0  0  0  0  0  0  0  0  0  0  0
    0.2324   -7.2765    4.0827 C   0  0  1  0  0  0  0  0  0  0  0  0
   -0.5472   -8.6176    4.0609 C   0  0  0  0  0  0  0  0  0  0  0  0
   -0.3710   -6.3582    5.1714 C   0  0  0  0  0  0  0  0  0  0  0  0
    0.4794   -5.1497    5.5208 C   0  0  0  0  0  0  0  0  0  0  0  0
   -0.1423   -4.1611    6.4872 C   0  0  0  0  0  0  0  0  0  0  0  0
    1.7124   -4.9854    5.0228 C   0  0  0  0  0  0  0  0  0  0  0  0
    2.4150   -5.9535    4.0834 C   0  0  2  0  0  0  0  0  0  0  0  0
    2.6616   -3.4805   -2.3021 H   0  0  0  0  0  0  0  0  0  0  0  0
    4.2046   -4.1791   -1.8408 H   0  0  0  0  0  0  0  0  0  0  0  0
    3.8907   -2.4605   -1.5873 H   0  0  0  0  0  0  0  0  0  0  0  0
    2.0468   -3.0527    0.0225 H   0  0  0  0  0  0  0  0  0  0  0  0
    2.3562   -4.7326   -0.2201 H   0  0  0  0  0  0  0  0  0  0  0  0
    3.6957   -0.0875    1.6878 H   0  0  0  0  0  0  0  0  0  0  0  0
    2.8594   -0.8819    0.3825 H   0  0  0  0  0  0  0  0  0  0  0  0
    0.7043   -0.1604    1.8450 H   0  0  0  0  0  0  0  0  0  0  0  0
    1.6995    0.2973    3.2354 H   0  0  0  0  0  0  0  0  0  0  0  0
    0.4896   -0.9731    3.3980 H   0  0  0  0  0  0  0  0  0  0  0  0
    1.3928   -3.0827    3.4364 H   0  0  0  0  0  0  0  0  0  0  0  0
    3.9467   -3.9208    3.1816 H   0  0  0  0  0  0  0  0  0  0  0  0
    1.5217   -5.3857    2.1782 H   0  0  0  0  0  0  0  0  0  0  0  0
    6.2563   -8.9333    0.8043 H   0  0  0  0  0  0  0  0  0  0  0  0
    5.0068   -8.7685    2.0051 H   0  0  0  0  0  0  0  0  0  0  0  0
    6.3815   -7.6612    2.0159 H   0  0  0  0  0  0  0  0  0  0  0  0
    1.8705   -7.4365    6.4042 H   0  0  0  0  0  0  0  0  0  0  0  0
    3.2935   -8.1097    5.6259 H   0  0  0  0  0  0  0  0  0  0  0  0
    1.8083   -9.0228    5.6736 H   0  0  0  0  0  0  0  0  0  0  0  0
    0.0158   -6.8025    3.1239 H   0  0  0  0  0  0  0  0  0  0  0  0
   -0.3811   -9.2068    4.9601 H   0  0  0  0  0  0  0  0  0  0  0  0
   -0.2820   -9.2425    3.2045 H   0  0  0  0  0  0  0  0  0  0  0  0
   -1.6203   -8.4458    3.9912 H   0  0  0  0  0  0  0  0  0  0  0  0
   -1.3601   -6.0295    4.8454 H   0  0  0  0  0  0  0  0  0  0  0  0
   -0.5234   -6.9261    6.0866 H   0  0  0  0  0  0  0  0  0  0  0  0
   -0.3993   -4.6478    7.4249 H   0  0  0  0  0  0  0  0  0  0  0  0
   -1.0463   -3.7200    6.0723 H   0  0  0  0  0  0  0  0  0  0  0  0
    0.5500   -3.3484    6.7091 H   0  0  0  0  0  0  0  0  0  0  0  0
    2.2992   -4.1195    5.3210 H   0  0  0  0  0  0  0  0  0  0  0  0
    3.4346   -6.0158    4.4660 H   0  0  0  0  0  0  0  0  0  0  0  0
  1  2  1  0
  1 29  1  0
  1 30  1  0
  1 31  1  0
  3  2  1  6
  2 32  1  0
  2 33  1  0
  3  9  1  0
  3 15  1  0
  3  4  1  0
  4  5  1  0
  5  6  1  0
  5 34  1  0
  5 35  1  0
  6  7  1  0
  6  8  2  0
  7 36  1  0
  7 37  1  0
  7 38  1  0
  8  9  1  0
  8 39  1  0
  9 10  1  0
  9 40  1  1
 10 28  1  0
 10 11  1  0
 10 41  1  6
 11 12  2  0
 11 17  1  0
 12 13  1  0
 12 15  1  0
 13 14  1  0
 14 42  1  0
 14 43  1  0
 14 44  1  0
 15 16  2  0
 17 18  1  0
 18 19  2  0
 18 20  1  0
 20 28  1  0
 20 21  1  1
 20 22  1  0
 21 45  1  0
 21 46  1  0
 21 47  1  0
 22 23  1  0
 22 24  1  0
 22 48  1  6
 23 49  1  0
 23 50  1  0
 23 51  1  0
 24 25  1  0
 24 52  1  0
 24 53  1  0
 25 26  1  0
 25 27  2  0
 26 54  1  0
 26 55  1  0
 26 56  1  0
 27 28  1  0
 27 57  1  0
 28 58  1  1
M  END
>  <i_m_ct_stereo_status>  (106) 
1

>  <s_m_source_file>  (106) 
/var/tmp/pbs.5076255.sched01/tmp7w47f283/46ruht8ay8.sdf

>  <i_m_source_file_index>  (106) 
2

>  <i_lp_mmshare_version>  (106) 
48012

>  <i_f3d_flags>  (106) 
0

>  <s_epik_input>  (106) 
UzFbQ0gyXUMoW0NIM10pPVtDSF1bQ0BIXShbQ0BAXTEyW0NIMl1bQ0gzXSlbQ0BIXTNDKD1DKEMyPU8pT1tDSDNdKU9DKD1PKVtDQEBdNChbQ0gzXSlbQ0BASF0zW0NIXT1DKFtDSDNdKVtDSDJdW0NAQEhdNFtDSDNd

>  <s_epik_cmdline>  (106) 
J2VwaWtfcHl0aG9uJywgJy1waHQnLCAnMi4wJywgJy1waCcsICc3LjAnLCAnLXRuJywgJzgnLCAnLW1hJywgJzIwMCcsICctaW1hZScsICc8aW5maWxlLm1hZT4nLCAnLW9tYWUnLCAnPG91dGZpbGUubWFlPic=

>  <r_lp_tautomer_probability>  (106) 
1

>  <r_epik_Ionization_Penalty>  (106) 
0

>  <r_epik_Ionization_Penalty_Charging>  (106) 
0

>  <r_epik_Ionization_Penalty_Neutral>  (106) 
0

>  <r_epik_State_Penalty>  (106) 
-0

>  <r_epik_Charging_Adjusted_Penalty>  (106) 
0

>  <i_epik_Tot_Q>  (106) 
0

>  <i_epik_Tot_abs_Q>  (106) 
0

>  <s_lp_Force_Field>  (106) 
OPLS3e

>  <r_lp_Energy>  (106) 
34.3012

>  <b_lp_Chiralities_Consistent>  (106) 
1

>  <s_lp_Variant>  (106) 
33:0-1

>  <s_i_glide_gridfile>  (106) 
pfpi4k_grid

>  <i_i_glide_lignum>  (106) 
2

>  <i_i_glide_rotatable_bonds>  (106) 
2

>  <r_i_docking_score>  (106) 
-2.3317

>  <r_i_glide_ligand_efficiency>  (106) 
-0.0832749

>  <r_i_glide_ligand_efficiency_sa>  (106) 
-0.252872

>  <r_i_glide_ligand_efficiency_ln>  (106) 
-0.538224

>  <r_i_glide_gscore>  (106) 
-2.3317

>  <r_i_glide_lipo>  (106) 
-0.304672

>  <r_i_glide_hbond>  (106) 
0

>  <r_i_glide_metal>  (106) 
-0

>  <r_i_glide_rewards>  (106) 
-0.737569

>  <r_i_glide_evdw>  (106) 
-24.1778

>  <r_i_glide_ecoul>  (106) 
-0.491055

>  <r_i_glide_erotb>  (106) 
0

>  <r_i_glide_esite>  (106) 
-0.00690711

>  <r_i_glide_emodel>  (106) 
-27.8843

>  <r_i_glide_energy>  (106) 
-24.6689

>  <r_i_glide_einternal>  (106) 
0.0577549

>  <r_i_glide_intrahb_reward>  (106) 
-0

>  <i_i_glide_confnum>  (106) 
2

>  <i_i_glide_posenum>  (106) 
32

>  <r_i_glide_eff_state_penalty>  (106) 
0

>  <ligand_id>  (106) 
33

>  <original_smiles>  (106) 
CCC12SCC(C)=CC1C1C(=C(OC)C2=O)OC(=O)C2(C)C(C)CC(C)=CC12

>  <smiles>  (106) 
[H]C1=C(C([H])([H])[H])C([H])([H])SC2(C([H])([H])C([H])([H])[H])C(=O)C(OC([H])([H])[H])=C3OC(=O)C4(C([H])([H])[H])C([H])(C([H])=C(C([H])([H])[H])C([H])([H])C4([H])C([H])([H])[H])C3([H])C12[H]

$$$$
34:0:0
     RDKit          3D

 59 62  0  0  1  0  0  0  0  0999 V2000
    7.0591   -6.4184    1.7710 C   0  0  0  0  0  0  0  0  0  0  0  0
    5.7903   -5.5898    2.0834 C   0  0  2  0  0  0  0  0  0  0  0  0
    5.6144   -5.4582    3.6172 C   0  0  0  0  0  0  0  0  0  0  0  0
    5.2112   -6.7886    4.2656 C   0  0  0  0  0  0  0  0  0  0  0  0
    5.7725   -7.1415    5.2961 O   0  0  0  0  0  0  0  0  0  0  0  0
    4.1249   -7.6497    3.5658 C   0  0  2  0  0  0  0  0  0  0  0  0
    3.4775   -6.8287    2.4240 C   0  0  2  0  0  0  0  0  0  0  0  0
    2.4265   -7.6630    1.6739 C   0  0  0  0  0  0  0  0  0  0  0  0
    1.3610   -8.1859    2.6111 C   0  0  0  0  0  0  0  0  0  0  0  0
    1.9773   -9.0815    3.7007 C   0  0  2  0  0  0  0  0  0  0  0  0
    0.8668   -9.7141    4.5766 C   0  0  0  0  0  0  0  0  0  0  0  0
    0.2503   -8.7390    5.5864 C   0  0  1  0  0  0  0  0  0  0  0  0
   -0.5930   -9.4512    6.4691 O   0  0  0  0  0  0  0  0  0  0  0  0
    1.3288   -7.9797    6.3900 C   0  0  0  0  0  0  0  0  0  0  0  0
    2.3927   -7.3296    5.4807 C   0  0  0  0  0  0  0  0  0  0  0  0
    3.0873   -8.3503    4.5315 C   0  0  2  0  0  0  0  0  0  0  0  0
    3.8398   -9.4164    5.3785 C   0  0  0  0  0  0  0  0  0  0  0  0
    4.5511   -6.2955    1.4300 C   0  0  1  0  0  0  0  0  0  0  0  0
    4.0198   -5.3078    0.4079 C   0  0  0  0  0  0  0  0  0  0  0  0
    5.2244   -4.4441   -0.0185 C   0  0  0  0  0  0  0  0  0  0  0  0
    5.9612   -4.2370    1.3351 C   0  0  1  0  0  0  0  0  0  0  0  0
    5.3685   -3.0500    2.0179 N   0  0  0  0  0  0  0  0  0  0  0  0
    5.6068   -1.4488    1.3916 S   0  0  0  0  0  0  0  0  0  0  0  0
    4.2025   -1.1600    0.1839 C   0  0  0  0  0  0  0  0  0  0  0  0
    5.4247   -0.5389    2.5284 O   0  0  0  0  0  0  0  0  0  0  0  0
    6.8747   -1.4459    0.6429 O   0  0  0  0  0  0  0  0  0  0  0  0
    7.9463   -5.9589    2.2026 H   0  0  0  0  0  0  0  0  0  0  0  0
    7.2334   -6.4711    0.6963 H   0  0  0  0  0  0  0  0  0  0  0  0
    6.9945   -7.4446    2.1321 H   0  0  0  0  0  0  0  0  0  0  0  0
    6.5408   -5.0920    4.0706 H   0  0  0  0  0  0  0  0  0  0  0  0
    4.8322   -4.7387    3.8618 H   0  0  0  0  0  0  0  0  0  0  0  0
    4.6829   -8.4551    3.0769 H   0  0  0  0  0  0  0  0  0  0  0  0
    2.9667   -5.9599    2.8473 H   0  0  0  0  0  0  0  0  0  0  0  0
    1.9531   -7.0571    0.9042 H   0  0  0  0  0  0  0  0  0  0  0  0
    2.9129   -8.4976    1.1672 H   0  0  0  0  0  0  0  0  0  0  0  0
    0.8338   -7.3467    3.0508 H   0  0  0  0  0  0  0  0  0  0  0  0
    0.6253   -8.7527    2.0316 H   0  0  0  0  0  0  0  0  0  0  0  0
    2.4548   -9.9000    3.1652 H   0  0  0  0  0  0  0  0  0  0  0  0
    0.0750  -10.0990    3.9304 H   0  0  0  0  0  0  0  0  0  0  0  0
    1.2581  -10.5994    5.0864 H   0  0  0  0  0  0  0  0  0  0  0  0
   -0.3658   -8.0149    5.0596 H   0  0  0  0  0  0  0  0  0  0  0  0
   -1.1613  -10.0449    5.9498 H   0  0  0  0  0  0  0  0  0  0  0  0
    0.8540   -7.2049    6.9875 H   0  0  0  0  0  0  0  0  0  0  0  0
    1.8167   -8.6428    7.1015 H   0  0  0  0  0  0  0  0  0  0  0  0
    1.9134   -6.5486    4.8944 H   0  0  0  0  0  0  0  0  0  0  0  0
    3.1293   -6.8198    6.1091 H   0  0  0  0  0  0  0  0  0  0  0  0
    3.1733  -10.1086    5.8862 H   0  0  0  0  0  0  0  0  0  0  0  0
    4.4388   -8.9747    6.1698 H   0  0  0  0  0  0  0  0  0  0  0  0
    4.5046  -10.0209    4.7575 H   0  0  0  0  0  0  0  0  0  0  0  0
    4.9223   -7.1425    0.8421 H   0  0  0  0  0  0  0  0  0  0  0  0
    3.5919   -5.7826   -0.4655 H   0  0  0  0  0  0  0  0  0  0  0  0
    3.2442   -4.6624    0.8387 H   0  0  0  0  0  0  0  0  0  0  0  0
    5.8846   -5.0710   -0.6381 H   0  0  0  0  0  0  0  0  0  0  0  0
    4.9574   -3.5812   -0.5406 H   0  0  0  0  0  0  0  0  0  0  0  0
    7.0204   -4.0078    1.1676 H   0  0  0  0  0  0  0  0  0  0  0  0
    4.4299   -3.1859    2.4054 H   0  0  0  0  0  0  0  0  0  0  0  0
    4.2728   -0.1086   -0.1321 H   0  0  0  0  0  0  0  0  0  0  0  0
    3.2530   -1.3122    0.7401 H   0  0  0  0  0  0  0  0  0  0  0  0
    4.2387   -1.7803   -0.6976 H   0  0  0  0  0  0  0  0  0  0  0  0
  2  1  1  1
  1 27  1  0
  1 28  1  0
  1 29  1  0
  2 18  1  0
  2 21  1  0
  2  3  1  0
  3  4  1  0
  3 30  1  0
  3 31  1  0
  4  5  2  0
  4  6  1  0
  6 16  1  0
  6  7  1  0
  6 32  1  6
  7  8  1  0
  7 18  1  0
  7 33  1  1
  8  9  1  0
  8 34  1  0
  8 35  1  0
  9 10  1  0
  9 36  1  0
  9 37  1  0
 10 16  1  0
 10 11  1  0
 10 38  1  6
 11 12  1  0
 11 39  1  0
 11 40  1  0
 12 13  1  0
 12 14  1  0
 12 41  1  6
 13 42  1  0
 14 15  1  0
 14 43  1  0
 14 44  1  0
 15 16  1  0
 15 45  1  0
 15 46  1  0
 16 17  1  1
 17 47  1  0
 17 48  1  0
 17 49  1  0
 18 19  1  0
 18 50  1  6
 19 20  1  0
 19 51  1  0
 19 52  1  0
 20 21  1  0
 20 53  1  0
 20 54  1  0
 21 22  1  0
 21 55  1  6
 22 23  1  0
 22 56  1  0
 23 24  1  0
 23 25  2  0
 23 26  2  0
 24 57  1  0
 24 58  1  0
 24 59  1  0
M  END
>  <i_m_ct_stereo_status>  (107) 
1

>  <s_m_source_file>  (107) 
/var/tmp/pbs.5076255.sched01/tmp7w47f283/46ruht8ay8.sdf

>  <i_m_source_file_index>  (107) 
3

>  <i_lp_mmshare_version>  (107) 
48012

>  <i_f3d_flags>  (107) 
0

>  <s_epik_input>  (107) 
W0NIM11TKD1PKSg9TylbTkhdW0NAQEhdMVtDSDJdW0NIMl1bQ0BASF0oW0NAQF0xMltDSDNdKVtDQEBIXTNbQ0BASF0oQyg9TylbQ0gyXTIpW0NAXTQoW0NIM10pW0NASF0oW0NIMl1bQ0gyXTMpW0NIMl1bQ0BASF0oW09IXSlbQ0gyXVtDSDJdNA==

>  <s_epik_cmdline>  (107) 
J2VwaWtfcHl0aG9uJywgJy1waHQnLCAnMi4wJywgJy1waCcsICc3LjAnLCAnLXRuJywgJzgnLCAnLW1hJywgJzIwMCcsICctaW1hZScsICc8aW5maWxlLm1hZT4nLCAnLW9tYWUnLCAnPG91dGZpbGUubWFlPic=

>  <r_lp_tautomer_probability>  (107) 
1

>  <r_epik_Ionization_Penalty>  (107) 
7.70466e-06

>  <r_epik_Ionization_Penalty_Charging>  (107) 
0

>  <r_epik_Ionization_Penalty_Neutral>  (107) 
7.70466e-06

>  <r_epik_State_Penalty>  (107) 
-0

>  <r_epik_Charging_Adjusted_Penalty>  (107) 
0

>  <i_epik_Tot_Q>  (107) 
0

>  <i_epik_Tot_abs_Q>  (107) 
0

>  <s_lp_Force_Field>  (107) 
OPLS3e

>  <r_lp_Energy>  (107) 
31.0232

>  <b_lp_Chiralities_Consistent>  (107) 
1

>  <s_lp_Variant>  (107) 
34:0-1

>  <s_i_glide_gridfile>  (107) 
pfpi4k_grid

>  <i_i_glide_lignum>  (107) 
3

>  <i_i_glide_rotatable_bonds>  (107) 
3

>  <r_i_docking_score>  (107) 
-3.56975

>  <r_i_glide_ligand_efficiency>  (107) 
-0.137298

>  <r_i_glide_ligand_efficiency_sa>  (107) 
-0.406745

>  <r_i_glide_ligand_efficiency_ln>  (107) 
-0.838343

>  <r_i_glide_gscore>  (107) 
-3.56975

>  <r_i_glide_lipo>  (107) 
-0.33509

>  <r_i_glide_hbond>  (107) 
-0.16

>  <r_i_glide_metal>  (107) 
-0

>  <r_i_glide_rewards>  (107) 
-0.994003

>  <r_i_glide_evdw>  (107) 
-24.4117

>  <r_i_glide_ecoul>  (107) 
-6.50699

>  <r_i_glide_erotb>  (107) 
0.132102

>  <r_i_glide_esite>  (107) 
-0.0161237

>  <r_i_glide_emodel>  (107) 
-37.4094

>  <r_i_glide_energy>  (107) 
-30.9187

>  <r_i_glide_einternal>  (107) 
1.16778

>  <r_i_glide_intrahb_reward>  (107) 
-0

>  <i_i_glide_confnum>  (107) 
4

>  <i_i_glide_posenum>  (107) 
2

>  <r_i_glide_eff_state_penalty>  (107) 
0

>  <ligand_id>  (107) 
34

>  <original_smiles>  (107) 
CC12CC(=O)C3C(CCC4CC(O)CCC43C)C1CCC2NS(C)(=O)=O

>  <smiles>  (107) 
[H]OC1([H])C([H])([H])C([H])([H])C2(C([H])([H])[H])C3([H])C(=O)C([H])([H])C4(C([H])([H])[H])C([H])(N([H])S(=O)(=O)C([H])([H])[H])C([H])([H])C([H])([H])C4([H])C3([H])C([H])([H])C([H])([H])C2([H])C1([H])[H]

$$$$
34:0:1
     RDKit          3D

 59 62  0  0  1  0  0  0  0  0999 V2000
    6.0314   -5.0320    4.2341 C   0  0  0  0  0  0  0  0  0  0  0  0
    5.1088   -4.8162    3.0033 C   0  0  2  0  0  0  0  0  0  0  0  0
    3.7453   -4.2688    3.4845 C   0  0  0  0  0  0  0  0  0  0  0  0
    2.9525   -5.3049    4.2803 C   0  0  0  0  0  0  0  0  0  0  0  0
    2.3880   -4.9692    5.3169 O   0  0  0  0  0  0  0  0  0  0  0  0
    2.9135   -6.7571    3.7340 C   0  0  2  0  0  0  0  0  0  0  0  0
    3.5396   -6.7954    2.3050 C   0  0  2  0  0  0  0  0  0  0  0  0
    3.5627   -8.2343    1.7629 C   0  0  0  0  0  0  0  0  0  0  0  0
    2.1639   -8.8453    1.7608 C   0  0  0  0  0  0  0  0  0  0  0  0
    1.5763   -8.8997    3.1819 C   0  0  2  0  0  0  0  0  0  0  0  0
    0.2142   -9.6402    3.1748 C   0  0  0  0  0  0  0  0  0  0  0  0
   -0.9412   -8.7789    2.6374 C   0  0  1  0  0  0  0  0  0  0  0  0
   -2.1658   -9.4365    2.8792 O   0  0  0  0  0  0  0  0  0  0  0  0
   -0.9963   -7.3868    3.2775 C   0  0  0  0  0  0  0  0  0  0  0  0
    0.3649   -6.6673    3.2146 C   0  0  0  0  0  0  0  0  0  0  0  0
    1.5136   -7.4897    3.8669 C   0  0  2  0  0  0  0  0  0  0  0  0
    1.1961   -7.7028    5.3777 C   0  0  0  0  0  0  0  0  0  0  0  0
    4.9680   -6.1842    2.2763 C   0  0  1  0  0  0  0  0  0  0  0  0
    5.5338   -5.9752    0.8652 C   0  0  0  0  0  0  0  0  0  0  0  0
    6.4892   -4.7899    0.9706 C   0  0  0  0  0  0  0  0  0  0  0  0
    5.8264   -3.8638    1.9890 C   0  0  1  0  0  0  0  0  0  0  0  0
    4.9360   -2.9091    1.3096 N   0  0  0  0  0  0  0  0  0  0  0  0
    5.3993   -1.2444    1.2535 S   0  0  0  0  0  0  0  0  0  0  0  0
    3.8436   -0.3614    0.8547 C   0  0  0  0  0  0  0  0  0  0  0  0
    5.8030   -0.8477    2.6116 O   0  0  0  0  0  0  0  0  0  0  0  0
    6.3329   -1.0884    0.1285 O   0  0  0  0  0  0  0  0  0  0  0  0
    6.1700   -4.0882    4.7672 H   0  0  0  0  0  0  0  0  0  0  0  0
    7.0208   -5.3706    3.9204 H   0  0  0  0  0  0  0  0  0  0  0  0
    5.6525   -5.7602    4.9515 H   0  0  0  0  0  0  0  0  0  0  0  0
    3.8962   -3.3778    4.0933 H   0  0  0  0  0  0  0  0  0  0  0  0
    3.1273   -3.9681    2.6386 H   0  0  0  0  0  0  0  0  0  0  0  0
    3.5971   -7.3156    4.3758 H   0  0  0  0  0  0  0  0  0  0  0  0
    2.9080   -6.2033    1.6424 H   0  0  0  0  0  0  0  0  0  0  0  0
    3.9555   -8.2527    0.7458 H   0  0  0  0  0  0  0  0  0  0  0  0
    4.2244   -8.8571    2.3689 H   0  0  0  0  0  0  0  0  0  0  0  0
    1.5204   -8.2677    1.0949 H   0  0  0  0  0  0  0  0  0  0  0  0
    2.2182   -9.8514    1.3402 H   0  0  0  0  0  0  0  0  0  0  0  0
    2.2595   -9.5217    3.7621 H   0  0  0  0  0  0  0  0  0  0  0  0
    0.2913  -10.5483    2.5777 H   0  0  0  0  0  0  0  0  0  0  0  0
   -0.0208   -9.9918    4.1770 H   0  0  0  0  0  0  0  0  0  0  0  0
   -0.8268   -8.6468    1.5600 H   0  0  0  0  0  0  0  0  0  0  0  0
   -2.1382   -9.8697    3.7373 H   0  0  0  0  0  0  0  0  0  0  0  0
   -1.7458   -6.8000    2.7507 H   0  0  0  0  0  0  0  0  0  0  0  0
   -1.3346   -7.4545    4.3111 H   0  0  0  0  0  0  0  0  0  0  0  0
    0.6061   -6.4689    2.1717 H   0  0  0  0  0  0  0  0  0  0  0  0
    0.2657   -5.6910    3.6891 H   0  0  0  0  0  0  0  0  0  0  0  0
    0.3860   -8.4062    5.5519 H   0  0  0  0  0  0  0  0  0  0  0  0
    0.8794   -6.7853    5.8709 H   0  0  0  0  0  0  0  0  0  0  0  0
    2.0626   -8.0889    5.9150 H   0  0  0  0  0  0  0  0  0  0  0  0
    5.6295   -6.8943    2.7759 H   0  0  0  0  0  0  0  0  0  0  0  0
    6.0357   -6.8702    0.5017 H   0  0  0  0  0  0  0  0  0  0  0  0
    4.7337   -5.7314    0.1639 H   0  0  0  0  0  0  0  0  0  0  0  0
    7.4388   -5.1402    1.3789 H   0  0  0  0  0  0  0  0  0  0  0  0
    6.7064   -4.3184    0.0123 H   0  0  0  0  0  0  0  0  0  0  0  0
    6.6099   -3.2902    2.4800 H   0  0  0  0  0  0  0  0  0  0  0  0
    4.7237   -3.2407    0.3651 H   0  0  0  0  0  0  0  0  0  0  0  0
    4.0675    0.7058    0.8264 H   0  0  0  0  0  0  0  0  0  0  0  0
    3.1060   -0.5547    1.6294 H   0  0  0  0  0  0  0  0  0  0  0  0
    3.4679   -0.6819   -0.1177 H   0  0  0  0  0  0  0  0  0  0  0  0
  2  1  1  1
  1 27  1  0
  1 28  1  0
  1 29  1  0
  2 18  1  0
  2 21  1  0
  2  3  1  0
  3  4  1  0
  3 30  1  0
  3 31  1  0
  4  5  2  0
  4  6  1  0
  6 16  1  0
  6  7  1  0
  6 32  1  1
  7  8  1  0
  7 18  1  0
  7 33  1  6
  8  9  1  0
  8 34  1  0
  8 35  1  0
  9 10  1  0
  9 36  1  0
  9 37  1  0
 10 16  1  0
 10 11  1  0
 10 38  1  1
 11 12  1  0
 11 39  1  0
 11 40  1  0
 12 13  1  0
 12 14  1  0
 12 41  1  6
 13 42  1  0
 14 15  1  0
 14 43  1  0
 14 44  1  0
 15 16  1  0
 15 45  1  0
 15 46  1  0
 16 17  1  1
 17 47  1  0
 17 48  1  0
 17 49  1  0
 18 19  1  0
 18 50  1  1
 19 20  1  0
 19 51  1  0
 19 52  1  0
 20 21  1  0
 20 53  1  0
 20 54  1  0
 21 22  1  0
 21 55  1  1
 22 23  1  0
 22 56  1  0
 23 24  1  0
 23 25  2  0
 23 26  2  0
 24 57  1  0
 24 58  1  0
 24 59  1  0
M  END
>  <i_m_ct_stereo_status>  (108) 
1

>  <s_m_source_file>  (108) 
/var/tmp/pbs.5076255.sched01/tmp7w47f283/46ruht8ay8.sdf

>  <i_m_source_file_index>  (108) 
3

>  <i_lp_mmshare_version>  (108) 
48012

>  <i_f3d_flags>  (108) 
0

>  <s_epik_input>  (108) 
W0NIM11TKD1PKSg9TylbTkhdW0NAQEhdMVtDSDJdW0NIMl1bQ0BASF0oW0NAQF0xMltDSDNdKVtDQEBIXTNbQ0BASF0oQyg9TylbQ0gyXTIpW0NAXTQoW0NIM10pW0NASF0oW0NIMl1bQ0gyXTMpW0NIMl1bQ0BASF0oW09IXSlbQ0gyXVtDSDJdNA==

>  <s_epik_cmdline>  (108) 
J2VwaWtfcHl0aG9uJywgJy1waHQnLCAnMi4wJywgJy1waCcsICc3LjAnLCAnLXRuJywgJzgnLCAnLW1hJywgJzIwMCcsICctaW1hZScsICc8aW5maWxlLm1hZT4nLCAnLW9tYWUnLCAnPG91dGZpbGUubWFlPic=

>  <r_lp_tautomer_probability>  (108) 
1

>  <r_epik_Ionization_Penalty>  (108) 
7.70466e-06

>  <r_epik_Ionization_Penalty_Charging>  (108) 
0

>  <r_epik_Ionization_Penalty_Neutral>  (108) 
7.70466e-06

>  <r_epik_State_Penalty>  (108) 
-0

>  <r_epik_Charging_Adjusted_Penalty>  (108) 
0

>  <i_epik_Tot_Q>  (108) 
0

>  <i_epik_Tot_abs_Q>  (108) 
0

>  <s_lp_Force_Field>  (108) 
OPLS3e

>  <r_lp_Energy>  (108) 
31.0232

>  <b_lp_Chiralities_Consistent>  (108) 
1

>  <s_lp_Variant>  (108) 
34:0-1

>  <s_i_glide_gridfile>  (108) 
pfpi4k_grid

>  <i_i_glide_lignum>  (108) 
3

>  <i_i_glide_rotatable_bonds>  (108) 
3

>  <r_i_docking_score>  (108) 
-3.37525

>  <r_i_glide_ligand_efficiency>  (108) 
-0.129817

>  <r_i_glide_ligand_efficiency_sa>  (108) 
-0.384583

>  <r_i_glide_ligand_efficiency_ln>  (108) 
-0.792666

>  <r_i_glide_gscore>  (108) 
-3.37525

>  <r_i_glide_lipo>  (108) 
-0.307349

>  <r_i_glide_hbond>  (108) 
-0.16

>  <r_i_glide_metal>  (108) 
-0

>  <r_i_glide_rewards>  (108) 
-0.958752

>  <r_i_glide_evdw>  (108) 
-26.0963

>  <r_i_glide_ecoul>  (108) 
-5.10722

>  <r_i_glide_erotb>  (108) 
0.132102

>  <r_i_glide_esite>  (108) 
-0.0103523

>  <r_i_glide_emodel>  (108) 
-36.5504

>  <r_i_glide_energy>  (108) 
-31.2036

>  <r_i_glide_einternal>  (108) 
3.17932

>  <r_i_glide_intrahb_reward>  (108) 
-0

>  <i_i_glide_confnum>  (108) 
2

>  <i_i_glide_posenum>  (108) 
19

>  <r_i_glide_eff_state_penalty>  (108) 
0

>  <ligand_id>  (108) 
34

>  <original_smiles>  (108) 
CC12CC(=O)C3C(CCC4CC(O)CCC43C)C1CCC2NS(C)(=O)=O

>  <smiles>  (108) 
[H]OC1([H])C([H])([H])C([H])([H])C2(C([H])([H])[H])C3([H])C(=O)C([H])([H])C4(C([H])([H])[H])C([H])(N([H])S(=O)(=O)C([H])([H])[H])C([H])([H])C([H])([H])C4([H])C3([H])C([H])([H])C([H])([H])C2([H])C1([H])[H]

$$$$
34:0:2
     RDKit          3D

 59 62  0  0  1  0  0  0  0  0999 V2000
    5.8739   -5.9107    0.5174 C   0  0  0  0  0  0  0  0  0  0  0  0
    4.8521   -5.0952    1.3398 C   0  0  2  0  0  0  0  0  0  0  0  0
    5.1127   -5.3329    2.8461 C   0  0  0  0  0  0  0  0  0  0  0  0
    4.7208   -6.7543    3.2843 C   0  0  0  0  0  0  0  0  0  0  0  0
    5.4815   -7.3896    4.0112 O   0  0  0  0  0  0  0  0  0  0  0  0
    3.3832   -7.3416    2.7589 C   0  0  2  0  0  0  0  0  0  0  0  0
    2.5740   -6.2192    2.0407 C   0  0  2  0  0  0  0  0  0  0  0  0
    1.2585   -6.7723    1.4662 C   0  0  0  0  0  0  0  0  0  0  0  0
    0.4158   -7.4322    2.5466 C   0  0  0  0  0  0  0  0  0  0  0  0
    1.1748   -8.6049    3.1972 C   0  0  2  0  0  0  0  0  0  0  0  0
    0.2593   -9.3476    4.2044 C   0  0  0  0  0  0  0  0  0  0  0  0
    0.0762   -8.6030    5.5339 C   0  0  1  0  0  0  0  0  0  0  0  0
   -0.5909   -9.4350    6.4659 O   0  0  0  0  0  0  0  0  0  0  0  0
    1.4137   -8.1381    6.1321 C   0  0  0  0  0  0  0  0  0  0  0  0
    2.2803   -7.3699    5.1134 C   0  0  0  0  0  0  0  0  0  0  0  0
    2.5519   -8.1769    3.8098 C   0  0  2  0  0  0  0  0  0  0  0  0
    3.3466   -9.4673    4.1608 C   0  0  0  0  0  0  0  0  0  0  0  0
    3.4146   -5.5404    0.9177 C   0  0  1  0  0  0  0  0  0  0  0  0
    2.7653   -4.3009    0.3175 C   0  0  0  0  0  0  0  0  0  0  0  0
    3.9239   -3.4560   -0.2135 C   0  0  0  0  0  0  0  0  0  0  0  0
    5.0075   -3.6208    0.8724 C   0  0  1  0  0  0  0  0  0  0  0  0
    4.8143   -2.6095    1.9274 N   0  0  0  0  0  0  0  0  0  0  0  0
    5.2238   -0.9548    1.6471 S   0  0  0  0  0  0  0  0  0  0  0  0
    3.6757   -0.1564    1.0236 C   0  0  0  0  0  0  0  0  0  0  0  0
    5.5205   -0.3768    2.9619 O   0  0  0  0  0  0  0  0  0  0  0  0
    6.2333   -0.9115    0.5811 O   0  0  0  0  0  0  0  0  0  0  0  0
    6.9026   -5.6417    0.7648 H   0  0  0  0  0  0  0  0  0  0  0  0
    5.7359   -5.7157   -0.5463 H   0  0  0  0  0  0  0  0  0  0  0  0
    5.7651   -6.9887    0.6622 H   0  0  0  0  0  0  0  0  0  0  0  0
    6.1673   -5.1597    3.0809 H   0  0  0  0  0  0  0  0  0  0  0  0
    4.5346   -4.6395    3.4582 H   0  0  0  0  0  0  0  0  0  0  0  0
    3.6750   -8.0462    1.9779 H   0  0  0  0  0  0  0  0  0  0  0  0
    2.3192   -5.4544    2.7776 H   0  0  0  0  0  0  0  0  0  0  0  0
    0.6865   -5.9736    0.9977 H   0  0  0  0  0  0  0  0  0  0  0  0
    1.4577   -7.5073    0.6882 H   0  0  0  0  0  0  0  0  0  0  0  0
    0.1448   -6.6857    3.2915 H   0  0  0  0  0  0  0  0  0  0  0  0
   -0.5108   -7.7952    2.0968 H   0  0  0  0  0  0  0  0  0  0  0  0
    1.3778   -9.3078    2.3856 H   0  0  0  0  0  0  0  0  0  0  0  0
   -0.7175   -9.5081    3.7446 H   0  0  0  0  0  0  0  0  0  0  0  0
    0.6445  -10.3534    4.3810 H   0  0  0  0  0  0  0  0  0  0  0  0
   -0.5581   -7.7369    5.3622 H   0  0  0  0  0  0  0  0  0  0  0  0
   -1.1696  -10.0322    5.9691 H   0  0  0  0  0  0  0  0  0  0  0  0
    1.2184   -7.4995    6.9929 H   0  0  0  0  0  0  0  0  0  0  0  0
    1.9734   -8.9914    6.5158 H   0  0  0  0  0  0  0  0  0  0  0  0
    1.7724   -6.4369    4.8718 H   0  0  0  0  0  0  0  0  0  0  0  0
    3.2166   -7.0815    5.5995 H   0  0  0  0  0  0  0  0  0  0  0  0
    2.7496  -10.2123    4.6824 H   0  0  0  0  0  0  0  0  0  0  0  0
    4.1864   -9.2720    4.8258 H   0  0  0  0  0  0  0  0  0  0  0  0
    3.7365   -9.9535    3.2651 H   0  0  0  0  0  0  0  0  0  0  0  0
    3.5076   -6.2568    0.0972 H   0  0  0  0  0  0  0  0  0  0  0  0
    2.0598   -4.5242   -0.4762 H   0  0  0  0  0  0  0  0  0  0  0  0
    2.2433   -3.7352    1.0905 H   0  0  0  0  0  0  0  0  0  0  0  0
    4.3071   -3.9179   -1.1359 H   0  0  0  0  0  0  0  0  0  0  0  0
    3.6106   -2.4568   -0.4175 H   0  0  0  0  0  0  0  0  0  0  0  0
    5.9978   -3.4624    0.4496 H   0  0  0  0  0  0  0  0  0  0  0  0
    3.9615   -2.7106    2.4752 H   0  0  0  0  0  0  0  0  0  0  0  0
    3.8896    0.9188    0.9384 H   0  0  0  0  0  0  0  0  0  0  0  0
    2.8840   -0.2994    1.7749 H   0  0  0  0  0  0  0  0  0  0  0  0
    3.3488   -0.5211    0.0532 H   0  0  0  0  0  0  0  0  0  0  0  0
  2  1  1  6
  1 27  1  0
  1 28  1  0
  1 29  1  0
  2 18  1  0
  2 21  1  0
  2  3  1  0
  3  4  1  0
  3 30  1  0
  3 31  1  0
  4  5  2  0
  4  6  1  0
  6 16  1  0
  6  7  1  0
  6 32  1  6
  7  8  1  0
  7 18  1  0
  7 33  1  1
  8  9  1  0
  8 34  1  0
  8 35  1  0
  9 10  1  0
  9 36  1  0
  9 37  1  0
 10 16  1  0
 10 11  1  0
 10 38  1  6
 11 12  1  0
 11 39  1  0
 11 40  1  0
 12 13  1  0
 12 14  1  0
 12 41  1  6
 13 42  1  0
 14 15  1  0
 14 43  1  0
 14 44  1  0
 15 16  1  0
 15 45  1  0
 15 46  1  0
 16 17  1  1
 17 47  1  0
 17 48  1  0
 17 49  1  0
 18 19  1  0
 18 50  1  6
 19 20  1  0
 19 51  1  0
 19 52  1  0
 20 21  1  0
 20 53  1  0
 20 54  1  0
 21 22  1  0
 21 55  1  6
 22 23  1  0
 22 56  1  0
 23 24  1  0
 23 25  2  0
 23 26  2  0
 24 57  1  0
 24 58  1  0
 24 59  1  0
M  END
>  <i_m_ct_stereo_status>  (109) 
1

>  <s_m_source_file>  (109) 
/var/tmp/pbs.5076255.sched01/tmp7w47f283/46ruht8ay8.sdf

>  <i_m_source_file_index>  (109) 
3

>  <i_lp_mmshare_version>  (109) 
48012

>  <i_f3d_flags>  (109) 
0

>  <s_epik_input>  (109) 
W0NIM11TKD1PKSg9TylbTkhdW0NAQEhdMVtDSDJdW0NIMl1bQ0BASF0oW0NAQF0xMltDSDNdKVtDQEBIXTNbQ0BASF0oQyg9TylbQ0gyXTIpW0NAXTQoW0NIM10pW0NASF0oW0NIMl1bQ0gyXTMpW0NIMl1bQ0BASF0oW09IXSlbQ0gyXVtDSDJdNA==

>  <s_epik_cmdline>  (109) 
J2VwaWtfcHl0aG9uJywgJy1waHQnLCAnMi4wJywgJy1waCcsICc3LjAnLCAnLXRuJywgJzgnLCAnLW1hJywgJzIwMCcsICctaW1hZScsICc8aW5maWxlLm1hZT4nLCAnLW9tYWUnLCAnPG91dGZpbGUubWFlPic=

>  <r_lp_tautomer_probability>  (109) 
1

>  <r_epik_Ionization_Penalty>  (109) 
7.70466e-06

>  <r_epik_Ionization_Penalty_Charging>  (109) 
0

>  <r_epik_Ionization_Penalty_Neutral>  (109) 
7.70466e-06

>  <r_epik_State_Penalty>  (109) 
-0

>  <r_epik_Charging_Adjusted_Penalty>  (109) 
0

>  <i_epik_Tot_Q>  (109) 
0

>  <i_epik_Tot_abs_Q>  (109) 
0

>  <s_lp_Force_Field>  (109) 
OPLS3e

>  <r_lp_Energy>  (109) 
31.0232

>  <b_lp_Chiralities_Consistent>  (109) 
1

>  <s_lp_Variant>  (109) 
34:0-1

>  <s_i_glide_gridfile>  (109) 
pfpi4k_grid

>  <i_i_glide_lignum>  (109) 
3

>  <i_i_glide_rotatable_bonds>  (109) 
3

>  <r_i_docking_score>  (109) 
-3.29364

>  <r_i_glide_ligand_efficiency>  (109) 
-0.126679

>  <r_i_glide_ligand_efficiency_sa>  (109) 
-0.375285

>  <r_i_glide_ligand_efficiency_ln>  (109) 
-0.773501

>  <r_i_glide_gscore>  (109) 
-3.29364

>  <r_i_glide_lipo>  (109) 
-0.183726

>  <r_i_glide_hbond>  (109) 
-0.16

>  <r_i_glide_metal>  (109) 
-0

>  <r_i_glide_rewards>  (109) 
-0.962288

>  <r_i_glide_evdw>  (109) 
-26.0401

>  <r_i_glide_ecoul>  (109) 
-5.45149

>  <r_i_glide_erotb>  (109) 
0.132102

>  <r_i_glide_esite>  (109) 
0

>  <r_i_glide_emodel>  (109) 
-37.1923

>  <r_i_glide_energy>  (109) 
-31.4916

>  <r_i_glide_einternal>  (109) 
1.7583

>  <r_i_glide_intrahb_reward>  (109) 
-0

>  <i_i_glide_confnum>  (109) 
2

>  <i_i_glide_posenum>  (109) 
39

>  <r_i_glide_eff_state_penalty>  (109) 
0

>  <ligand_id>  (109) 
34

>  <original_smiles>  (109) 
CC12CC(=O)C3C(CCC4CC(O)CCC43C)C1CCC2NS(C)(=O)=O

>  <smiles>  (109) 
[H]OC1([H])C([H])([H])C([H])([H])C2(C([H])([H])[H])C3([H])C(=O)C([H])([H])C4(C([H])([H])[H])C([H])(N([H])S(=O)(=O)C([H])([H])[H])C([H])([H])C([H])([H])C4([H])C3([H])C([H])([H])C([H])([H])C2([H])C1([H])[H]

$$$$
35:0:0
     RDKit          3D

 30 31  0  0  1  0  0  0  0  0999 V2000
    1.4160   -5.5337   -0.3152 O   0  0  0  0  0  0  0  0  0  0  0  0
    2.6771   -5.6157    0.3246 C   0  0  0  0  0  0  0  0  0  0  0  0
    3.3599   -4.2338    0.4254 C   0  0  2  0  0  0  0  0  0  0  0  0
    2.7889   -3.4399    1.4655 O   0  0  0  0  0  0  0  0  0  0  0  0
    2.6649   -2.1165    1.0259 C   0  0  1  0  0  0  0  0  0  0  0  0
    3.1504   -1.1775    2.0936 N   0  0  0  0  0  0  0  0  0  0  0  0
    4.3226   -1.3703    2.8207 C   0  0  0  0  0  0  0  0  0  0  0  0
    4.4788   -0.2782    3.6407 C   0  0  0  0  0  0  0  0  0  0  0  0
    3.3870    0.5689    3.4801 N   0  0  0  0  0  0  0  0  0  0  0  0
    2.6387   -0.0060    2.5445 C   0  0  0  0  0  0  0  0  0  0  0  0
    1.3624    0.5505    2.0754 C   0  0  0  0  0  0  0  0  0  0  0  0
    0.5061    1.1340    2.8075 N   0  0  0  0  0  0  0  0  0  0  0  0
   -0.6091    1.5593    2.0147 O   0  0  0  0  0  0  0  0  0  0  0  0
    3.4673   -1.9719   -0.2865 C   0  0  1  0  0  0  0  0  0  0  0  0
    4.8184   -1.5883   -0.0959 O   0  0  0  0  0  0  0  0  0  0  0  0
    3.3326   -3.3779   -0.8500 C   0  0  1  0  0  0  0  0  0  0  0  0
    4.3366   -3.7301   -1.7868 O   0  0  0  0  0  0  0  0  0  0  0  0
    1.5715   -5.2551   -1.2130 H   0  0  0  0  0  0  0  0  0  0  0  0
    2.5872   -6.1037    1.3022 H   0  0  0  0  0  0  0  0  0  0  0  0
    3.3040   -6.2675   -0.2872 H   0  0  0  0  0  0  0  0  0  0  0  0
    4.3902   -4.3878    0.7398 H   0  0  0  0  0  0  0  0  0  0  0  0
    1.6063   -1.9356    0.9102 H   0  0  0  0  0  0  0  0  0  0  0  0
    4.9436   -2.2429    2.6713 H   0  0  0  0  0  0  0  0  0  0  0  0
    5.2796   -0.0344    4.3237 H   0  0  0  0  0  0  0  0  0  0  0  0
    1.1819    0.4748    0.9950 H   0  0  0  0  0  0  0  0  0  0  0  0
   -0.2929    1.4751    1.1261 H   0  0  0  0  0  0  0  0  0  0  0  0
    3.0105   -1.2261   -0.9397 H   0  0  0  0  0  0  0  0  0  0  0  0
    4.8453   -0.8204    0.4579 H   0  0  0  0  0  0  0  0  0  0  0  0
    2.3606   -3.4239   -1.3379 H   0  0  0  0  0  0  0  0  0  0  0  0
    4.1127   -4.5711   -2.1679 H   0  0  0  0  0  0  0  0  0  0  0  0
  1  2  1  0
  1 18  1  0
  2  3  1  0
  2 19  1  0
  2 20  1  0
  3 16  1  0
  3  4  1  0
  3 21  1  1
  4  5  1  0
  5  6  1  0
  5 14  1  0
  5 22  1  6
  6 10  1  0
  6  7  1  0
  7  8  2  0
  7 23  1  0
  8  9  1  0
  8 24  1  0
  9 10  2  0
 10 11  1  0
 11 12  2  3
 11 25  1  0
 12 13  1  0
 13 26  1  0
 14 15  1  0
 14 16  1  0
 14 27  1  6
 15 28  1  0
 16 17  1  0
 16 29  1  6
 17 30  1  0
M  END
>  <i_m_ct_stereo_status>  (110) 
1

>  <s_m_source_file>  (110) 
/var/tmp/pbs.5076255.sched01/tmp7w47f283/46ruht8ay8.sdf

>  <i_m_source_file_index>  (110) 
4

>  <i_lp_mmshare_version>  (110) 
48012

>  <i_f3d_flags>  (110) 
0

>  <s_epik_input>  (110) 
W09IXVtDSDJdW0NAQEhdMU9bQ0BIXShbQ0BASF0oW09IXSlbQ0BIXTFbT0hdKW4yW2NIXVtjSF1uYzIvW0NIXT1OL1tPSF0=

>  <s_epik_cmdline>  (110) 
J2VwaWtfcHl0aG9uJywgJy1waHQnLCAnMi4wJywgJy1waCcsICc3LjAnLCAnLXRuJywgJzgnLCAnLW1hJywgJzIwMCcsICctaW1hZScsICc8aW5maWxlLm1hZT4nLCAnLW9tYWUnLCAnPG91dGZpbGUubWFlPic=

>  <r_epik_Ionization_Penalty>  (110) 
0.00964887

>  <r_epik_Ionization_Penalty_Charging>  (110) 
0.00959113

>  <r_epik_Ionization_Penalty_Neutral>  (110) 
5.77405e-05

>  <r_epik_State_Penalty>  (110) 
0.0072916

>  <r_epik_Charging_Adjusted_Penalty>  (110) 
0.0168827

>  <i_epik_Tot_Q>  (110) 
0

>  <i_epik_Tot_abs_Q>  (110) 
0

>  <s_epik_Chemistry_Notes>  (110) 
This compound has an imine and may undergo hydrolysis. This compound contains an acetal/aminal-like group ( X-CH(R)-Y where X, Y are N, S, or O) that may be acid/base labile, releasing an aldehyde.

>  <s_lp_Force_Field>  (110) 
OPLS3e

>  <r_lp_Energy>  (110) 
11.5682

>  <b_lp_Chiralities_Consistent>  (110) 
1

>  <s_lp_Variant>  (110) 
35:0-1

>  <s_i_glide_gridfile>  (110) 
pfpi4k_grid

>  <i_i_glide_lignum>  (110) 
4

>  <i_i_glide_rotatable_bonds>  (110) 
7

>  <r_i_docking_score>  (110) 
-3.49729

>  <r_i_glide_ligand_efficiency>  (110) 
-0.205723

>  <r_i_glide_ligand_efficiency_sa>  (110) 
-0.528971

>  <r_i_glide_ligand_efficiency_ln>  (110) 
-0.912365

>  <r_i_glide_gscore>  (110) 
-3.49729

>  <r_i_glide_lipo>  (110) 
-0.152043

>  <r_i_glide_hbond>  (110) 
-0.0145915

>  <r_i_glide_metal>  (110) 
-0

>  <r_i_glide_rewards>  (110) 
-1.7508

>  <r_i_glide_evdw>  (110) 
-16.865

>  <r_i_glide_ecoul>  (110) 
-11.1834

>  <r_i_glide_erotb>  (110) 
1.17399

>  <r_i_glide_esite>  (110) 
-0.233086

>  <r_i_glide_emodel>  (110) 
-32.1389

>  <r_i_glide_energy>  (110) 
-28.0484

>  <r_i_glide_einternal>  (110) 
7.00956

>  <r_i_glide_intrahb_reward>  (110) 
-0

>  <i_i_glide_confnum>  (110) 
3

>  <i_i_glide_posenum>  (110) 
1

>  <r_i_glide_eff_state_penalty>  (110) 
0

>  <ligand_id>  (110) 
35

>  <original_smiles>  (110) 
OCC1OC(n2ccnc2C=NO)C(O)C1O

>  <smiles>  (110) 
[H]ON=C([H])c1nc([H])c([H])n1C1([H])OC([H])(C([H])([H])O[H])C([H])(O[H])C1([H])O[H]

$$$$
35:0:1
     RDKit          3D

 30 31  0  0  1  0  0  0  0  0999 V2000
    2.8980   -2.9401    3.5455 O   0  0  0  0  0  0  0  0  0  0  0  0
    1.7686   -2.2525    4.0489 C   0  0  0  0  0  0  0  0  0  0  0  0
    1.7626   -0.7900    3.5677 C   0  0  2  0  0  0  0  0  0  0  0  0
    0.7180   -0.0471    4.2126 O   0  0  0  0  0  0  0  0  0  0  0  0
    0.0791    0.8039    3.2942 C   0  0  1  0  0  0  0  0  0  0  0  0
   -0.0164    2.1985    3.8653 N   0  0  0  0  0  0  0  0  0  0  0  0
    0.9540    2.7964    4.6682 C   0  0  0  0  0  0  0  0  0  0  0  0
    0.5510    4.0861    4.9273 C   0  0  0  0  0  0  0  0  0  0  0  0
   -0.6973    4.2923    4.3469 N   0  0  0  0  0  0  0  0  0  0  0  0
   -0.9629    3.1530    3.7038 C   0  0  0  0  0  0  0  0  0  0  0  0
   -2.1900    2.9515    2.9218 C   0  0  0  0  0  0  0  0  0  0  0  0
   -3.1609    3.7646    2.8753 N   0  0  0  0  0  0  0  0  0  0  0  0
   -4.1818    3.2633    2.0116 O   0  0  0  0  0  0  0  0  0  0  0  0
    0.8993    0.7744    2.0013 C   0  0  1  0  0  0  0  0  0  0  0  0
    1.9318    1.7397    1.9893 O   0  0  0  0  0  0  0  0  0  0  0  0
    1.4711   -0.6288    2.0733 C   0  0  1  0  0  0  0  0  0  0  0  0
    2.6117   -0.7833    1.2481 O   0  0  0  0  0  0  0  0  0  0  0  0
    2.8988   -3.8321    3.8588 H   0  0  0  0  0  0  0  0  0  0  0  0
    0.8606   -2.7649    3.7338 H   0  0  0  0  0  0  0  0  0  0  0  0
    1.7960   -2.2954    5.1374 H   0  0  0  0  0  0  0  0  0  0  0  0
    2.7011   -0.2971    3.8244 H   0  0  0  0  0  0  0  0  0  0  0  0
   -0.9320    0.4314    3.1723 H   0  0  0  0  0  0  0  0  0  0  0  0
    1.8544    2.2724    4.9554 H   0  0  0  0  0  0  0  0  0  0  0  0
    1.0601    4.8768    5.4608 H   0  0  0  0  0  0  0  0  0  0  0  0
   -2.2487    2.0368    2.3312 H   0  0  0  0  0  0  0  0  0  0  0  0
   -3.9185    2.3709    1.8693 H   0  0  0  0  0  0  0  0  0  0  0  0
    0.2532    0.9333    1.1323 H   0  0  0  0  0  0  0  0  0  0  0  0
    2.4740    1.6248    2.7548 H   0  0  0  0  0  0  0  0  0  0  0  0
    0.7150   -1.3415    1.7577 H   0  0  0  0  0  0  0  0  0  0  0  0
    2.2952   -0.7022    0.3503 H   0  0  0  0  0  0  0  0  0  0  0  0
  1  2  1  0
  1 18  1  0
  2  3  1  0
  2 19  1  0
  2 20  1  0
  3 16  1  0
  3  4  1  0
  3 21  1  6
  4  5  1  0
  5  6  1  0
  5 14  1  0
  5 22  1  6
  6 10  1  0
  6  7  1  0
  7  8  2  0
  7 23  1  0
  8  9  1  0
  8 24  1  0
  9 10  2  0
 10 11  1  0
 11 12  2  3
 11 25  1  0
 12 13  1  0
 13 26  1  0
 14 15  1  0
 14 16  1  0
 14 27  1  6
 15 28  1  0
 16 17  1  0
 16 29  1  6
 17 30  1  0
M  END
>  <i_m_ct_stereo_status>  (111) 
1

>  <s_m_source_file>  (111) 
/var/tmp/pbs.5076255.sched01/tmp7w47f283/46ruht8ay8.sdf

>  <i_m_source_file_index>  (111) 
4

>  <i_lp_mmshare_version>  (111) 
48012

>  <i_f3d_flags>  (111) 
0

>  <s_epik_input>  (111) 
W09IXVtDSDJdW0NAQEhdMU9bQ0BIXShbQ0BASF0oW09IXSlbQ0BIXTFbT0hdKW4yW2NIXVtjSF1uYzIvW0NIXT1OL1tPSF0=

>  <s_epik_cmdline>  (111) 
J2VwaWtfcHl0aG9uJywgJy1waHQnLCAnMi4wJywgJy1waCcsICc3LjAnLCAnLXRuJywgJzgnLCAnLW1hJywgJzIwMCcsICctaW1hZScsICc8aW5maWxlLm1hZT4nLCAnLW9tYWUnLCAnPG91dGZpbGUubWFlPic=

>  <r_epik_Ionization_Penalty>  (111) 
0.00964887

>  <r_epik_Ionization_Penalty_Charging>  (111) 
0.00959113

>  <r_epik_Ionization_Penalty_Neutral>  (111) 
5.77405e-05

>  <r_epik_State_Penalty>  (111) 
0.0072916

>  <r_epik_Charging_Adjusted_Penalty>  (111) 
0.0168827

>  <i_epik_Tot_Q>  (111) 
0

>  <i_epik_Tot_abs_Q>  (111) 
0

>  <s_epik_Chemistry_Notes>  (111) 
This compound has an imine and may undergo hydrolysis. This compound contains an acetal/aminal-like group ( X-CH(R)-Y where X, Y are N, S, or O) that may be acid/base labile, releasing an aldehyde.

>  <s_lp_Force_Field>  (111) 
OPLS3e

>  <r_lp_Energy>  (111) 
11.5682

>  <b_lp_Chiralities_Consistent>  (111) 
1

>  <s_lp_Variant>  (111) 
35:0-1

>  <s_i_glide_gridfile>  (111) 
pfpi4k_grid

>  <i_i_glide_lignum>  (111) 
4

>  <i_i_glide_rotatable_bonds>  (111) 
7

>  <r_i_docking_score>  (111) 
-3.13278

>  <r_i_glide_ligand_efficiency>  (111) 
-0.184281

>  <r_i_glide_ligand_efficiency_sa>  (111) 
-0.473839

>  <r_i_glide_ligand_efficiency_ln>  (111) 
-0.817272

>  <r_i_glide_gscore>  (111) 
-3.13278

>  <r_i_glide_lipo>  (111) 
-0.00730133

>  <r_i_glide_hbond>  (111) 
-0.126441

>  <r_i_glide_metal>  (111) 
-0

>  <r_i_glide_rewards>  (111) 
-1.7508

>  <r_i_glide_evdw>  (111) 
-18.4025

>  <r_i_glide_ecoul>  (111) 
-8.64276

>  <r_i_glide_erotb>  (111) 
1.17399

>  <r_i_glide_esite>  (111) 
-0.205694

>  <r_i_glide_emodel>  (111) 
-33.3744

>  <r_i_glide_energy>  (111) 
-27.0452

>  <r_i_glide_einternal>  (111) 
1.07807

>  <r_i_glide_intrahb_reward>  (111) 
-0

>  <i_i_glide_confnum>  (111) 
1

>  <i_i_glide_posenum>  (111) 
4

>  <r_i_glide_eff_state_penalty>  (111) 
0

>  <ligand_id>  (111) 
35

>  <original_smiles>  (111) 
OCC1OC(n2ccnc2C=NO)C(O)C1O

>  <smiles>  (111) 
[H]ON=C([H])c1nc([H])c([H])n1C1([H])OC([H])(C([H])([H])O[H])C([H])(O[H])C1([H])O[H]

$$$$
35:0:2
     RDKit          3D

 30 31  0  0  1  0  0  0  0  0999 V2000
    4.5488   -4.2619   -4.3165 O   0  0  0  0  0  0  0  0  0  0  0  0
    3.6073   -3.3151   -3.8518 C   0  0  0  0  0  0  0  0  0  0  0  0
    4.0847   -2.6901   -2.5302 C   0  0  2  0  0  0  0  0  0  0  0  0
    3.6336   -3.4862   -1.4278 O   0  0  0  0  0  0  0  0  0  0  0  0
    3.1696   -2.6732   -0.3906 C   0  0  1  0  0  0  0  0  0  0  0  0
    3.7871   -3.0904    0.9104 N   0  0  0  0  0  0  0  0  0  0  0  0
    4.9603   -3.8349    1.0303 C   0  0  0  0  0  0  0  0  0  0  0  0
    5.2407   -3.9450    2.3721 C   0  0  0  0  0  0  0  0  0  0  0  0
    4.2497   -3.2918    3.0967 N   0  0  0  0  0  0  0  0  0  0  0  0
    3.4170   -2.8028    2.1804 C   0  0  0  0  0  0  0  0  0  0  0  0
    2.2160   -2.0169    2.5271 C   0  0  0  0  0  0  0  0  0  0  0  0
    1.7267   -1.9023    3.6931 N   0  0  0  0  0  0  0  0  0  0  0  0
    0.5778   -1.0472    3.6691 O   0  0  0  0  0  0  0  0  0  0  0  0
    3.5432   -1.2337   -0.7511 C   0  0  1  0  0  0  0  0  0  0  0  0
    4.8193   -0.8420   -0.2714 O   0  0  0  0  0  0  0  0  0  0  0  0
    3.4889   -1.3073   -2.2702 C   0  0  1  0  0  0  0  0  0  0  0  0
    4.1932   -0.2640   -2.9269 O   0  0  0  0  0  0  0  0  0  0  0  0
    4.5305   -4.9897   -3.7031 H   0  0  0  0  0  0  0  0  0  0  0  0
    3.5202   -2.5475   -4.6209 H   0  0  0  0  0  0  0  0  0  0  0  0
    2.6222   -3.7749   -3.7513 H   0  0  0  0  0  0  0  0  0  0  0  0
    5.1706   -2.6262   -2.4877 H   0  0  0  0  0  0  0  0  0  0  0  0
    2.1006   -2.8372   -0.2917 H   0  0  0  0  0  0  0  0  0  0  0  0
    5.4929   -4.1939    0.1626 H   0  0  0  0  0  0  0  0  0  0  0  0
    6.0749   -4.4196    2.8691 H   0  0  0  0  0  0  0  0  0  0  0  0
    1.7294   -1.4824    1.7008 H   0  0  0  0  0  0  0  0  0  0  0  0
    0.6089   -0.6701    2.8055 H   0  0  0  0  0  0  0  0  0  0  0  0
    2.8013   -0.5716   -0.3169 H   0  0  0  0  0  0  0  0  0  0  0  0
    4.8329   -0.8950    0.6725 H   0  0  0  0  0  0  0  0  0  0  0  0
    2.4529   -1.3035   -2.5967 H   0  0  0  0  0  0  0  0  0  0  0  0
    3.7435    0.5474   -2.7186 H   0  0  0  0  0  0  0  0  0  0  0  0
  1  2  1  0
  1 18  1  0
  2  3  1  0
  2 19  1  0
  2 20  1  0
  3 16  1  0
  3  4  1  0
  3 21  1  6
  4  5  1  0
  5  6  1  0
  5 14  1  0
  5 22  1  1
  6 10  1  0
  6  7  1  0
  7  8  2  0
  7 23  1  0
  8  9  1  0
  8 24  1  0
  9 10  2  0
 10 11  1  0
 11 12  2  3
 11 25  1  0
 12 13  1  0
 13 26  1  0
 14 15  1  0
 14 16  1  0
 14 27  1  1
 15 28  1  0
 16 17  1  0
 16 29  1  1
 17 30  1  0
M  END
>  <i_m_ct_stereo_status>  (112) 
1

>  <s_m_source_file>  (112) 
/var/tmp/pbs.5076255.sched01/tmp7w47f283/46ruht8ay8.sdf

>  <i_m_source_file_index>  (112) 
4

>  <i_lp_mmshare_version>  (112) 
48012

>  <i_f3d_flags>  (112) 
0

>  <s_epik_input>  (112) 
W09IXVtDSDJdW0NAQEhdMU9bQ0BIXShbQ0BASF0oW09IXSlbQ0BIXTFbT0hdKW4yW2NIXVtjSF1uYzIvW0NIXT1OL1tPSF0=

>  <s_epik_cmdline>  (112) 
J2VwaWtfcHl0aG9uJywgJy1waHQnLCAnMi4wJywgJy1waCcsICc3LjAnLCAnLXRuJywgJzgnLCAnLW1hJywgJzIwMCcsICctaW1hZScsICc8aW5maWxlLm1hZT4nLCAnLW9tYWUnLCAnPG91dGZpbGUubWFlPic=

>  <r_epik_Ionization_Penalty>  (112) 
0.00964887

>  <r_epik_Ionization_Penalty_Charging>  (112) 
0.00959113

>  <r_epik_Ionization_Penalty_Neutral>  (112) 
5.77405e-05

>  <r_epik_State_Penalty>  (112) 
0.0072916

>  <r_epik_Charging_Adjusted_Penalty>  (112) 
0.0168827

>  <i_epik_Tot_Q>  (112) 
0

>  <i_epik_Tot_abs_Q>  (112) 
0

>  <s_epik_Chemistry_Notes>  (112) 
This compound has an imine and may undergo hydrolysis. This compound contains an acetal/aminal-like group ( X-CH(R)-Y where X, Y are N, S, or O) that may be acid/base labile, releasing an aldehyde.

>  <s_lp_Force_Field>  (112) 
OPLS3e

>  <r_lp_Energy>  (112) 
11.5682

>  <b_lp_Chiralities_Consistent>  (112) 
1

>  <s_lp_Variant>  (112) 
35:0-1

>  <s_i_glide_gridfile>  (112) 
pfpi4k_grid

>  <i_i_glide_lignum>  (112) 
4

>  <i_i_glide_rotatable_bonds>  (112) 
7

>  <r_i_docking_score>  (112) 
-2.91997

>  <r_i_glide_ligand_efficiency>  (112) 
-0.171763

>  <r_i_glide_ligand_efficiency_sa>  (112) 
-0.441651

>  <r_i_glide_ligand_efficiency_ln>  (112) 
-0.761755

>  <r_i_glide_gscore>  (112) 
-2.91997

>  <r_i_glide_lipo>  (112) 
-0.201791

>  <r_i_glide_hbond>  (112) 
0

>  <r_i_glide_metal>  (112) 
-0

>  <r_i_glide_rewards>  (112) 
-1.7508

>  <r_i_glide_evdw>  (112) 
-19.1742

>  <r_i_glide_ecoul>  (112) 
-7.42472

>  <r_i_glide_erotb>  (112) 
1.17399

>  <r_i_glide_esite>  (112) 
-0.0689552

>  <r_i_glide_emodel>  (112) 
-32.195

>  <r_i_glide_energy>  (112) 
-26.599

>  <r_i_glide_einternal>  (112) 
1.72346

>  <r_i_glide_intrahb_reward>  (112) 
-0

>  <i_i_glide_confnum>  (112) 
2

>  <i_i_glide_posenum>  (112) 
3

>  <r_i_glide_eff_state_penalty>  (112) 
0

>  <ligand_id>  (112) 
35

>  <original_smiles>  (112) 
OCC1OC(n2ccnc2C=NO)C(O)C1O

>  <smiles>  (112) 
[H]ON=C([H])c1nc([H])c([H])n1C1([H])OC([H])(C([H])([H])O[H])C([H])(O[H])C1([H])O[H]

$$$$
35:1:0
     RDKit          3D

 30 31  0  0  1  0  0  0  0  0999 V2000
    3.8342   -9.4567    1.2938 O   0  0  0  0  0  0  0  0  0  0  0  0
    4.8432   -8.4498    1.2837 C   0  0  0  0  0  0  0  0  0  0  0  0
    4.2486   -7.1515    0.6967 C   0  0  2  0  0  0  0  0  0  0  0  0
    5.2337   -6.1237    0.5587 O   0  0  0  0  0  0  0  0  0  0  0  0
    4.6936   -4.8844    0.9068 C   0  0  1  0  0  0  0  0  0  0  0  0
    5.0128   -3.8505   -0.1494 N   0  0  0  0  0  0  0  0  0  0  0  0
    5.0684   -4.1172   -1.5171 C   0  0  0  0  0  0  0  0  0  0  0  0
    5.3040   -2.9407   -2.1737 C   0  0  0  0  0  0  0  0  0  0  0  0
    5.4416   -1.9320   -1.2265 N   0  0  0  0  0  0  0  0  0  0  0  0
    5.2283   -2.5368   -0.0370 C   0  0  0  0  0  0  0  0  0  0  0  0
    5.2132   -1.8647    1.2783 C   0  0  0  0  0  0  0  0  0  0  0  0
    5.6259   -0.7228    1.6460 N   0  0  0  0  0  0  0  0  0  0  0  0
    6.2048   -0.0603    0.5258 O   0  0  0  0  0  0  0  0  0  0  0  0
    3.1810   -5.0749    1.0929 C   0  0  1  0  0  0  0  0  0  0  0  0
    2.4375   -4.8671   -0.0999 O   0  0  0  0  0  0  0  0  0  0  0  0
    3.1290   -6.5242    1.5420 C   0  0  1  0  0  0  0  0  0  0  0  0
    1.8463   -7.1055    1.3504 O   0  0  0  0  0  0  0  0  0  0  0  0
    4.2005  -10.3235    1.1414 H   0  0  0  0  0  0  0  0  0  0  0  0
    5.2083   -8.2787    2.2944 H   0  0  0  0  0  0  0  0  0  0  0  0
    5.6951   -8.7906    0.6904 H   0  0  0  0  0  0  0  0  0  0  0  0
    3.9038   -7.3247   -0.3174 H   0  0  0  0  0  0  0  0  0  0  0  0
    5.2105   -4.6005    1.8234 H   0  0  0  0  0  0  0  0  0  0  0  0
    4.9185   -5.1126   -1.8921 H   0  0  0  0  0  0  0  0  0  0  0  0
    5.3678   -2.7511   -3.2388 H   0  0  0  0  0  0  0  0  0  0  0  0
    4.7573   -2.4479    2.0865 H   0  0  0  0  0  0  0  0  0  0  0  0
    6.8410    0.5006    0.9467 H   0  0  0  0  0  0  0  0  0  0  0  0
    2.8002   -4.3930    1.8552 H   0  0  0  0  0  0  0  0  0  0  0  0
    2.8461   -5.3262   -0.8294 H   0  0  0  0  0  0  0  0  0  0  0  0
    3.3924   -6.5878    2.5921 H   0  0  0  0  0  0  0  0  0  0  0  0
    1.9140   -8.0408    1.4968 H   0  0  0  0  0  0  0  0  0  0  0  0
  1  2  1  0
  1 18  1  0
  2  3  1  0
  2 19  1  0
  2 20  1  0
  3 16  1  0
  3  4  1  0
  3 21  1  6
  4  5  1  0
  5  6  1  0
  5 14  1  0
  5 22  1  1
  6 10  1  0
  6  7  1  0
  7  8  2  0
  7 23  1  0
  8  9  1  0
  8 24  1  0
  9 10  2  0
 10 11  1  0
 11 12  2  3
 11 25  1  0
 12 13  1  0
 13 26  1  0
 14 15  1  0
 14 16  1  0
 14 27  1  1
 15 28  1  0
 16 17  1  0
 16 29  1  1
 17 30  1  0
M  END
>  <i_m_ct_stereo_status>  (113) 
1

>  <s_m_source_file>  (113) 
/var/tmp/pbs.5076255.sched01/tmp7w47f283/46ruht8ay8.sdf

>  <i_m_source_file_index>  (113) 
5

>  <i_lp_mmshare_version>  (113) 
48012

>  <i_f3d_flags>  (113) 
0

>  <s_epik_input>  (113) 
W09IXVtDSDJdW0NAQEhdMU9bQ0BIXShbQ0BASF0oW09IXSlbQ0BIXTFbT0hdKW4yW2NIXVtjSF1uYzIvW0NIXT1OL1tPSF0=

>  <s_epik_cmdline>  (113) 
J2VwaWtfcHl0aG9uJywgJy1waHQnLCAnMi4wJywgJy1waCcsICc3LjAnLCAnLXRuJywgJzgnLCAnLW1hJywgJzIwMCcsICctaW1hZScsICc8aW5maWxlLm1hZT4nLCAnLW9tYWUnLCAnPG91dGZpbGUubWFlPic=

>  <r_epik_Ionization_Penalty>  (113) 
0.00964887

>  <r_epik_Ionization_Penalty_Charging>  (113) 
0.00959113

>  <r_epik_Ionization_Penalty_Neutral>  (113) 
5.77405e-05

>  <r_epik_State_Penalty>  (113) 
0.0072916

>  <r_epik_Charging_Adjusted_Penalty>  (113) 
0.0168827

>  <i_epik_Tot_Q>  (113) 
0

>  <i_epik_Tot_abs_Q>  (113) 
0

>  <s_epik_Chemistry_Notes>  (113) 
This compound has an imine and may undergo hydrolysis. This compound contains an acetal/aminal-like group ( X-CH(R)-Y where X, Y are N, S, or O) that may be acid/base labile, releasing an aldehyde.

>  <s_lp_Force_Field>  (113) 
OPLS3e

>  <r_lp_Energy>  (113) 
17.6583

>  <b_lp_Chiralities_Consistent>  (113) 
1

>  <s_lp_Variant>  (113) 
35:0-2

>  <s_i_glide_gridfile>  (113) 
pfpi4k_grid

>  <i_i_glide_lignum>  (113) 
5

>  <i_i_glide_rotatable_bonds>  (113) 
7

>  <r_i_docking_score>  (113) 
-4.28536

>  <r_i_glide_ligand_efficiency>  (113) 
-0.25208

>  <r_i_glide_ligand_efficiency_sa>  (113) 
-0.648168

>  <r_i_glide_ligand_efficiency_ln>  (113) 
-1.11795

>  <r_i_glide_gscore>  (113) 
-4.28536

>  <r_i_glide_lipo>  (113) 
-0.315135

>  <r_i_glide_hbond>  (113) 
-0.288134

>  <r_i_glide_metal>  (113) 
-0

>  <r_i_glide_rewards>  (113) 
-2.48496

>  <r_i_glide_evdw>  (113) 
-15.1158

>  <r_i_glide_ecoul>  (113) 
-10.7689

>  <r_i_glide_erotb>  (113) 
1.17399

>  <r_i_glide_esite>  (113) 
0

>  <r_i_glide_emodel>  (113) 
-38.4926

>  <r_i_glide_energy>  (113) 
-25.8846

>  <r_i_glide_einternal>  (113) 
2.46589

>  <r_i_glide_intrahb_reward>  (113) 
-0.5

>  <i_i_glide_confnum>  (113) 
3

>  <i_i_glide_posenum>  (113) 
25

>  <r_i_glide_eff_state_penalty>  (113) 
0

>  <ligand_id>  (113) 
35

>  <original_smiles>  (113) 
OCC1OC(n2ccnc2C=NO)C(O)C1O

>  <smiles>  (113) 
[H]ON=C([H])c1nc([H])c([H])n1C1([H])OC([H])(C([H])([H])O[H])C([H])(O[H])C1([H])O[H]

$$$$
35:1:1
     RDKit          3D

 30 31  0  0  1  0  0  0  0  0999 V2000
    3.2271   -3.4223    3.6975 O   0  0  0  0  0  0  0  0  0  0  0  0
    2.5898   -2.3904    4.4238 C   0  0  0  0  0  0  0  0  0  0  0  0
    2.4618   -1.1158    3.5696 C   0  0  2  0  0  0  0  0  0  0  0  0
    1.9712   -0.0249    4.3586 O   0  0  0  0  0  0  0  0  0  0  0  0
    1.0208    0.7191    3.6395 C   0  0  1  0  0  0  0  0  0  0  0  0
    1.3446    2.1948    3.7047 N   0  0  0  0  0  0  0  0  0  0  0  0
    2.6342    2.7141    3.6840 C   0  0  0  0  0  0  0  0  0  0  0  0
    2.5425    4.0806    3.6630 C   0  0  0  0  0  0  0  0  0  0  0  0
    1.2033    4.4390    3.6915 N   0  0  0  0  0  0  0  0  0  0  0  0
    0.5331    3.2786    3.7033 C   0  0  0  0  0  0  0  0  0  0  0  0
   -0.9484    3.1564    3.7069 C   0  0  0  0  0  0  0  0  0  0  0  0
   -1.8781    3.9715    3.3990 N   0  0  0  0  0  0  0  0  0  0  0  0
   -1.3518    5.1925    2.8770 O   0  0  0  0  0  0  0  0  0  0  0  0
    1.0453    0.1944    2.1958 C   0  0  1  0  0  0  0  0  0  0  0  0
    1.9817    0.8632    1.3640 O   0  0  0  0  0  0  0  0  0  0  0  0
    1.4480   -1.2442    2.4351 C   0  0  1  0  0  0  0  0  0  0  0  0
    1.9954   -1.8480    1.2825 O   0  0  0  0  0  0  0  0  0  0  0  0
    2.7957   -3.5043    2.8575 H   0  0  0  0  0  0  0  0  0  0  0  0
    1.6069   -2.7392    4.7390 H   0  0  0  0  0  0  0  0  0  0  0  0
    3.1693   -2.1908    5.3263 H   0  0  0  0  0  0  0  0  0  0  0  0
    3.4352   -0.8160    3.1731 H   0  0  0  0  0  0  0  0  0  0  0  0
    0.0711    0.5550    4.1551 H   0  0  0  0  0  0  0  0  0  0  0  0
    3.4898    2.0583    3.6269 H   0  0  0  0  0  0  0  0  0  0  0  0
    3.3332    4.8192    3.5896 H   0  0  0  0  0  0  0  0  0  0  0  0
   -1.3057    2.1907    4.0723 H   0  0  0  0  0  0  0  0  0  0  0  0
   -0.7109    4.8906    2.2381 H   0  0  0  0  0  0  0  0  0  0  0  0
    0.0541    0.3042    1.7582 H   0  0  0  0  0  0  0  0  0  0  0  0
    1.9162    0.5053    0.4885 H   0  0  0  0  0  0  0  0  0  0  0  0
    0.5827   -1.8062    2.7733 H   0  0  0  0  0  0  0  0  0  0  0  0
    1.5469   -1.4751    0.5247 H   0  0  0  0  0  0  0  0  0  0  0  0
  1  2  1  0
  1 18  1  0
  2  3  1  0
  2 19  1  0
  2 20  1  0
  3 16  1  0
  3  4  1  0
  3 21  1  6
  4  5  1  0
  5  6  1  0
  5 14  1  0
  5 22  1  1
  6 10  1  0
  6  7  1  0
  7  8  2  0
  7 23  1  0
  8  9  1  0
  8 24  1  0
  9 10  2  0
 10 11  1  0
 11 12  2  3
 11 25  1  0
 12 13  1  0
 13 26  1  0
 14 15  1  0
 14 16  1  0
 14 27  1  6
 15 28  1  0
 16 17  1  0
 16 29  1  1
 17 30  1  0
M  END
>  <i_m_ct_stereo_status>  (114) 
1

>  <s_m_source_file>  (114) 
/var/tmp/pbs.5076255.sched01/tmp7w47f283/46ruht8ay8.sdf

>  <i_m_source_file_index>  (114) 
5

>  <i_lp_mmshare_version>  (114) 
48012

>  <i_f3d_flags>  (114) 
0

>  <s_epik_input>  (114) 
W09IXVtDSDJdW0NAQEhdMU9bQ0BIXShbQ0BASF0oW09IXSlbQ0BIXTFbT0hdKW4yW2NIXVtjSF1uYzIvW0NIXT1OL1tPSF0=

>  <s_epik_cmdline>  (114) 
J2VwaWtfcHl0aG9uJywgJy1waHQnLCAnMi4wJywgJy1waCcsICc3LjAnLCAnLXRuJywgJzgnLCAnLW1hJywgJzIwMCcsICctaW1hZScsICc8aW5maWxlLm1hZT4nLCAnLW9tYWUnLCAnPG91dGZpbGUubWFlPic=

>  <r_epik_Ionization_Penalty>  (114) 
0.00964887

>  <r_epik_Ionization_Penalty_Charging>  (114) 
0.00959113

>  <r_epik_Ionization_Penalty_Neutral>  (114) 
5.77405e-05

>  <r_epik_State_Penalty>  (114) 
0.0072916

>  <r_epik_Charging_Adjusted_Penalty>  (114) 
0.0168827

>  <i_epik_Tot_Q>  (114) 
0

>  <i_epik_Tot_abs_Q>  (114) 
0

>  <s_epik_Chemistry_Notes>  (114) 
This compound has an imine and may undergo hydrolysis. This compound contains an acetal/aminal-like group ( X-CH(R)-Y where X, Y are N, S, or O) that may be acid/base labile, releasing an aldehyde.

>  <s_lp_Force_Field>  (114) 
OPLS3e

>  <r_lp_Energy>  (114) 
17.6583

>  <b_lp_Chiralities_Consistent>  (114) 
1

>  <s_lp_Variant>  (114) 
35:0-2

>  <s_i_glide_gridfile>  (114) 
pfpi4k_grid

>  <i_i_glide_lignum>  (114) 
5

>  <i_i_glide_rotatable_bonds>  (114) 
7

>  <r_i_docking_score>  (114) 
-4.1679

>  <r_i_glide_ligand_efficiency>  (114) 
-0.245171

>  <r_i_glide_ligand_efficiency_sa>  (114) 
-0.630403

>  <r_i_glide_ligand_efficiency_ln>  (114) 
-1.08731

>  <r_i_glide_gscore>  (114) 
-4.1679

>  <r_i_glide_lipo>  (114) 
0

>  <r_i_glide_hbond>  (114) 
-0.149365

>  <r_i_glide_metal>  (114) 
-0

>  <r_i_glide_rewards>  (114) 
-1.7508

>  <r_i_glide_evdw>  (114) 
-12.67

>  <r_i_glide_ecoul>  (114) 
-13.9034

>  <r_i_glide_erotb>  (114) 
0.821793

>  <r_i_glide_esite>  (114) 
-0.370521

>  <r_i_glide_emodel>  (114) 
-33.8133

>  <r_i_glide_energy>  (114) 
-26.5734

>  <r_i_glide_einternal>  (114) 
3.25834

>  <r_i_glide_intrahb_reward>  (114) 
-0

>  <i_i_glide_confnum>  (114) 
4

>  <i_i_glide_posenum>  (114) 
13

>  <r_i_glide_eff_state_penalty>  (114) 
0

>  <ligand_id>  (114) 
35

>  <original_smiles>  (114) 
OCC1OC(n2ccnc2C=NO)C(O)C1O

>  <smiles>  (114) 
[H]ON=C([H])c1nc([H])c([H])n1C1([H])OC([H])(C([H])([H])O[H])C([H])(O[H])C1([H])O[H]

$$$$
35:1:2
     RDKit          3D

 30 31  0  0  1  0  0  0  0  0999 V2000
    2.9698   -3.5109    3.6868 O   0  0  0  0  0  0  0  0  0  0  0  0
    2.4491   -2.4280    4.4302 C   0  0  0  0  0  0  0  0  0  0  0  0
    2.3448   -1.1544    3.5685 C   0  0  2  0  0  0  0  0  0  0  0  0
    1.8818   -0.0513    4.3577 O   0  0  0  0  0  0  0  0  0  0  0  0
    0.9462    0.7180    3.6470 C   0  0  1  0  0  0  0  0  0  0  0  0
    1.3114    2.1826    3.7090 N   0  0  0  0  0  0  0  0  0  0  0  0
    2.6142    2.6674    3.6942 C   0  0  0  0  0  0  0  0  0  0  0  0
    2.5569    4.0428    3.6658 C   0  0  0  0  0  0  0  0  0  0  0  0
    1.2228    4.4289    3.6874 N   0  0  0  0  0  0  0  0  0  0  0  0
    0.5208    3.2958    3.6921 C   0  0  0  0  0  0  0  0  0  0  0  0
   -0.9600    3.1987    3.6931 C   0  0  0  0  0  0  0  0  0  0  0  0
   -1.8734    4.0404    3.3890 N   0  0  0  0  0  0  0  0  0  0  0  0
   -1.3077    5.2458    2.8718 O   0  0  0  0  0  0  0  0  0  0  0  0
    0.9537    0.1980    2.2026 C   0  0  1  0  0  0  0  0  0  0  0  0
    1.9045    0.8398    1.3655 O   0  0  0  0  0  0  0  0  0  0  0  0
    1.3244   -1.2578    2.4358 C   0  0  1  0  0  0  0  0  0  0  0  0
    1.8614   -1.8513    1.2785 O   0  0  0  0  0  0  0  0  0  0  0  0
    3.7841   -3.2373    3.2914 H   0  0  0  0  0  0  0  0  0  0  0  0
    1.4681   -2.7072    4.8145 H   0  0  0  0  0  0  0  0  0  0  0  0
    3.1062   -2.2575    5.2834 H   0  0  0  0  0  0  0  0  0  0  0  0
    3.3204   -0.8814    3.1598 H   0  0  0  0  0  0  0  0  0  0  0  0
   -0.0009    0.5747    4.1688 H   0  0  0  0  0  0  0  0  0  0  0  0
    3.4531    1.9921    3.6353 H   0  0  0  0  0  0  0  0  0  0  0  0
    3.3635    4.7598    3.5971 H   0  0  0  0  0  0  0  0  0  0  0  0
   -1.3482    2.2458    4.0490 H   0  0  0  0  0  0  0  0  0  0  0  0
   -0.6709    4.9272    2.2295 H   0  0  0  0  0  0  0  0  0  0  0  0
   -0.0374    0.3270    1.7711 H   0  0  0  0  0  0  0  0  0  0  0  0
    1.8531    0.4503    0.5012 H   0  0  0  0  0  0  0  0  0  0  0  0
    0.4441   -1.8006    2.7901 H   0  0  0  0  0  0  0  0  0  0  0  0
    1.4167   -1.4701    0.5172 H   0  0  0  0  0  0  0  0  0  0  0  0
  1  2  1  0
  1 18  1  0
  2  3  1  0
  2 19  1  0
  2 20  1  0
  3 16  1  0
  3  4  1  0
  3 21  1  6
  4  5  1  0
  5  6  1  0
  5 14  1  0
  5 22  1  1
  6 10  1  0
  6  7  1  0
  7  8  2  0
  7 23  1  0
  8  9  1  0
  8 24  1  0
  9 10  2  0
 10 11  1  0
 11 12  2  3
 11 25  1  0
 12 13  1  0
 13 26  1  0
 14 15  1  0
 14 16  1  0
 14 27  1  6
 15 28  1  0
 16 17  1  0
 16 29  1  1
 17 30  1  0
M  END
>  <i_m_ct_stereo_status>  (115) 
1

>  <s_m_source_file>  (115) 
/var/tmp/pbs.5076255.sched01/tmp7w47f283/46ruht8ay8.sdf

>  <i_m_source_file_index>  (115) 
5

>  <i_lp_mmshare_version>  (115) 
48012

>  <i_f3d_flags>  (115) 
0

>  <s_epik_input>  (115) 
W09IXVtDSDJdW0NAQEhdMU9bQ0BIXShbQ0BASF0oW09IXSlbQ0BIXTFbT0hdKW4yW2NIXVtjSF1uYzIvW0NIXT1OL1tPSF0=

>  <s_epik_cmdline>  (115) 
J2VwaWtfcHl0aG9uJywgJy1waHQnLCAnMi4wJywgJy1waCcsICc3LjAnLCAnLXRuJywgJzgnLCAnLW1hJywgJzIwMCcsICctaW1hZScsICc8aW5maWxlLm1hZT4nLCAnLW9tYWUnLCAnPG91dGZpbGUubWFlPic=

>  <r_epik_Ionization_Penalty>  (115) 
0.00964887

>  <r_epik_Ionization_Penalty_Charging>  (115) 
0.00959113

>  <r_epik_Ionization_Penalty_Neutral>  (115) 
5.77405e-05

>  <r_epik_State_Penalty>  (115) 
0.0072916

>  <r_epik_Charging_Adjusted_Penalty>  (115) 
0.0168827

>  <i_epik_Tot_Q>  (115) 
0

>  <i_epik_Tot_abs_Q>  (115) 
0

>  <s_epik_Chemistry_Notes>  (115) 
This compound has an imine and may undergo hydrolysis. This compound contains an acetal/aminal-like group ( X-CH(R)-Y where X, Y are N, S, or O) that may be acid/base labile, releasing an aldehyde.

>  <s_lp_Force_Field>  (115) 
OPLS3e

>  <r_lp_Energy>  (115) 
17.6583

>  <b_lp_Chiralities_Consistent>  (115) 
1

>  <s_lp_Variant>  (115) 
35:0-2

>  <s_i_glide_gridfile>  (115) 
pfpi4k_grid

>  <i_i_glide_lignum>  (115) 
5

>  <i_i_glide_rotatable_bonds>  (115) 
7

>  <r_i_docking_score>  (115) 
-4.14591

>  <r_i_glide_ligand_efficiency>  (115) 
-0.243877

>  <r_i_glide_ligand_efficiency_sa>  (115) 
-0.627077

>  <r_i_glide_ligand_efficiency_ln>  (115) 
-1.08158

>  <r_i_glide_gscore>  (115) 
-4.14591

>  <r_i_glide_lipo>  (115) 
0

>  <r_i_glide_hbond>  (115) 
-0.148165

>  <r_i_glide_metal>  (115) 
-0

>  <r_i_glide_rewards>  (115) 
-1.7508

>  <r_i_glide_evdw>  (115) 
-11.5555

>  <r_i_glide_ecoul>  (115) 
-14.0905

>  <r_i_glide_erotb>  (115) 
0.821793

>  <r_i_glide_esite>  (115) 
-0.377393

>  <r_i_glide_emodel>  (115) 
-32.8358

>  <r_i_glide_energy>  (115) 
-25.646

>  <r_i_glide_einternal>  (115) 
3.23153

>  <r_i_glide_intrahb_reward>  (115) 
-0

>  <i_i_glide_confnum>  (115) 
4

>  <i_i_glide_posenum>  (115) 
2

>  <r_i_glide_eff_state_penalty>  (115) 
0

>  <ligand_id>  (115) 
35

>  <original_smiles>  (115) 
OCC1OC(n2ccnc2C=NO)C(O)C1O

>  <smiles>  (115) 
[H]ON=C([H])c1nc([H])c([H])n1C1([H])OC([H])(C([H])([H])O[H])C([H])(O[H])C1([H])O[H]

$$$$
35:2:0
     RDKit          3D

 31 32  0  0  1  0  0  0  0  0999 V2000
    1.4121   -5.5439   -0.3154 O   0  0  0  0  0  0  0  0  0  0  0  0
    2.6813   -5.6273    0.3057 C   0  0  0  0  0  0  0  0  0  0  0  0
    3.4079   -4.2663    0.3236 C   0  0  2  0  0  0  0  0  0  0  0  0
    2.9014   -3.4488    1.3718 O   0  0  0  0  0  0  0  0  0  0  0  0
    2.7804   -2.1339    0.9235 C   0  0  1  0  0  0  0  0  0  0  0  0
    3.3771   -1.2248    1.9469 N   0  0  0  0  0  0  0  0  0  0  0  0
    4.5959   -1.3835    2.5711 C   0  0  0  0  0  0  0  0  0  0  0  0
    4.8571   -0.2732    3.3624 C   0  0  0  0  0  0  0  0  0  0  0  0
    3.7680    0.5634    3.2762 N   0  0  0  0  0  0  0  0  0  0  0  0
    2.9465   -0.0315    2.4362 C   0  0  0  0  0  0  0  0  0  0  0  0
    1.6749    0.6580    2.0596 C   0  0  0  0  0  0  0  0  0  0  0  0
    1.3439    1.8097    2.4966 N   0  0  0  0  0  0  0  0  0  0  0  0
    0.0604    2.1445    1.9394 O   0  0  0  0  0  0  0  0  0  0  0  0
    3.5036   -2.0249   -0.4405 C   0  0  1  0  0  0  0  0  0  0  0  0
    4.8786   -1.6601   -0.3717 O   0  0  0  0  0  0  0  0  0  0  0  0
    3.3081   -3.4287   -0.9629 C   0  0  1  0  0  0  0  0  0  0  0  0
    4.2368   -3.8109   -1.9617 O   0  0  0  0  0  0  0  0  0  0  0  0
    1.5686   -5.2732   -1.2056 H   0  0  0  0  0  0  0  0  0  0  0  0
    2.6073   -6.0630    1.3086 H   0  0  0  0  0  0  0  0  0  0  0  0
    3.2986   -6.3021   -0.2926 H   0  0  0  0  0  0  0  0  0  0  0  0
    4.4594   -4.4286    0.5714 H   0  0  0  0  0  0  0  0  0  0  0  0
    1.7166   -1.9227    0.8889 H   0  0  0  0  0  0  0  0  0  0  0  0
    5.2062   -2.2531    2.3563 H   0  0  0  0  0  0  0  0  0  0  0  0
    5.7321   -0.0422    3.9395 H   0  0  0  0  0  0  0  0  0  0  0  0
    1.0221    0.1378    1.3502 H   0  0  0  0  0  0  0  0  0  0  0  0
    0.1926    3.0484    1.5930 H   0  0  0  0  0  0  0  0  0  0  0  0
    3.0062   -1.2813   -1.0548 H   0  0  0  0  0  0  0  0  0  0  0  0
    4.9501   -0.8648    0.1292 H   0  0  0  0  0  0  0  0  0  0  0  0
    2.3025   -3.4460   -1.3795 H   0  0  0  0  0  0  0  0  0  0  0  0
    3.9364   -4.6342   -2.3285 H   0  0  0  0  0  0  0  0  0  0  0  0
    3.6332    1.4871    3.6760 H   0  0  0  0  0  0  0  0  0  0  0  0
  1  2  1  0
  1 18  1  0
  2  3  1  0
  2 19  1  0
  2 20  1  0
  3 16  1  0
  3  4  1  0
  3 21  1  1
  4  5  1  0
  5  6  1  0
  5 14  1  0
  5 22  1  6
  6 10  1  0
  6  7  1  0
  7  8  2  0
  7 23  1  0
  8  9  1  0
  8 24  1  0
  9 10  2  0
  9 31  1  0
 10 11  1  0
 11 12  2  3
 11 25  1  0
 12 13  1  0
 13 26  1  0
 14 15  1  0
 14 16  1  0
 14 27  1  6
 15 28  1  0
 16 17  1  0
 16 29  1  6
 17 30  1  0
M  CHG  1   9   1
M  END
>  <i_m_ct_stereo_status>  (116) 
1

>  <s_m_source_file>  (116) 
/var/tmp/pbs.5076255.sched01/tmp7w47f283/46ruht8ay8.sdf

>  <i_m_source_file_index>  (116) 
6

>  <i_lp_mmshare_version>  (116) 
48012

>  <i_f3d_flags>  (116) 
0

>  <s_epik_input>  (116) 
W09IXVtDSDJdW0NAQEhdMU9bQ0BIXShbQ0BASF0oW09IXSlbQ0BIXTFbT0hdKW4yW2NIXVtjSF1uYzIvW0NIXT1OL1tPSF0=

>  <s_epik_cmdline>  (116) 
J2VwaWtfcHl0aG9uJywgJy1waHQnLCAnMi4wJywgJy1waCcsICc3LjAnLCAnLXRuJywgJzgnLCAnLW1hJywgJzIwMCcsICctaW1hZScsICc8aW5maWxlLm1hZT4nLCAnLW9tYWUnLCAnPG91dGZpbGUubWFlPic=

>  <r_epik_Ionization_Penalty>  (116) 
2.44808

>  <r_epik_Ionization_Penalty_Charging>  (116) 
0

>  <r_epik_Ionization_Penalty_Neutral>  (116) 
2.44808

>  <r_epik_State_Penalty>  (116) 
2.60916

>  <r_epik_Charging_Adjusted_Penalty>  (116) 
2.60916

>  <i_epik_Tot_Q>  (116) 
1

>  <i_epik_Tot_abs_Q>  (116) 
1

>  <s_epik_Chemistry_Notes>  (116) 
This compound has an imine and may undergo hydrolysis. This compound contains an acetal/aminal-like group ( X-CH(R)-Y where X, Y are N, S, or O) that may be acid/base labile, releasing an aldehyde.

>  <s_lp_Force_Field>  (116) 
OPLS3e

>  <r_lp_Energy>  (116) 
11.3952

>  <b_lp_Chiralities_Consistent>  (116) 
1

>  <s_lp_Variant>  (116) 
35:0-3

>  <s_i_glide_gridfile>  (116) 
pfpi4k_grid

>  <i_i_glide_lignum>  (116) 
6

>  <i_i_glide_rotatable_bonds>  (116) 
7

>  <r_i_docking_score>  (116) 
-4.80448

>  <r_i_glide_ligand_efficiency>  (116) 
-0.282617

>  <r_i_glide_ligand_efficiency_sa>  (116) 
-0.726687

>  <r_i_glide_ligand_efficiency_ln>  (116) 
-1.25338

>  <r_i_glide_gscore>  (116) 
-4.80448

>  <r_i_glide_lipo>  (116) 
-0.223498

>  <r_i_glide_hbond>  (116) 
-0.142591

>  <r_i_glide_metal>  (116) 
-0

>  <r_i_glide_rewards>  (116) 
-1.74619

>  <r_i_glide_evdw>  (116) 
-14.05

>  <r_i_glide_ecoul>  (116) 
-19.4793

>  <r_i_glide_erotb>  (116) 
1.16572

>  <r_i_glide_esite>  (116) 
-0.23354

>  <r_i_glide_emodel>  (116) 
-41.5236

>  <r_i_glide_energy>  (116) 
-33.5292

>  <r_i_glide_einternal>  (116) 
6.98496

>  <r_i_glide_intrahb_reward>  (116) 
-0

>  <i_i_glide_confnum>  (116) 
3

>  <i_i_glide_posenum>  (116) 
36

>  <r_i_glide_eff_state_penalty>  (116) 
0

>  <ligand_id>  (116) 
35

>  <original_smiles>  (116) 
OCC1OC(n2ccnc2C=NO)C(O)C1O

>  <smiles>  (116) 
[H]ON=C([H])c1n(C2([H])OC([H])(C([H])([H])O[H])C([H])(O[H])C2([H])O[H])c([H])c([H])[n+]1[H]

$$$$
35:2:1
     RDKit          3D

 31 32  0  0  1  0  0  0  0  0999 V2000
    3.5761   -3.8560   -3.9246 O   0  0  0  0  0  0  0  0  0  0  0  0
    2.8541   -2.9444   -3.1482 C   0  0  0  0  0  0  0  0  0  0  0  0
    3.7204   -2.5559   -1.9462 C   0  0  2  0  0  0  0  0  0  0  0  0
    3.2001   -3.1555   -0.7556 O   0  0  0  0  0  0  0  0  0  0  0  0
    3.2413   -2.2407    0.3002 C   0  0  1  0  0  0  0  0  0  0  0  0
    3.8927   -2.8848    1.4969 N   0  0  0  0  0  0  0  0  0  0  0  0
    4.5485   -4.1012    1.5393 C   0  0  0  0  0  0  0  0  0  0  0  0
    5.0814   -4.2863    2.8113 C   0  0  0  0  0  0  0  0  0  0  0  0
    4.7338   -3.1909    3.5823 N   0  0  0  0  0  0  0  0  0  0  0  0
    4.0232   -2.4169    2.7659 C   0  0  0  0  0  0  0  0  0  0  0  0
    3.4804   -1.1138    3.2558 C   0  0  0  0  0  0  0  0  0  0  0  0
    2.7762   -0.3382    2.5384 N   0  0  0  0  0  0  0  0  0  0  0  0
    2.5834    0.8744    3.2530 O   0  0  0  0  0  0  0  0  0  0  0  0
    4.0350   -1.0234   -0.2068 C   0  0  1  0  0  0  0  0  0  0  0  0
    5.4299   -1.1483    0.0486 O   0  0  0  0  0  0  0  0  0  0  0  0
    3.6943   -1.0625   -1.6681 C   0  0  1  0  0  0  0  0  0  0  0  0
    4.6008   -0.2815   -2.4222 O   0  0  0  0  0  0  0  0  0  0  0  0
    3.4960   -4.7295   -3.5038 H   0  0  0  0  0  0  0  0  0  0  0  0
    2.6439   -2.0746   -3.7693 H   0  0  0  0  0  0  0  0  0  0  0  0
    1.8910   -3.3527   -2.8328 H   0  0  0  0  0  0  0  0  0  0  0  0
    4.7686   -2.8545   -2.0553 H   0  0  0  0  0  0  0  0  0  0  0  0
    2.2191   -2.0361    0.6022 H   0  0  0  0  0  0  0  0  0  0  0  0
    4.6102   -4.7388    0.6566 H   0  0  0  0  0  0  0  0  0  0  0  0
    5.6758   -5.1141    3.1737 H   0  0  0  0  0  0  0  0  0  0  0  0
    3.7385   -0.8474    4.2969 H   0  0  0  0  0  0  0  0  0  0  0  0
    2.1912    1.4322    2.5962 H   0  0  0  0  0  0  0  0  0  0  0  0
    3.6777   -0.0757    0.1857 H   0  0  0  0  0  0  0  0  0  0  0  0
    5.7127   -2.0162   -0.2043 H   0  0  0  0  0  0  0  0  0  0  0  0
    2.6891   -0.6746   -1.8091 H   0  0  0  0  0  0  0  0  0  0  0  0
    4.6499    0.5682   -1.9991 H   0  0  0  0  0  0  0  0  0  0  0  0
    4.9868   -3.0020    4.5392 H   0  0  0  0  0  0  0  0  0  0  0  0
  1  2  1  0
  1 18  1  0
  2  3  1  0
  2 19  1  0
  2 20  1  0
  3 16  1  0
  3  4  1  0
  3 21  1  6
  4  5  1  0
  5  6  1  0
  5 14  1  0
  5 22  1  1
  6 10  1  0
  6  7  1  0
  7  8  2  0
  7 23  1  0
  8  9  1  0
  8 24  1  0
  9 10  2  0
  9 31  1  0
 10 11  1  0
 11 12  2  3
 11 25  1  0
 12 13  1  0
 13 26  1  0
 14 15  1  0
 14 16  1  0
 14 27  1  1
 15 28  1  0
 16 17  1  0
 16 29  1  1
 17 30  1  0
M  CHG  1   9   1
M  END
>  <i_m_ct_stereo_status>  (117) 
1

>  <s_m_source_file>  (117) 
/var/tmp/pbs.5076255.sched01/tmp7w47f283/46ruht8ay8.sdf

>  <i_m_source_file_index>  (117) 
6

>  <i_lp_mmshare_version>  (117) 
48012

>  <i_f3d_flags>  (117) 
0

>  <s_epik_input>  (117) 
W09IXVtDSDJdW0NAQEhdMU9bQ0BIXShbQ0BASF0oW09IXSlbQ0BIXTFbT0hdKW4yW2NIXVtjSF1uYzIvW0NIXT1OL1tPSF0=

>  <s_epik_cmdline>  (117) 
J2VwaWtfcHl0aG9uJywgJy1waHQnLCAnMi4wJywgJy1waCcsICc3LjAnLCAnLXRuJywgJzgnLCAnLW1hJywgJzIwMCcsICctaW1hZScsICc8aW5maWxlLm1hZT4nLCAnLW9tYWUnLCAnPG91dGZpbGUubWFlPic=

>  <r_epik_Ionization_Penalty>  (117) 
2.44808

>  <r_epik_Ionization_Penalty_Charging>  (117) 
0

>  <r_epik_Ionization_Penalty_Neutral>  (117) 
2.44808

>  <r_epik_State_Penalty>  (117) 
2.60916

>  <r_epik_Charging_Adjusted_Penalty>  (117) 
2.60916

>  <i_epik_Tot_Q>  (117) 
1

>  <i_epik_Tot_abs_Q>  (117) 
1

>  <s_epik_Chemistry_Notes>  (117) 
This compound has an imine and may undergo hydrolysis. This compound contains an acetal/aminal-like group ( X-CH(R)-Y where X, Y are N, S, or O) that may be acid/base labile, releasing an aldehyde.

>  <s_lp_Force_Field>  (117) 
OPLS3e

>  <r_lp_Energy>  (117) 
11.3952

>  <b_lp_Chiralities_Consistent>  (117) 
1

>  <s_lp_Variant>  (117) 
35:0-3

>  <s_i_glide_gridfile>  (117) 
pfpi4k_grid

>  <i_i_glide_lignum>  (117) 
6

>  <i_i_glide_rotatable_bonds>  (117) 
7

>  <r_i_docking_score>  (117) 
-3.24751

>  <r_i_glide_ligand_efficiency>  (117) 
-0.19103

>  <r_i_glide_ligand_efficiency_sa>  (117) 
-0.491191

>  <r_i_glide_ligand_efficiency_ln>  (117) 
-0.847202

>  <r_i_glide_gscore>  (117) 
-3.24751

>  <r_i_glide_lipo>  (117) 
-0.136159

>  <r_i_glide_hbond>  (117) 
0

>  <r_i_glide_metal>  (117) 
-0

>  <r_i_glide_rewards>  (117) 
-1.74681

>  <r_i_glide_evdw>  (117) 
-16.0108

>  <r_i_glide_ecoul>  (117) 
-11.0786

>  <r_i_glide_erotb>  (117) 
1.16572

>  <r_i_glide_esite>  (117) 
-0.0679313

>  <r_i_glide_emodel>  (117) 
-33.0146

>  <r_i_glide_energy>  (117) 
-27.0894

>  <r_i_glide_einternal>  (117) 
3.08919

>  <r_i_glide_intrahb_reward>  (117) 
-0

>  <i_i_glide_confnum>  (117) 
4

>  <i_i_glide_posenum>  (117) 
9

>  <r_i_glide_eff_state_penalty>  (117) 
0

>  <ligand_id>  (117) 
35

>  <original_smiles>  (117) 
OCC1OC(n2ccnc2C=NO)C(O)C1O

>  <smiles>  (117) 
[H]ON=C([H])c1n(C2([H])OC([H])(C([H])([H])O[H])C([H])(O[H])C2([H])O[H])c([H])c([H])[n+]1[H]

$$$$
35:2:2
     RDKit          3D

 31 32  0  0  1  0  0  0  0  0999 V2000
    3.5718   -3.8530   -3.9301 O   0  0  0  0  0  0  0  0  0  0  0  0
    2.8026   -3.0384   -3.0961 C   0  0  0  0  0  0  0  0  0  0  0  0
    3.6971   -2.5700   -1.9409 C   0  0  2  0  0  0  0  0  0  0  0  0
    3.1913   -3.0682   -0.7022 O   0  0  0  0  0  0  0  0  0  0  0  0
    3.2665   -2.0797    0.2797 C   0  0  1  0  0  0  0  0  0  0  0  0
    3.9268   -2.6412    1.4948 N   0  0  0  0  0  0  0  0  0  0  0  0
    4.6554   -3.8069    1.6108 C   0  0  0  0  0  0  0  0  0  0  0  0
    5.1800   -3.8974    2.8927 C   0  0  0  0  0  0  0  0  0  0  0  0
    4.7766   -2.7867    3.6107 N   0  0  0  0  0  0  0  0  0  0  0  0
    4.0445   -2.1024    2.7511 C   0  0  0  0  0  0  0  0  0  0  0  0
    3.4484   -0.7927    3.1503 C   0  0  0  0  0  0  0  0  0  0  0  0
    2.7342   -0.0667    2.3932 N   0  0  0  0  0  0  0  0  0  0  0  0
    2.4075    1.1494    3.0628 O   0  0  0  0  0  0  0  0  0  0  0  0
    4.0770   -0.9110   -0.3241 C   0  0  1  0  0  0  0  0  0  0  0  0
    5.4789   -0.9865   -0.0728 O   0  0  0  0  0  0  0  0  0  0  0  0
    3.6975   -1.0569   -1.7745 C   0  0  1  0  0  0  0  0  0  0  0  0
    4.5968   -0.3603   -2.6204 O   0  0  0  0  0  0  0  0  0  0  0  0
    3.5787   -4.7225   -3.5334 H   0  0  0  0  0  0  0  0  0  0  0  0
    2.4285   -2.2003   -3.6784 H   0  0  0  0  0  0  0  0  0  0  0  0
    1.9337   -3.5853   -2.7276 H   0  0  0  0  0  0  0  0  0  0  0  0
    4.7386   -2.8968   -2.0298 H   0  0  0  0  0  0  0  0  0  0  0  0
    2.2408   -1.8548    0.5737 H   0  0  0  0  0  0  0  0  0  0  0  0
    4.7580   -4.4605    0.7561 H   0  0  0  0  0  0  0  0  0  0  0  0
    5.8093   -4.6707    3.2925 H   0  0  0  0  0  0  0  0  0  0  0  0
    3.6562   -0.4445    4.1816 H   0  0  0  0  0  0  0  0  0  0  0  0
    1.9504    1.6217    2.3764 H   0  0  0  0  0  0  0  0  0  0  0  0
    3.7259    0.0394    0.0581 H   0  0  0  0  0  0  0  0  0  0  0  0
    5.6201   -1.0080    0.8645 H   0  0  0  0  0  0  0  0  0  0  0  0
    2.6926   -0.6627   -1.9247 H   0  0  0  0  0  0  0  0  0  0  0  0
    4.6028    0.5433   -2.3246 H   0  0  0  0  0  0  0  0  0  0  0  0
    5.0108   -2.5381    4.5621 H   0  0  0  0  0  0  0  0  0  0  0  0
  1  2  1  0
  1 18  1  0
  2  3  1  0
  2 19  1  0
  2 20  1  0
  3 16  1  0
  3  4  1  0
  3 21  1  6
  4  5  1  0
  5  6  1  0
  5 14  1  0
  5 22  1  1
  6 10  1  0
  6  7  1  0
  7  8  2  0
  7 23  1  0
  8  9  1  0
  8 24  1  0
  9 10  2  0
  9 31  1  0
 10 11  1  0
 11 12  2  3
 11 25  1  0
 12 13  1  0
 13 26  1  0
 14 15  1  0
 14 16  1  0
 14 27  1  1
 15 28  1  0
 16 17  1  0
 16 29  1  1
 17 30  1  0
M  CHG  1   9   1
M  END
>  <i_m_ct_stereo_status>  (118) 
1

>  <s_m_source_file>  (118) 
/var/tmp/pbs.5076255.sched01/tmp7w47f283/46ruht8ay8.sdf

>  <i_m_source_file_index>  (118) 
6

>  <i_lp_mmshare_version>  (118) 
48012

>  <i_f3d_flags>  (118) 
0

>  <s_epik_input>  (118) 
W09IXVtDSDJdW0NAQEhdMU9bQ0BIXShbQ0BASF0oW09IXSlbQ0BIXTFbT0hdKW4yW2NIXVtjSF1uYzIvW0NIXT1OL1tPSF0=

>  <s_epik_cmdline>  (118) 
J2VwaWtfcHl0aG9uJywgJy1waHQnLCAnMi4wJywgJy1waCcsICc3LjAnLCAnLXRuJywgJzgnLCAnLW1hJywgJzIwMCcsICctaW1hZScsICc8aW5maWxlLm1hZT4nLCAnLW9tYWUnLCAnPG91dGZpbGUubWFlPic=

>  <r_epik_Ionization_Penalty>  (118) 
2.44808

>  <r_epik_Ionization_Penalty_Charging>  (118) 
0

>  <r_epik_Ionization_Penalty_Neutral>  (118) 
2.44808

>  <r_epik_State_Penalty>  (118) 
2.60916

>  <r_epik_Charging_Adjusted_Penalty>  (118) 
2.60916

>  <i_epik_Tot_Q>  (118) 
1

>  <i_epik_Tot_abs_Q>  (118) 
1

>  <s_epik_Chemistry_Notes>  (118) 
This compound has an imine and may undergo hydrolysis. This compound contains an acetal/aminal-like group ( X-CH(R)-Y where X, Y are N, S, or O) that may be acid/base labile, releasing an aldehyde.

>  <s_lp_Force_Field>  (118) 
OPLS3e

>  <r_lp_Energy>  (118) 
11.3952

>  <b_lp_Chiralities_Consistent>  (118) 
1

>  <s_lp_Variant>  (118) 
35:0-3

>  <s_i_glide_gridfile>  (118) 
pfpi4k_grid

>  <i_i_glide_lignum>  (118) 
6

>  <i_i_glide_rotatable_bonds>  (118) 
7

>  <r_i_docking_score>  (118) 
-3.23775

>  <r_i_glide_ligand_efficiency>  (118) 
-0.190456

>  <r_i_glide_ligand_efficiency_sa>  (118) 
-0.489716

>  <r_i_glide_ligand_efficiency_ln>  (118) 
-0.844658

>  <r_i_glide_gscore>  (118) 
-3.23775

>  <r_i_glide_lipo>  (118) 
-0.142874

>  <r_i_glide_hbond>  (118) 
0

>  <r_i_glide_metal>  (118) 
-0

>  <r_i_glide_rewards>  (118) 
-1.75012

>  <r_i_glide_evdw>  (118) 
-16.5728

>  <r_i_glide_ecoul>  (118) 
-10.7424

>  <r_i_glide_erotb>  (118) 
1.16572

>  <r_i_glide_esite>  (118) 
-0.0704864

>  <r_i_glide_emodel>  (118) 
-33.1287

>  <r_i_glide_energy>  (118) 
-27.3152

>  <r_i_glide_einternal>  (118) 
3.54954

>  <r_i_glide_intrahb_reward>  (118) 
-0

>  <i_i_glide_confnum>  (118) 
4

>  <i_i_glide_posenum>  (118) 
20

>  <r_i_glide_eff_state_penalty>  (118) 
0

>  <ligand_id>  (118) 
35

>  <original_smiles>  (118) 
OCC1OC(n2ccnc2C=NO)C(O)C1O

>  <smiles>  (118) 
[H]ON=C([H])c1n(C2([H])OC([H])(C([H])([H])O[H])C([H])(O[H])C2([H])O[H])c([H])c([H])[n+]1[H]

$$$$
35:3:0
     RDKit          3D

 31 32  0  0  1  0  0  0  0  0999 V2000
    3.4202   -3.2512    3.6601 O   0  0  0  0  0  0  0  0  0  0  0  0
    2.8124   -2.2010    4.3789 C   0  0  0  0  0  0  0  0  0  0  0  0
    2.5460   -1.0013    3.4570 C   0  0  2  0  0  0  0  0  0  0  0  0
    2.0904    0.1034    4.2407 O   0  0  0  0  0  0  0  0  0  0  0  0
    1.0589    0.7944    3.5908 C   0  0  1  0  0  0  0  0  0  0  0  0
    1.4001    2.2640    3.5157 N   0  0  0  0  0  0  0  0  0  0  0  0
    2.6365    2.8278    3.3306 C   0  0  0  0  0  0  0  0  0  0  0  0
    2.5300    4.2024    3.1971 C   0  0  0  0  0  0  0  0  0  0  0  0
    1.2047    4.5344    3.3288 N   0  0  0  0  0  0  0  0  0  0  0  0
    0.6035    3.3665    3.4827 C   0  0  0  0  0  0  0  0  0  0  0  0
   -0.8844    3.2545    3.6051 C   0  0  0  0  0  0  0  0  0  0  0  0
   -1.8002    4.1175    3.4229 N   0  0  0  0  0  0  0  0  0  0  0  0
   -1.2767    5.3272    2.8682 O   0  0  0  0  0  0  0  0  0  0  0  0
    0.9342    0.1845    2.1992 C   0  0  1  0  0  0  0  0  0  0  0  0
    1.7982    0.7943    1.2760 O   0  0  0  0  0  0  0  0  0  0  0  0
    1.4054   -1.2297    2.4598 C   0  0  1  0  0  0  0  0  0  0  0  0
    1.8737   -1.8798    1.2935 O   0  0  0  0  0  0  0  0  0  0  0  0
    2.9194   -3.3951    2.8690 H   0  0  0  0  0  0  0  0  0  0  0  0
    1.8766   -2.5533    4.8097 H   0  0  0  0  0  0  0  0  0  0  0  0
    3.4650   -1.9077    5.2012 H   0  0  0  0  0  0  0  0  0  0  0  0
    3.4541   -0.6885    2.9256 H   0  0  0  0  0  0  0  0  0  0  0  0
    0.1773    0.6840    4.2223 H   0  0  0  0  0  0  0  0  0  0  0  0
    3.5023    2.1818    3.2360 H   0  0  0  0  0  0  0  0  0  0  0  0
    3.3031    4.9136    2.9772 H   0  0  0  0  0  0  0  0  0  0  0  0
   -1.2456    2.2812    3.9228 H   0  0  0  0  0  0  0  0  0  0  0  0
   -0.8103    5.0011    2.0856 H   0  0  0  0  0  0  0  0  0  0  0  0
   -0.0942    0.2505    1.8473 H   0  0  0  0  0  0  0  0  0  0  0  0
    1.6148    0.4185    0.4211 H   0  0  0  0  0  0  0  0  0  0  0  0
    0.5872   -1.7879    2.9262 H   0  0  0  0  0  0  0  0  0  0  0  0
    1.4148   -1.5023    0.5351 H   0  0  0  0  0  0  0  0  0  0  0  0
    0.7542    5.4423    3.2246 H   0  0  0  0  0  0  0  0  0  0  0  0
  1  2  1  0
  1 18  1  0
  2  3  1  0
  2 19  1  0
  2 20  1  0
  3 16  1  0
  3  4  1  0
  3 21  1  6
  4  5  1  0
  5  6  1  0
  5 14  1  0
  5 22  1  1
  6 10  1  0
  6  7  1  0
  7  8  2  0
  7 23  1  0
  8  9  1  0
  8 24  1  0
  9 10  2  0
  9 31  1  0
 10 11  1  0
 11 12  2  3
 11 25  1  0
 12 13  1  0
 13 26  1  0
 14 15  1  0
 14 16  1  0
 14 27  1  6
 15 28  1  0
 16 17  1  0
 16 29  1  1
 17 30  1  0
M  CHG  1   9   1
M  END
>  <i_m_ct_stereo_status>  (119) 
1

>  <s_m_source_file>  (119) 
/var/tmp/pbs.5076255.sched01/tmp7w47f283/46ruht8ay8.sdf

>  <i_m_source_file_index>  (119) 
7

>  <i_lp_mmshare_version>  (119) 
48012

>  <i_f3d_flags>  (119) 
0

>  <s_epik_input>  (119) 
W09IXVtDSDJdW0NAQEhdMU9bQ0BIXShbQ0BASF0oW09IXSlbQ0BIXTFbT0hdKW4yW2NIXVtjSF1uYzIvW0NIXT1OL1tPSF0=

>  <s_epik_cmdline>  (119) 
J2VwaWtfcHl0aG9uJywgJy1waHQnLCAnMi4wJywgJy1waCcsICc3LjAnLCAnLXRuJywgJzgnLCAnLW1hJywgJzIwMCcsICctaW1hZScsICc8aW5maWxlLm1hZT4nLCAnLW9tYWUnLCAnPG91dGZpbGUubWFlPic=

>  <r_epik_Ionization_Penalty>  (119) 
2.44808

>  <r_epik_Ionization_Penalty_Charging>  (119) 
0

>  <r_epik_Ionization_Penalty_Neutral>  (119) 
2.44808

>  <r_epik_State_Penalty>  (119) 
2.60916

>  <r_epik_Charging_Adjusted_Penalty>  (119) 
2.60916

>  <i_epik_Tot_Q>  (119) 
1

>  <i_epik_Tot_abs_Q>  (119) 
1

>  <s_epik_Chemistry_Notes>  (119) 
This compound has an imine and may undergo hydrolysis. This compound contains an acetal/aminal-like group ( X-CH(R)-Y where X, Y are N, S, or O) that may be acid/base labile, releasing an aldehyde.

>  <s_lp_Force_Field>  (119) 
OPLS3e

>  <r_lp_Energy>  (119) 
15.7662

>  <b_lp_Chiralities_Consistent>  (119) 
1

>  <s_lp_Variant>  (119) 
35:0-4

>  <s_i_glide_gridfile>  (119) 
pfpi4k_grid

>  <i_i_glide_lignum>  (119) 
7

>  <i_i_glide_rotatable_bonds>  (119) 
7

>  <r_i_docking_score>  (119) 
-4.76809

>  <r_i_glide_ligand_efficiency>  (119) 
-0.280476

>  <r_i_glide_ligand_efficiency_sa>  (119) 
-0.721182

>  <r_i_glide_ligand_efficiency_ln>  (119) 
-1.24389

>  <r_i_glide_gscore>  (119) 
-4.76809

>  <r_i_glide_lipo>  (119) 
0

>  <r_i_glide_hbond>  (119) 
-0.144002

>  <r_i_glide_metal>  (119) 
-0

>  <r_i_glide_rewards>  (119) 
-1.74392

>  <r_i_glide_evdw>  (119) 
-9.86105

>  <r_i_glide_ecoul>  (119) 
-17.9915

>  <r_i_glide_erotb>  (119) 
0.816005

>  <r_i_glide_esite>  (119) 
-0.504382

>  <r_i_glide_emodel>  (119) 
-38.1852

>  <r_i_glide_energy>  (119) 
-27.8526

>  <r_i_glide_einternal>  (119) 
3.14601

>  <r_i_glide_intrahb_reward>  (119) 
-0

>  <i_i_glide_confnum>  (119) 
6

>  <i_i_glide_posenum>  (119) 
12

>  <r_i_glide_eff_state_penalty>  (119) 
0

>  <ligand_id>  (119) 
35

>  <original_smiles>  (119) 
OCC1OC(n2ccnc2C=NO)C(O)C1O

>  <smiles>  (119) 
[H]ON=C([H])c1n(C2([H])OC([H])(C([H])([H])O[H])C([H])(O[H])C2([H])O[H])c([H])c([H])[n+]1[H]

$$$$
35:3:1
     RDKit          3D

 31 32  0  0  1  0  0  0  0  0999 V2000
    3.7075   -3.0010    3.8242 O   0  0  0  0  0  0  0  0  0  0  0  0
    3.2888   -1.8692    4.5529 C   0  0  0  0  0  0  0  0  0  0  0  0
    2.8072   -0.7436    3.6162 C   0  0  2  0  0  0  0  0  0  0  0  0
    2.4610    0.4055    4.3937 O   0  0  0  0  0  0  0  0  0  0  0  0
    1.3118    1.0223    3.8858 C   0  0  1  0  0  0  0  0  0  0  0  0
    1.5855    2.4866    3.6751 N   0  0  0  0  0  0  0  0  0  0  0  0
    2.7841    3.0870    3.3966 C   0  0  0  0  0  0  0  0  0  0  0  0
    2.5974    4.4430    3.1598 C   0  0  0  0  0  0  0  0  0  0  0  0
    1.2624    4.7147    3.3155 N   0  0  0  0  0  0  0  0  0  0  0  0
    0.7247    3.5436    3.5947 C   0  0  0  0  0  0  0  0  0  0  0  0
   -0.7560    3.3628    3.7757 C   0  0  0  0  0  0  0  0  0  0  0  0
   -1.7336    4.1556    3.5454 N   0  0  0  0  0  0  0  0  0  0  0  0
   -1.2814    5.3400    2.8777 O   0  0  0  0  0  0  0  0  0  0  0  0
    0.9627    0.3133    2.5599 C   0  0  1  0  0  0  0  0  0  0  0  0
    1.5696    0.9112    1.4156 O   0  0  0  0  0  0  0  0  0  0  0  0
    1.5208   -1.0640    2.8493 C   0  0  1  0  0  0  0  0  0  0  0  0
    1.7824   -1.8005    1.6712 O   0  0  0  0  0  0  0  0  0  0  0  0
    4.3268   -2.7228    3.1659 H   0  0  0  0  0  0  0  0  0  0  0  0
    2.4859   -2.1624    5.2282 H   0  0  0  0  0  0  0  0  0  0  0  0
    4.1243   -1.5283    5.1646 H   0  0  0  0  0  0  0  0  0  0  0  0
    3.5968   -0.4515    2.9148 H   0  0  0  0  0  0  0  0  0  0  0  0
    0.5571    0.9507    4.6706 H   0  0  0  0  0  0  0  0  0  0  0  0
    3.6777    2.4834    3.3306 H   0  0  0  0  0  0  0  0  0  0  0  0
    3.3204    5.1780    2.8632 H   0  0  0  0  0  0  0  0  0  0  0  0
   -1.0381    2.3989    4.2067 H   0  0  0  0  0  0  0  0  0  0  0  0
   -0.8134    4.9732    2.1044 H   0  0  0  0  0  0  0  0  0  0  0  0
   -0.1191    0.3251    2.4388 H   0  0  0  0  0  0  0  0  0  0  0  0
    1.2883    0.4687    0.6167 H   0  0  0  0  0  0  0  0  0  0  0  0
    0.8305   -1.6024    3.4999 H   0  0  0  0  0  0  0  0  0  0  0  0
    1.4605   -1.3188    0.9223 H   0  0  0  0  0  0  0  0  0  0  0  0
    0.7648    5.5851    3.1583 H   0  0  0  0  0  0  0  0  0  0  0  0
  1  2  1  0
  1 18  1  0
  2  3  1  0
  2 19  1  0
  2 20  1  0
  3 16  1  0
  3  4  1  0
  3 21  1  6
  4  5  1  0
  5  6  1  0
  5 14  1  0
  5 22  1  1
  6 10  1  0
  6  7  1  0
  7  8  2  0
  7 23  1  0
  8  9  1  0
  8 24  1  0
  9 10  2  0
  9 31  1  0
 10 11  1  0
 11 12  2  3
 11 25  1  0
 12 13  1  0
 13 26  1  0
 14 15  1  0
 14 16  1  0
 14 27  1  6
 15 28  1  0
 16 17  1  0
 16 29  1  1
 17 30  1  0
M  CHG  1   9   1
M  END
>  <i_m_ct_stereo_status>  (120) 
1

>  <s_m_source_file>  (120) 
/var/tmp/pbs.5076255.sched01/tmp7w47f283/46ruht8ay8.sdf

>  <i_m_source_file_index>  (120) 
7

>  <i_lp_mmshare_version>  (120) 
48012

>  <i_f3d_flags>  (120) 
0

>  <s_epik_input>  (120) 
W09IXVtDSDJdW0NAQEhdMU9bQ0BIXShbQ0BASF0oW09IXSlbQ0BIXTFbT0hdKW4yW2NIXVtjSF1uYzIvW0NIXT1OL1tPSF0=

>  <s_epik_cmdline>  (120) 
J2VwaWtfcHl0aG9uJywgJy1waHQnLCAnMi4wJywgJy1waCcsICc3LjAnLCAnLXRuJywgJzgnLCAnLW1hJywgJzIwMCcsICctaW1hZScsICc8aW5maWxlLm1hZT4nLCAnLW9tYWUnLCAnPG91dGZpbGUubWFlPic=

>  <r_epik_Ionization_Penalty>  (120) 
2.44808

>  <r_epik_Ionization_Penalty_Charging>  (120) 
0

>  <r_epik_Ionization_Penalty_Neutral>  (120) 
2.44808

>  <r_epik_State_Penalty>  (120) 
2.60916

>  <r_epik_Charging_Adjusted_Penalty>  (120) 
2.60916

>  <i_epik_Tot_Q>  (120) 
1

>  <i_epik_Tot_abs_Q>  (120) 
1

>  <s_epik_Chemistry_Notes>  (120) 
This compound has an imine and may undergo hydrolysis. This compound contains an acetal/aminal-like group ( X-CH(R)-Y where X, Y are N, S, or O) that may be acid/base labile, releasing an aldehyde.

>  <s_lp_Force_Field>  (120) 
OPLS3e

>  <r_lp_Energy>  (120) 
15.7662

>  <b_lp_Chiralities_Consistent>  (120) 
1

>  <s_lp_Variant>  (120) 
35:0-4

>  <s_i_glide_gridfile>  (120) 
pfpi4k_grid

>  <i_i_glide_lignum>  (120) 
7

>  <i_i_glide_rotatable_bonds>  (120) 
7

>  <r_i_docking_score>  (120) 
-4.37806

>  <r_i_glide_ligand_efficiency>  (120) 
-0.257533

>  <r_i_glide_ligand_efficiency_sa>  (120) 
-0.662189

>  <r_i_glide_ligand_efficiency_ln>  (120) 
-1.14214

>  <r_i_glide_gscore>  (120) 
-4.37806

>  <r_i_glide_lipo>  (120) 
0

>  <r_i_glide_hbond>  (120) 
-0.144724

>  <r_i_glide_metal>  (120) 
-0

>  <r_i_glide_rewards>  (120) 
-1.74392

>  <r_i_glide_evdw>  (120) 
-11.8556

>  <r_i_glide_ecoul>  (120) 
-14.8406

>  <r_i_glide_erotb>  (120) 
0.816005

>  <r_i_glide_esite>  (120) 
-0.486542

>  <r_i_glide_emodel>  (120) 
-36.3079

>  <r_i_glide_energy>  (120) 
-26.6962

>  <r_i_glide_einternal>  (120) 
3.13198

>  <r_i_glide_intrahb_reward>  (120) 
-0

>  <i_i_glide_confnum>  (120) 
6

>  <i_i_glide_posenum>  (120) 
36

>  <r_i_glide_eff_state_penalty>  (120) 
0

>  <ligand_id>  (120) 
35

>  <original_smiles>  (120) 
OCC1OC(n2ccnc2C=NO)C(O)C1O

>  <smiles>  (120) 
[H]ON=C([H])c1n(C2([H])OC([H])(C([H])([H])O[H])C([H])(O[H])C2([H])O[H])c([H])c([H])[n+]1[H]

$$$$
35:3:2
     RDKit          3D

 31 32  0  0  1  0  0  0  0  0999 V2000
   -2.1833    4.5428    3.2833 O   0  0  0  0  0  0  0  0  0  0  0  0
   -1.0830    3.8717    3.8585 C   0  0  0  0  0  0  0  0  0  0  0  0
   -1.5719    2.9429    4.9853 C   0  0  2  0  0  0  0  0  0  0  0  0
   -1.4696    3.6346    6.2323 O   0  0  0  0  0  0  0  0  0  0  0  0
   -0.9672    2.8034    7.2362 C   0  0  1  0  0  0  0  0  0  0  0  0
   -1.8803    2.8806    8.4202 N   0  0  0  0  0  0  0  0  0  0  0  0
   -3.2309    3.1449    8.4255 C   0  0  0  0  0  0  0  0  0  0  0  0
   -3.7283    3.0163    9.7085 C   0  0  0  0  0  0  0  0  0  0  0  0
   -2.6903    2.6646   10.5227 N   0  0  0  0  0  0  0  0  0  0  0  0
   -1.6303    2.6038    9.7312 C   0  0  0  0  0  0  0  0  0  0  0  0
   -0.2863    2.1554   10.2062 C   0  0  0  0  0  0  0  0  0  0  0  0
    0.2330    2.1611   11.3722 N   0  0  0  0  0  0  0  0  0  0  0  0
   -0.5983    2.8352   12.3043 O   0  0  0  0  0  0  0  0  0  0  0  0
   -0.9274    1.3884    6.6518 C   0  0  1  0  0  0  0  0  0  0  0  0
   -2.1490    0.6865    6.8500 O   0  0  0  0  0  0  0  0  0  0  0  0
   -0.6991    1.7045    5.1850 C   0  0  1  0  0  0  0  0  0  0  0  0
   -1.0611    0.6294    4.3355 O   0  0  0  0  0  0  0  0  0  0  0  0
   -2.3930    4.1066    2.4663 H   0  0  0  0  0  0  0  0  0  0  0  0
   -0.6295    3.3052    3.0500 H   0  0  0  0  0  0  0  0  0  0  0  0
   -0.3280    4.5777    4.2130 H   0  0  0  0  0  0  0  0  0  0  0  0
   -2.6093    2.6244    4.8348 H   0  0  0  0  0  0  0  0  0  0  0  0
   -0.0024    3.1918    7.5496 H   0  0  0  0  0  0  0  0  0  0  0  0
   -3.7417    3.3483    7.5006 H   0  0  0  0  0  0  0  0  0  0  0  0
   -4.7431    3.1078   10.0673 H   0  0  0  0  0  0  0  0  0  0  0  0
    0.3332    1.7509    9.4014 H   0  0  0  0  0  0  0  0  0  0  0  0
   -1.2021    2.1366   12.5843 H   0  0  0  0  0  0  0  0  0  0  0  0
   -0.1070    0.8182    7.0899 H   0  0  0  0  0  0  0  0  0  0  0  0
   -2.8314    1.1722    6.4037 H   0  0  0  0  0  0  0  0  0  0  0  0
    0.3461    1.9750    5.0407 H   0  0  0  0  0  0  0  0  0  0  0  0
   -0.9543    0.8988    3.4323 H   0  0  0  0  0  0  0  0  0  0  0  0
   -2.7397    2.4285   11.5205 H   0  0  0  0  0  0  0  0  0  0  0  0
  1  2  1  0
  1 18  1  0
  2  3  1  0
  2 19  1  0
  2 20  1  0
  3 16  1  0
  3  4  1  0
  3 21  1  6
  4  5  1  0
  5  6  1  0
  5 14  1  0
  5 22  1  1
  6 10  1  0
  6  7  1  0
  7  8  2  0
  7 23  1  0
  8  9  1  0
  8 24  1  0
  9 10  2  0
  9 31  1  0
 10 11  1  0
 11 12  2  3
 11 25  1  0
 12 13  1  0
 13 26  1  0
 14 15  1  0
 14 16  1  0
 14 27  1  1
 15 28  1  0
 16 17  1  0
 16 29  1  1
 17 30  1  0
M  CHG  1   9   1
M  END
>  <i_m_ct_stereo_status>  (121) 
1

>  <s_m_source_file>  (121) 
/var/tmp/pbs.5076255.sched01/tmp7w47f283/46ruht8ay8.sdf

>  <i_m_source_file_index>  (121) 
7

>  <i_lp_mmshare_version>  (121) 
48012

>  <i_f3d_flags>  (121) 
0

>  <s_epik_input>  (121) 
W09IXVtDSDJdW0NAQEhdMU9bQ0BIXShbQ0BASF0oW09IXSlbQ0BIXTFbT0hdKW4yW2NIXVtjSF1uYzIvW0NIXT1OL1tPSF0=

>  <s_epik_cmdline>  (121) 
J2VwaWtfcHl0aG9uJywgJy1waHQnLCAnMi4wJywgJy1waCcsICc3LjAnLCAnLXRuJywgJzgnLCAnLW1hJywgJzIwMCcsICctaW1hZScsICc8aW5maWxlLm1hZT4nLCAnLW9tYWUnLCAnPG91dGZpbGUubWFlPic=

>  <r_epik_Ionization_Penalty>  (121) 
2.44808

>  <r_epik_Ionization_Penalty_Charging>  (121) 
0

>  <r_epik_Ionization_Penalty_Neutral>  (121) 
2.44808

>  <r_epik_State_Penalty>  (121) 
2.60916

>  <r_epik_Charging_Adjusted_Penalty>  (121) 
2.60916

>  <i_epik_Tot_Q>  (121) 
1

>  <i_epik_Tot_abs_Q>  (121) 
1

>  <s_epik_Chemistry_Notes>  (121) 
This compound has an imine and may undergo hydrolysis. This compound contains an acetal/aminal-like group ( X-CH(R)-Y where X, Y are N, S, or O) that may be acid/base labile, releasing an aldehyde.

>  <s_lp_Force_Field>  (121) 
OPLS3e

>  <r_lp_Energy>  (121) 
15.7662

>  <b_lp_Chiralities_Consistent>  (121) 
1

>  <s_lp_Variant>  (121) 
35:0-4

>  <s_i_glide_gridfile>  (121) 
pfpi4k_grid

>  <i_i_glide_lignum>  (121) 
7

>  <i_i_glide_rotatable_bonds>  (121) 
7

>  <r_i_docking_score>  (121) 
-4.21269

>  <r_i_glide_ligand_efficiency>  (121) 
-0.247805

>  <r_i_glide_ligand_efficiency_sa>  (121) 
-0.637177

>  <r_i_glide_ligand_efficiency_ln>  (121) 
-1.099

>  <r_i_glide_gscore>  (121) 
-4.21269

>  <r_i_glide_lipo>  (121) 
-0.0495636

>  <r_i_glide_hbond>  (121) 
-0.336953

>  <r_i_glide_metal>  (121) 
-0

>  <r_i_glide_rewards>  (121) 
-1.74864

>  <r_i_glide_evdw>  (121) 
-12.1163

>  <r_i_glide_ecoul>  (121) 
-15.609

>  <r_i_glide_erotb>  (121) 
1.16572

>  <r_i_glide_esite>  (121) 
-0.296094

>  <r_i_glide_emodel>  (121) 
-36.256

>  <r_i_glide_energy>  (121) 
-27.7253

>  <r_i_glide_einternal>  (121) 
4.22372

>  <r_i_glide_intrahb_reward>  (121) 
-0

>  <i_i_glide_confnum>  (121) 
3

>  <i_i_glide_posenum>  (121) 
13

>  <r_i_glide_eff_state_penalty>  (121) 
0

>  <ligand_id>  (121) 
35

>  <original_smiles>  (121) 
OCC1OC(n2ccnc2C=NO)C(O)C1O

>  <smiles>  (121) 
[H]ON=C([H])c1n(C2([H])OC([H])(C([H])([H])O[H])C([H])(O[H])C2([H])O[H])c([H])c([H])[n+]1[H]

$$$$
36:0:0
     RDKit          3D

 26 31  0  0  1  0  0  0  0  0999 V2000
    5.7597   -1.1579   -0.0859 C   0  0  0  0  0  0  0  0  0  0  0  0
    4.3198   -1.6770    0.1637 C   0  0  1  0  0  0  0  0  0  0  0  0
    3.9641   -2.0643   -1.2690 C   0  0  2  0  0  0  0  0  0  0  0  0
    3.1458   -3.0174   -1.7075 C   0  0  1  0  0  0  0  0  0  0  0  0
    4.2670   -2.5373   -2.9585 C   0  0  0  0  0  0  0  0  0  0  0  0
    5.8202   -2.6560   -2.3075 C   0  0  2  0  0  0  0  0  0  0  0  0
    6.3954   -2.3951   -0.7638 C   0  0  2  0  0  0  0  0  0  0  0  0
    5.7789   -3.4650    0.2079 C   0  0  1  0  0  0  0  0  0  0  0  0
    4.3826   -3.0247    0.7086 C   0  0  2  0  0  0  0  0  0  0  0  0
    3.6154   -3.8707   -0.3692 C   0  0  2  0  0  0  0  0  0  0  0  0
    5.0060   -4.3312   -0.6560 C   0  0  1  0  0  0  0  0  0  0  0  0
    4.8555   -3.4924   -1.8014 C   0  0  1  0  0  0  0  0  0  0  0  0
    6.2557   -0.9351    0.8617 H   0  0  0  0  0  0  0  0  0  0  0  0
    5.7970   -0.2607   -0.7053 H   0  0  0  0  0  0  0  0  0  0  0  0
    3.6239   -0.9941    0.6538 H   0  0  0  0  0  0  0  0  0  0  0  0
    3.6899   -1.0497   -1.6580 H   0  0  0  0  0  0  0  0  0  0  0  0
    2.1109   -2.6756   -1.7576 H   0  0  0  0  0  0  0  0  0  0  0  0
    4.1199   -3.1357   -3.8809 H   0  0  0  0  0  0  0  0  0  0  0  0
    4.1172   -1.5746   -3.4768 H   0  0  0  0  0  0  0  0  0  0  0  0
    6.5207   -3.2156   -2.9283 H   0  0  0  0  0  0  0  0  0  0  0  0
    7.4869   -2.3719   -0.7350 H   0  0  0  0  0  0  0  0  0  0  0  0
    6.4126   -3.9537    0.9485 H   0  0  0  0  0  0  0  0  0  0  0  0
    4.1567   -3.1939    1.7630 H   0  0  0  0  0  0  0  0  0  0  0  0
    2.9554   -4.6454    0.0205 H   0  0  0  0  0  0  0  0  0  0  0  0
    5.2386   -5.3954   -0.7509 H   0  0  0  0  0  0  0  0  0  0  0  0
    4.6734   -4.4312   -2.4498 H   0  0  0  0  0  0  0  0  0  0  0  0
  1  7  1  0
  1  2  1  0
  1 13  1  0
  1 14  1  0
  2  9  1  0
  2  3  1  0
  2 15  1  1
  3 12  1  0
  3  4  1  0
  3 16  1  6
  4 10  1  0
  4  5  1  0
  4 17  1  6
  5  6  1  0
  5 18  1  0
  5 19  1  0
  6 12  1  0
  6  7  1  0
  6 20  1  6
  7  8  1  0
  7 21  1  6
  8 11  1  0
  8  9  1  0
  8 22  1  1
  9 10  1  0
  9 23  1  1
 10 11  1  0
 10 24  1  1
 11 12  1  0
 11 25  1  6
 12 26  1  6
M  END
>  <i_m_ct_stereo_status>  (122) 
1

>  <s_m_source_file>  (122) 
/var/tmp/pbs.5076255.sched01/tmp7w47f283/46ruht8ay8.sdf

>  <i_m_source_file_index>  (122) 
8

>  <i_lp_mmshare_version>  (122) 
48012

>  <i_f3d_flags>  (122) 
0

>  <s_epik_input>  (122) 
W0NASF0xMltDQEBIXTNbQ0BASF0oW0NIMl00KVtDQEBIXShbQ0gyXTUpW0NASF0xW0NAQEhdNltDQEhdMltDQEhdNFtDQEhdM1tDQEhdNTY=

>  <s_epik_cmdline>  (122) 
J2VwaWtfcHl0aG9uJywgJy1waHQnLCAnMi4wJywgJy1waCcsICc3LjAnLCAnLXRuJywgJzgnLCAnLW1hJywgJzIwMCcsICctaW1hZScsICc8aW5maWxlLm1hZT4nLCAnLW9tYWUnLCAnPG91dGZpbGUubWFlPic=

>  <r_lp_tautomer_probability>  (122) 
1

>  <r_epik_Ionization_Penalty>  (122) 
0

>  <r_epik_Ionization_Penalty_Charging>  (122) 
0

>  <r_epik_Ionization_Penalty_Neutral>  (122) 
0

>  <r_epik_State_Penalty>  (122) 
-0

>  <r_epik_Charging_Adjusted_Penalty>  (122) 
0

>  <i_epik_Tot_Q>  (122) 
0

>  <i_epik_Tot_abs_Q>  (122) 
0

>  <s_lp_Force_Field>  (122) 
OPLS3e

>  <r_lp_Energy>  (122) 
389.199

>  <b_lp_Chiralities_Consistent>  (122) 
1

>  <s_lp_Variant>  (122) 
36:0-1

>  <s_i_glide_gridfile>  (122) 
pfpi4k_grid

>  <i_i_glide_lignum>  (122) 
8

>  <i_i_glide_rotatable_bonds>  (122) 
0

>  <r_i_docking_score>  (122) 
-3.51895

>  <r_i_glide_ligand_efficiency>  (122) 
-0.293246

>  <r_i_glide_ligand_efficiency_sa>  (122) 
-0.671366

>  <r_i_glide_ligand_efficiency_ln>  (122) 
-1.00977

>  <r_i_glide_gscore>  (122) 
-3.51895

>  <r_i_glide_lipo>  (122) 
-0.322864

>  <r_i_glide_hbond>  (122) 
0

>  <r_i_glide_metal>  (122) 
-0

>  <r_i_glide_rewards>  (122) 
-2.25

>  <r_i_glide_evdw>  (122) 
-18.1443

>  <r_i_glide_ecoul>  (122) 
-0.259179

>  <r_i_glide_erotb>  (122) 
0

>  <r_i_glide_esite>  (122) 
0

>  <r_i_glide_emodel>  (122) 
-22.4329

>  <r_i_glide_energy>  (122) 
-18.4034

>  <r_i_glide_einternal>  (122) 
0

>  <r_i_glide_intrahb_reward>  (122) 
-0

>  <i_i_glide_confnum>  (122) 
1

>  <i_i_glide_posenum>  (122) 
1

>  <r_i_glide_eff_state_penalty>  (122) 
0

>  <ligand_id>  (122) 
36

>  <original_smiles>  (122) 
C1C2C3C4CC5C1C1C2C4C1C53

>  <smiles>  (122) 
[H]C1([H])C2([H])C3([H])C4([H])C([H])([H])C5([H])C1([H])C1([H])C2([H])C4([H])C1([H])C53[H]

$$$$
36:0:1
     RDKit          3D

 26 31  0  0  1  0  0  0  0  0999 V2000
    5.3948   -3.8551   -2.9349 C   0  0  0  0  0  0  0  0  0  0  0  0
    4.3754   -3.0714   -3.7692 C   0  0  1  0  0  0  0  0  0  0  0  0
    3.1743   -3.2632   -2.8795 C   0  0  2  0  0  0  0  0  0  0  0  0
    2.1540   -2.4724   -2.7191 C   0  0  1  0  0  0  0  0  0  0  0  0
    2.2841   -3.5734   -1.3828 C   0  0  0  0  0  0  0  0  0  0  0  0
    3.8626   -3.4657   -0.7968 C   0  0  2  0  0  0  0  0  0  0  0  0
    5.3026   -3.1511   -1.5695 C   0  0  2  0  0  0  0  0  0  0  0  0
    5.2676   -1.6953   -2.1513 C   0  0  1  0  0  0  0  0  0  0  0  0
    4.5662   -1.6481   -3.5339 C   0  0  2  0  0  0  0  0  0  0  0  0
    3.1906   -1.2173   -2.9389 C   0  0  2  0  0  0  0  0  0  0  0  0
    4.0182   -1.1525   -1.6923 C   0  0  1  0  0  0  0  0  0  0  0  0
    3.3207   -2.3536   -1.3749 C   0  0  1  0  0  0  0  0  0  0  0  0
    6.3955   -3.7477   -3.3576 H   0  0  0  0  0  0  0  0  0  0  0  0
    5.1354   -4.9143   -2.8756 H   0  0  0  0  0  0  0  0  0  0  0  0
    4.2314   -3.3932   -4.7918 H   0  0  0  0  0  0  0  0  0  0  0  0
    2.8247   -4.2567   -3.2543 H   0  0  0  0  0  0  0  0  0  0  0  0
    1.3933   -2.6559   -3.4761 H   0  0  0  0  0  0  0  0  0  0  0  0
    1.5057   -3.3753   -0.6249 H   0  0  0  0  0  0  0  0  0  0  0  0
    1.9558   -4.6171   -1.5223 H   0  0  0  0  0  0  0  0  0  0  0  0
    3.9302   -3.3402    0.2836 H   0  0  0  0  0  0  0  0  0  0  0  0
    6.1659   -3.3492   -0.9372 H   0  0  0  0  0  0  0  0  0  0  0  0
    6.1377   -1.0509   -2.0342 H   0  0  0  0  0  0  0  0  0  0  0  0
    5.0007   -1.0261   -4.3159 H   0  0  0  0  0  0  0  0  0  0  0  0
    2.7960   -0.2564   -3.2761 H   0  0  0  0  0  0  0  0  0  0  0  0
    3.9993   -0.2873   -1.0252 H   0  0  0  0  0  0  0  0  0  0  0  0
    2.6483   -1.7489   -0.6616 H   0  0  0  0  0  0  0  0  0  0  0  0
  1  7  1  0
  1  2  1  0
  1 13  1  0
  1 14  1  0
  2  9  1  0
  2  3  1  0
  2 15  1  6
  3 12  1  0
  3  4  1  0
  3 16  1  1
  4 10  1  0
  4  5  1  0
  4 17  1  6
  5  6  1  0
  5 18  1  0
  5 19  1  0
  6 12  1  0
  6  7  1  0
  6 20  1  1
  7  8  1  0
  7 21  1  1
  8 11  1  0
  8  9  1  0
  8 22  1  6
  9 10  1  0
  9 23  1  6
 10 11  1  0
 10 24  1  6
 11 12  1  0
 11 25  1  1
 12 26  1  1
M  END
>  <i_m_ct_stereo_status>  (123) 
1

>  <s_m_source_file>  (123) 
/var/tmp/pbs.5076255.sched01/tmp7w47f283/46ruht8ay8.sdf

>  <i_m_source_file_index>  (123) 
8

>  <i_lp_mmshare_version>  (123) 
48012

>  <i_f3d_flags>  (123) 
0

>  <s_epik_input>  (123) 
W0NASF0xMltDQEBIXTNbQ0BASF0oW0NIMl00KVtDQEBIXShbQ0gyXTUpW0NASF0xW0NAQEhdNltDQEhdMltDQEhdNFtDQEhdM1tDQEhdNTY=

>  <s_epik_cmdline>  (123) 
J2VwaWtfcHl0aG9uJywgJy1waHQnLCAnMi4wJywgJy1waCcsICc3LjAnLCAnLXRuJywgJzgnLCAnLW1hJywgJzIwMCcsICctaW1hZScsICc8aW5maWxlLm1hZT4nLCAnLW9tYWUnLCAnPG91dGZpbGUubWFlPic=

>  <r_lp_tautomer_probability>  (123) 
1

>  <r_epik_Ionization_Penalty>  (123) 
0

>  <r_epik_Ionization_Penalty_Charging>  (123) 
0

>  <r_epik_Ionization_Penalty_Neutral>  (123) 
0

>  <r_epik_State_Penalty>  (123) 
-0

>  <r_epik_Charging_Adjusted_Penalty>  (123) 
0

>  <i_epik_Tot_Q>  (123) 
0

>  <i_epik_Tot_abs_Q>  (123) 
0

>  <s_lp_Force_Field>  (123) 
OPLS3e

>  <r_lp_Energy>  (123) 
389.199

>  <b_lp_Chiralities_Consistent>  (123) 
1

>  <s_lp_Variant>  (123) 
36:0-1

>  <s_i_glide_gridfile>  (123) 
pfpi4k_grid

>  <i_i_glide_lignum>  (123) 
8

>  <i_i_glide_rotatable_bonds>  (123) 
0

>  <r_i_docking_score>  (123) 
-3.09363

>  <r_i_glide_ligand_efficiency>  (123) 
-0.257803

>  <r_i_glide_ligand_efficiency_sa>  (123) 
-0.590221

>  <r_i_glide_ligand_efficiency_ln>  (123) 
-0.887724

>  <r_i_glide_gscore>  (123) 
-3.09363

>  <r_i_glide_lipo>  (123) 
-0.422204

>  <r_i_glide_hbond>  (123) 
0

>  <r_i_glide_metal>  (123) 
-0

>  <r_i_glide_rewards>  (123) 
-2.25

>  <r_i_glide_evdw>  (123) 
-7.07884

>  <r_i_glide_ecoul>  (123) 
-0.44992

>  <r_i_glide_erotb>  (123) 
0

>  <r_i_glide_esite>  (123) 
0

>  <r_i_glide_emodel>  (123) 
-11.0491

>  <r_i_glide_energy>  (123) 
-7.52876

>  <r_i_glide_einternal>  (123) 
0

>  <r_i_glide_intrahb_reward>  (123) 
-0

>  <i_i_glide_confnum>  (123) 
2

>  <i_i_glide_posenum>  (123) 
38

>  <r_i_glide_eff_state_penalty>  (123) 
0

>  <ligand_id>  (123) 
36

>  <original_smiles>  (123) 
C1C2C3C4CC5C1C1C2C4C1C53

>  <smiles>  (123) 
[H]C1([H])C2([H])C3([H])C4([H])C([H])([H])C5([H])C1([H])C1([H])C2([H])C4([H])C1([H])C53[H]

$$$$
36:0:2
     RDKit          3D

 26 31  0  0  1  0  0  0  0  0999 V2000
    4.6268   -0.6285   -2.7112 C   0  0  0  0  0  0  0  0  0  0  0  0
    3.2670   -1.0564   -2.1868 C   0  0  1  0  0  0  0  0  0  0  0  0
    3.1622   -2.3261   -2.9790 C   0  0  2  0  0  0  0  0  0  0  0  0
    2.5405   -3.4506   -2.6623 C   0  0  1  0  0  0  0  0  0  0  0  0
    3.7702   -3.7098   -3.8824 C   0  0  0  0  0  0  0  0  0  0  0  0
    5.2159   -3.1146   -3.2737 C   0  0  2  0  0  0  0  0  0  0  0  0
    5.5144   -1.8221   -2.3059 C   0  0  2  0  0  0  0  0  0  0  0  0
    4.9054   -2.0382   -0.8792 C   0  0  1  0  0  0  0  0  0  0  0  0
    3.4199   -1.6324   -0.8619 C   0  0  2  0  0  0  0  0  0  0  0  0
    2.9128   -3.0984   -1.0838 C   0  0  2  0  0  0  0  0  0  0  0  0
    4.3722   -3.3720   -0.9557 C   0  0  1  0  0  0  0  0  0  0  0  0
    4.2951   -3.5349   -2.3699 C   0  0  1  0  0  0  0  0  0  0  0  0
    4.9725    0.2128   -2.1502 H   0  0  0  0  0  0  0  0  0  0  0  0
    4.6147   -0.3844   -3.7763 H   0  0  0  0  0  0  0  0  0  0  0  0
    2.4516   -0.3424   -2.3272 H   0  0  0  0  0  0  0  0  0  0  0  0
    2.8359   -1.8776   -3.9559 H   0  0  0  0  0  0  0  0  0  0  0  0
    1.4903   -3.4004   -2.9516 H   0  0  0  0  0  0  0  0  0  0  0  0
    3.8538   -4.7689   -4.1836 H   0  0  0  0  0  0  0  0  0  0  0  0
    3.5813   -3.3800   -4.9192 H   0  0  0  0  0  0  0  0  0  0  0  0
    6.0507   -3.8085   -3.3219 H   0  0  0  0  0  0  0  0  0  0  0  0
    6.5790   -1.6033   -2.2624 H   0  0  0  0  0  0  0  0  0  0  0  0
    5.4853   -1.7793    0.0069 H   0  0  0  0  0  0  0  0  0  0  0  0
    3.0669   -1.0825    0.0151 H   0  0  0  0  0  0  0  0  0  0  0  0
    2.2915   -3.4971   -0.2867 H   0  0  0  0  0  0  0  0  0  0  0  0
    4.7440   -4.1620   -0.2938 H   0  0  0  0  0  0  0  0  0  0  0  0
    4.3510   -4.6566   -2.2108 H   0  0  0  0  0  0  0  0  0  0  0  0
  1  7  1  0
  1  2  1  0
  1 13  1  0
  1 14  1  0
  2  9  1  0
  2  3  1  0
  2 15  1  1
  3 12  1  0
  3  4  1  0
  3 16  1  6
  4 10  1  0
  4  5  1  0
  4 17  1  1
  5  6  1  0
  5 18  1  0
  5 19  1  0
  6 12  1  0
  6  7  1  0
  6 20  1  6
  7  8  1  0
  7 21  1  1
  8 11  1  0
  8  9  1  0
  8 22  1  1
  9 10  1  0
  9 23  1  1
 10 11  1  0
 10 24  1  1
 11 12  1  0
 11 25  1  1
 12 26  1  1
M  END
>  <i_m_ct_stereo_status>  (124) 
1

>  <s_m_source_file>  (124) 
/var/tmp/pbs.5076255.sched01/tmp7w47f283/46ruht8ay8.sdf

>  <i_m_source_file_index>  (124) 
8

>  <i_lp_mmshare_version>  (124) 
48012

>  <i_f3d_flags>  (124) 
0

>  <s_epik_input>  (124) 
W0NASF0xMltDQEBIXTNbQ0BASF0oW0NIMl00KVtDQEBIXShbQ0gyXTUpW0NASF0xW0NAQEhdNltDQEhdMltDQEhdNFtDQEhdM1tDQEhdNTY=

>  <s_epik_cmdline>  (124) 
J2VwaWtfcHl0aG9uJywgJy1waHQnLCAnMi4wJywgJy1waCcsICc3LjAnLCAnLXRuJywgJzgnLCAnLW1hJywgJzIwMCcsICctaW1hZScsICc8aW5maWxlLm1hZT4nLCAnLW9tYWUnLCAnPG91dGZpbGUubWFlPic=

>  <r_lp_tautomer_probability>  (124) 
1

>  <r_epik_Ionization_Penalty>  (124) 
0

>  <r_epik_Ionization_Penalty_Charging>  (124) 
0

>  <r_epik_Ionization_Penalty_Neutral>  (124) 
0

>  <r_epik_State_Penalty>  (124) 
-0

>  <r_epik_Charging_Adjusted_Penalty>  (124) 
0

>  <i_epik_Tot_Q>  (124) 
0

>  <i_epik_Tot_abs_Q>  (124) 
0

>  <s_lp_Force_Field>  (124) 
OPLS3e

>  <r_lp_Energy>  (124) 
389.199

>  <b_lp_Chiralities_Consistent>  (124) 
1

>  <s_lp_Variant>  (124) 
36:0-1

>  <s_i_glide_gridfile>  (124) 
pfpi4k_grid

>  <i_i_glide_lignum>  (124) 
8

>  <i_i_glide_rotatable_bonds>  (124) 
0

>  <r_i_docking_score>  (124) 
-2.88183

>  <r_i_glide_ligand_efficiency>  (124) 
-0.240152

>  <r_i_glide_ligand_efficiency_sa>  (124) 
-0.549811

>  <r_i_glide_ligand_efficiency_ln>  (124) 
-0.826945

>  <r_i_glide_gscore>  (124) 
-2.88183

>  <r_i_glide_lipo>  (124) 
-0.335992

>  <r_i_glide_hbond>  (124) 
0

>  <r_i_glide_metal>  (124) 
-0

>  <r_i_glide_rewards>  (124) 
-2.25

>  <r_i_glide_evdw>  (124) 
-6.7413

>  <r_i_glide_ecoul>  (124) 
0.274872

>  <r_i_glide_erotb>  (124) 
0

>  <r_i_glide_esite>  (124) 
0

>  <r_i_glide_emodel>  (124) 
-9.64871

>  <r_i_glide_energy>  (124) 
-6.46642

>  <r_i_glide_einternal>  (124) 
0

>  <r_i_glide_intrahb_reward>  (124) 
-0

>  <i_i_glide_confnum>  (124) 
1

>  <i_i_glide_posenum>  (124) 
27

>  <r_i_glide_eff_state_penalty>  (124) 
0

>  <ligand_id>  (124) 
36

>  <original_smiles>  (124) 
C1C2C3C4CC5C1C1C2C4C1C53

>  <smiles>  (124) 
[H]C1([H])C2([H])C3([H])C4([H])C([H])([H])C5([H])C1([H])C1([H])C2([H])C4([H])C1([H])C53[H]

$$$$
37:0:0
     RDKit          3D

 45 48  0  0  1  0  0  0  0  0999 V2000
    8.5429   -4.2184    0.2254 C   0  0  0  0  0  0  0  0  0  0  0  0
    7.0757   -3.8821    0.6108 C   0  0  2  0  0  0  0  0  0  0  0  0
    6.2407   -5.1811    0.7076 C   0  0  0  0  0  0  0  0  0  0  0  0
    5.3500   -5.3149    1.9602 C   0  0  0  0  0  0  0  0  0  0  0  0
    4.3136   -4.2014    2.2578 C   0  0  2  0  0  0  0  0  0  0  0  0
    3.7500   -4.4355    3.6769 C   0  0  0  0  0  0  0  0  0  0  0  0
    3.0770   -4.2006    1.2851 C   0  0  0  0  0  0  0  0  0  0  0  0
    3.2757   -3.9891   -0.2382 C   0  0  0  0  0  0  0  0  0  0  0  0
    3.8772   -2.6454   -0.7297 C   0  0  2  0  0  0  0  0  0  0  0  0
    4.1681   -2.6910   -2.2439 C   0  0  1  0  0  0  0  0  0  0  0  0
    4.1402   -1.2953   -2.8921 C   0  0  0  0  0  0  0  0  0  0  0  0
    5.4709   -3.4401   -2.5240 C   0  0  0  0  0  0  0  0  0  0  0  0
    6.6555   -2.8427   -1.7740 C   0  0  0  0  0  0  0  0  0  0  0  0
    6.4579   -2.7170   -0.2456 C   0  0  1  0  0  0  0  0  0  0  0  0
    5.0458   -2.1793    0.1546 C   0  0  1  0  0  0  0  0  0  0  0  0
    5.2570   -0.7712    0.0773 O   0  0  0  0  0  0  0  0  0  0  0  0
    5.4581   -0.7763    1.5794 O   0  0  0  0  0  0  0  0  0  0  0  0
    4.6391   -1.9259    1.5979 C   0  0  2  0  0  0  0  0  0  0  0  0
    5.0180   -2.9611    2.4604 O   0  0  0  0  0  0  0  0  0  0  0  0
    8.6198   -4.7630   -0.7114 H   0  0  0  0  0  0  0  0  0  0  0  0
    9.0072   -4.8444    0.9926 H   0  0  0  0  0  0  0  0  0  0  0  0
    9.1481   -3.3149    0.1345 H   0  0  0  0  0  0  0  0  0  0  0  0
    7.1896   -3.5059    1.6305 H   0  0  0  0  0  0  0  0  0  0  0  0
    5.7147   -5.3626   -0.2158 H   0  0  0  0  0  0  0  0  0  0  0  0
    6.9268   -6.0260    0.7602 H   0  0  0  0  0  0  0  0  0  0  0  0
    4.8286   -6.2692    1.9069 H   0  0  0  0  0  0  0  0  0  0  0  0
    6.0152   -5.3980    2.8195 H   0  0  0  0  0  0  0  0  0  0  0  0
    3.2124   -5.3854    3.7447 H   0  0  0  0  0  0  0  0  0  0  0  0
    3.0548   -3.6398    3.9544 H   0  0  0  0  0  0  0  0  0  0  0  0
    4.5409   -4.4452    4.4251 H   0  0  0  0  0  0  0  0  0  0  0  0
    2.6097   -5.1800    1.3874 H   0  0  0  0  0  0  0  0  0  0  0  0
    2.3257   -3.4959    1.6411 H   0  0  0  0  0  0  0  0  0  0  0  0
    3.8020   -4.8385   -0.6607 H   0  0  0  0  0  0  0  0  0  0  0  0
    2.2869   -4.0777   -0.6964 H   0  0  0  0  0  0  0  0  0  0  0  0
    3.0611   -1.9331   -0.5920 H   0  0  0  0  0  0  0  0  0  0  0  0
    3.3592   -3.2488   -2.7209 H   0  0  0  0  0  0  0  0  0  0  0  0
    4.9115   -0.6318   -2.5018 H   0  0  0  0  0  0  0  0  0  0  0  0
    3.1777   -0.8023   -2.7218 H   0  0  0  0  0  0  0  0  0  0  0  0
    4.2772   -1.3660   -3.9721 H   0  0  0  0  0  0  0  0  0  0  0  0
    5.3610   -4.4908   -2.2561 H   0  0  0  0  0  0  0  0  0  0  0  0
    5.6764   -3.4448   -3.5942 H   0  0  0  0  0  0  0  0  0  0  0  0
    7.5634   -3.3839   -2.0390 H   0  0  0  0  0  0  0  0  0  0  0  0
    6.8181   -1.8571   -2.1691 H   0  0  0  0  0  0  0  0  0  0  0  0
    7.1691   -1.9339    0.0200 H   0  0  0  0  0  0  0  0  0  0  0  0
    3.5944   -1.6485    1.6933 H   0  0  0  0  0  0  0  0  0  0  0  0
  1  2  1  0
  1 20  1  0
  1 21  1  0
  1 22  1  0
  2 14  1  0
  2  3  1  0
  2 23  1  1
  3  4  1  0
  3 24  1  0
  3 25  1  0
  4  5  1  0
  4 26  1  0
  4 27  1  0
  5 19  1  0
  5  6  1  1
  5  7  1  0
  6 28  1  0
  6 29  1  0
  6 30  1  0
  7  8  1  0
  7 31  1  0
  7 32  1  0
  8  9  1  0
  8 33  1  0
  8 34  1  0
  9 15  1  0
  9 10  1  0
  9 35  1  6
 10 11  1  0
 10 12  1  0
 10 36  1  6
 11 37  1  0
 11 38  1  0
 11 39  1  0
 12 13  1  0
 12 40  1  0
 12 41  1  0
 13 14  1  0
 13 42  1  0
 13 43  1  0
 14 15  1  0
 14 44  1  1
 15 18  1  0
 15 16  1  6
 16 17  1  0
 17 18  1  0
 18 19  1  0
 18 45  1  6
M  END
>  <i_m_ct_stereo_status>  (125) 
1

>  <s_m_source_file>  (125) 
/var/tmp/pbs.5076255.sched01/tmp7w47f283/46ruht8ay8.sdf

>  <i_m_source_file_index>  (125) 
9

>  <i_lp_mmshare_version>  (125) 
48012

>  <i_f3d_flags>  (125) 
0

>  <s_epik_input>  (125) 
W0NIM11bQ0BIXTFbQ0gyXVtDSDJdW0NAQEhdMltDQEhdKFtDSDNdKVtDSDJdW0NIMl1bQ0BdKFtDSDNdKShbQ0gyXVtDSDJdW0NASF0xW0NAQF0yMzQpT1tDQEhdNE9PMw==

>  <s_epik_cmdline>  (125) 
J2VwaWtfcHl0aG9uJywgJy1waHQnLCAnMi4wJywgJy1waCcsICc3LjAnLCAnLXRuJywgJzgnLCAnLW1hJywgJzIwMCcsICctaW1hZScsICc8aW5maWxlLm1hZT4nLCAnLW9tYWUnLCAnPG91dGZpbGUubWFlPic=

>  <r_lp_tautomer_probability>  (125) 
1

>  <r_epik_Ionization_Penalty>  (125) 
3.45998e-14

>  <r_epik_Ionization_Penalty_Charging>  (125) 
0

>  <r_epik_Ionization_Penalty_Neutral>  (125) 
3.45998e-14

>  <r_epik_State_Penalty>  (125) 
-0

>  <r_epik_Charging_Adjusted_Penalty>  (125) 
0

>  <i_epik_Tot_Q>  (125) 
0

>  <i_epik_Tot_abs_Q>  (125) 
0

>  <s_epik_Chemistry_Notes>  (125) 
This compound contains an acetal/aminal-like group ( X-CH(R)-Y where X, Y are N, S, or O) that may be acid/base labile, releasing an aldehyde.

>  <s_lp_Force_Field>  (125) 
OPLS3e

>  <r_lp_Energy>  (125) 
55.3209

>  <b_lp_Chiralities_Consistent>  (125) 
1

>  <s_lp_Variant>  (125) 
37:0-1

>  <s_i_glide_gridfile>  (125) 
pfpi4k_grid

>  <i_i_glide_lignum>  (125) 
9

>  <i_i_glide_rotatable_bonds>  (125) 
0

>  <r_i_docking_score>  (125) 
-3.55138

>  <r_i_glide_ligand_efficiency>  (125) 
-0.186915

>  <r_i_glide_ligand_efficiency_sa>  (125) 
-0.498764

>  <r_i_glide_ligand_efficiency_ln>  (125) 
-0.900351

>  <r_i_glide_gscore>  (125) 
-3.55138

>  <r_i_glide_lipo>  (125) 
-0.542293

>  <r_i_glide_hbond>  (125) 
0

>  <r_i_glide_metal>  (125) 
-0

>  <r_i_glide_rewards>  (125) 
-1.6349

>  <r_i_glide_evdw>  (125) 
-25.9014

>  <r_i_glide_ecoul>  (125) 
-0.527418

>  <r_i_glide_erotb>  (125) 
0

>  <r_i_glide_esite>  (125) 
0

>  <r_i_glide_emodel>  (125) 
-32.1601

>  <r_i_glide_energy>  (125) 
-26.4288

>  <r_i_glide_einternal>  (125) 
0

>  <r_i_glide_intrahb_reward>  (125) 
-0

>  <i_i_glide_confnum>  (125) 
2

>  <i_i_glide_posenum>  (125) 
1

>  <r_i_glide_eff_state_penalty>  (125) 
0

>  <ligand_id>  (125) 
37

>  <original_smiles>  (125) 
CC1CCC2(C)CCC3C(C)CCC1C31OOC1O2

>  <smiles>  (125) 
[H]C([H])([H])C1([H])C([H])([H])C([H])([H])C2(C([H])([H])[H])OC3([H])OOC34C1([H])C([H])([H])C([H])([H])C([H])(C([H])([H])[H])C4([H])C([H])([H])C2([H])[H]

$$$$
37:0:1
     RDKit          3D

 45 48  0  0  1  0  0  0  0  0999 V2000
    5.6010   -0.6260    2.8608 C   0  0  0  0  0  0  0  0  0  0  0  0
    5.4006   -1.4423    1.5624 C   0  0  2  0  0  0  0  0  0  0  0  0
    3.9692   -1.2321    1.0491 C   0  0  0  0  0  0  0  0  0  0  0  0
    3.8605   -0.9412   -0.4531 C   0  0  0  0  0  0  0  0  0  0  0  0
    4.4412   -1.9260   -1.4886 C   0  0  2  0  0  0  0  0  0  0  0  0
    4.3845   -1.2653   -2.8761 C   0  0  0  0  0  0  0  0  0  0  0  0
    3.6196   -3.2576   -1.5999 C   0  0  0  0  0  0  0  0  0  0  0  0
    3.4358   -4.1795   -0.3633 C   0  0  0  0  0  0  0  0  0  0  0  0
    4.7013   -4.8069    0.2642 C   0  0  2  0  0  0  0  0  0  0  0  0
    4.3447   -5.5513    1.5760 C   0  0  1  0  0  0  0  0  0  0  0  0
    5.3402   -6.6747    1.9040 C   0  0  0  0  0  0  0  0  0  0  0  0
    4.1675   -4.5591    2.7302 C   0  0  0  0  0  0  0  0  0  0  0  0
    5.4019   -3.6974    2.9278 C   0  0  0  0  0  0  0  0  0  0  0  0
    5.8760   -2.9254    1.6603 C   0  0  1  0  0  0  0  0  0  0  0  0
    5.8530   -3.8078    0.3726 C   0  0  1  0  0  0  0  0  0  0  0  0
    7.1435   -4.4410    0.4316 O   0  0  0  0  0  0  0  0  0  0  0  0
    7.6610   -3.3869   -0.5214 O   0  0  0  0  0  0  0  0  0  0  0  0
    6.3153   -3.2707   -0.9826 C   0  0  2  0  0  0  0  0  0  0  0  0
    5.8608   -1.9933   -1.2860 O   0  0  0  0  0  0  0  0  0  0  0  0
    4.8910   -0.9012    3.6442 H   0  0  0  0  0  0  0  0  0  0  0  0
    5.4609    0.4394    2.6805 H   0  0  0  0  0  0  0  0  0  0  0  0
    6.6063   -0.7232    3.2521 H   0  0  0  0  0  0  0  0  0  0  0  0
    6.0682   -0.9316    0.8629 H   0  0  0  0  0  0  0  0  0  0  0  0
    3.3111   -2.0187    1.3892 H   0  0  0  0  0  0  0  0  0  0  0  0
    3.5460   -0.3480    1.5303 H   0  0  0  0  0  0  0  0  0  0  0  0
    2.8134   -0.7929   -0.6794 H   0  0  0  0  0  0  0  0  0  0  0  0
    4.3288    0.0299   -0.6142 H   0  0  0  0  0  0  0  0  0  0  0  0
    3.3611   -1.0701   -3.1987 H   0  0  0  0  0  0  0  0  0  0  0  0
    4.8571   -1.9088   -3.6240 H   0  0  0  0  0  0  0  0  0  0  0  0
    4.9246   -0.3151   -2.8787 H   0  0  0  0  0  0  0  0  0  0  0  0
    2.6127   -2.9773   -1.9087 H   0  0  0  0  0  0  0  0  0  0  0  0
    4.0024   -3.8560   -2.4329 H   0  0  0  0  0  0  0  0  0  0  0  0
    2.8093   -3.6884    0.3723 H   0  0  0  0  0  0  0  0  0  0  0  0
    2.8052   -5.0030   -0.6953 H   0  0  0  0  0  0  0  0  0  0  0  0
    4.9988   -5.5732   -0.4506 H   0  0  0  0  0  0  0  0  0  0  0  0
    3.3869   -6.0479    1.4229 H   0  0  0  0  0  0  0  0  0  0  0  0
    6.3507   -6.3087    2.0860 H   0  0  0  0  0  0  0  0  0  0  0  0
    5.4018   -7.3985    1.0914 H   0  0  0  0  0  0  0  0  0  0  0  0
    5.0259   -7.2207    2.7947 H   0  0  0  0  0  0  0  0  0  0  0  0
    3.3024   -3.9211    2.5614 H   0  0  0  0  0  0  0  0  0  0  0  0
    3.9515   -5.1015    3.6522 H   0  0  0  0  0  0  0  0  0  0  0  0
    5.2642   -3.0403    3.7779 H   0  0  0  0  0  0  0  0  0  0  0  0
    6.2152   -4.3602    3.2267 H   0  0  0  0  0  0  0  0  0  0  0  0
    6.9234   -2.7455    1.8702 H   0  0  0  0  0  0  0  0  0  0  0  0
    6.1394   -3.9738   -1.7892 H   0  0  0  0  0  0  0  0  0  0  0  0
  1  2  1  0
  1 20  1  0
  1 21  1  0
  1 22  1  0
  2 14  1  0
  2  3  1  0
  2 23  1  6
  3  4  1  0
  3 24  1  0
  3 25  1  0
  4  5  1  0
  4 26  1  0
  4 27  1  0
  5 19  1  0
  5  6  1  6
  5  7  1  0
  6 28  1  0
  6 29  1  0
  6 30  1  0
  7  8  1  0
  7 31  1  0
  7 32  1  0
  8  9  1  0
  8 33  1  0
  8 34  1  0
  9 15  1  0
  9 10  1  0
  9 35  1  6
 10 11  1  0
 10 12  1  0
 10 36  1  6
 11 37  1  0
 11 38  1  0
 11 39  1  0
 12 13  1  0
 12 40  1  0
 12 41  1  0
 13 14  1  0
 13 42  1  0
 13 43  1  0
 14 15  1  0
 14 44  1  1
 15 18  1  0
 15 16  1  1
 16 17  1  0
 17 18  1  0
 18 19  1  0
 18 45  1  6
M  END
>  <i_m_ct_stereo_status>  (126) 
1

>  <s_m_source_file>  (126) 
/var/tmp/pbs.5076255.sched01/tmp7w47f283/46ruht8ay8.sdf

>  <i_m_source_file_index>  (126) 
9

>  <i_lp_mmshare_version>  (126) 
48012

>  <i_f3d_flags>  (126) 
0

>  <s_epik_input>  (126) 
W0NIM11bQ0BIXTFbQ0gyXVtDSDJdW0NAQEhdMltDQEhdKFtDSDNdKVtDSDJdW0NIMl1bQ0BdKFtDSDNdKShbQ0gyXVtDSDJdW0NASF0xW0NAQF0yMzQpT1tDQEhdNE9PMw==

>  <s_epik_cmdline>  (126) 
J2VwaWtfcHl0aG9uJywgJy1waHQnLCAnMi4wJywgJy1waCcsICc3LjAnLCAnLXRuJywgJzgnLCAnLW1hJywgJzIwMCcsICctaW1hZScsICc8aW5maWxlLm1hZT4nLCAnLW9tYWUnLCAnPG91dGZpbGUubWFlPic=

>  <r_lp_tautomer_probability>  (126) 
1

>  <r_epik_Ionization_Penalty>  (126) 
3.45998e-14

>  <r_epik_Ionization_Penalty_Charging>  (126) 
0

>  <r_epik_Ionization_Penalty_Neutral>  (126) 
3.45998e-14

>  <r_epik_State_Penalty>  (126) 
-0

>  <r_epik_Charging_Adjusted_Penalty>  (126) 
0

>  <i_epik_Tot_Q>  (126) 
0

>  <i_epik_Tot_abs_Q>  (126) 
0

>  <s_epik_Chemistry_Notes>  (126) 
This compound contains an acetal/aminal-like group ( X-CH(R)-Y where X, Y are N, S, or O) that may be acid/base labile, releasing an aldehyde.

>  <s_lp_Force_Field>  (126) 
OPLS3e

>  <r_lp_Energy>  (126) 
55.3209

>  <b_lp_Chiralities_Consistent>  (126) 
1

>  <s_lp_Variant>  (126) 
37:0-1

>  <s_i_glide_gridfile>  (126) 
pfpi4k_grid

>  <i_i_glide_lignum>  (126) 
9

>  <i_i_glide_rotatable_bonds>  (126) 
0

>  <r_i_docking_score>  (126) 
-3.51772

>  <r_i_glide_ligand_efficiency>  (126) 
-0.185143

>  <r_i_glide_ligand_efficiency_sa>  (126) 
-0.494036

>  <r_i_glide_ligand_efficiency_ln>  (126) 
-0.891817

>  <r_i_glide_gscore>  (126) 
-3.51772

>  <r_i_glide_lipo>  (126) 
-0.522724

>  <r_i_glide_hbond>  (126) 
-0.0188878

>  <r_i_glide_metal>  (126) 
-0

>  <r_i_glide_rewards>  (126) 
-1.73952

>  <r_i_glide_evdw>  (126) 
-18.6184

>  <r_i_glide_ecoul>  (126) 
-2.03775

>  <r_i_glide_erotb>  (126) 
0

>  <r_i_glide_esite>  (126) 
0

>  <r_i_glide_emodel>  (126) 
-26.3081

>  <r_i_glide_energy>  (126) 
-20.6561

>  <r_i_glide_einternal>  (126) 
0

>  <r_i_glide_intrahb_reward>  (126) 
-0

>  <i_i_glide_confnum>  (126) 
1

>  <i_i_glide_posenum>  (126) 
2

>  <r_i_glide_eff_state_penalty>  (126) 
0

>  <ligand_id>  (126) 
37

>  <original_smiles>  (126) 
CC1CCC2(C)CCC3C(C)CCC1C31OOC1O2

>  <smiles>  (126) 
[H]C([H])([H])C1([H])C([H])([H])C([H])([H])C2(C([H])([H])[H])OC3([H])OOC34C1([H])C([H])([H])C([H])([H])C([H])(C([H])([H])[H])C4([H])C([H])([H])C2([H])[H]

$$$$
37:0:2
     RDKit          3D

 45 48  0  0  1  0  0  0  0  0999 V2000
    4.9719   -1.7554    3.9706 C   0  0  0  0  0  0  0  0  0  0  0  0
    4.8953   -2.2775    2.5158 C   0  0  2  0  0  0  0  0  0  0  0  0
    3.6854   -1.6301    1.8062 C   0  0  0  0  0  0  0  0  0  0  0  0
    3.9499   -1.0652    0.3964 C   0  0  0  0  0  0  0  0  0  0  0  0
    4.5452   -2.0099   -0.6817 C   0  0  2  0  0  0  0  0  0  0  0  0
    4.9363   -1.1604   -1.8997 C   0  0  0  0  0  0  0  0  0  0  0  0
    3.5172   -3.0743   -1.2162 C   0  0  0  0  0  0  0  0  0  0  0  0
    2.8925   -4.1121   -0.2465 C   0  0  0  0  0  0  0  0  0  0  0  0
    3.8203   -5.1171    0.4614 C   0  0  2  0  0  0  0  0  0  0  0  0
    3.0448   -5.9516    1.5146 C   0  0  1  0  0  0  0  0  0  0  0  0
    3.6844   -7.3239    1.7726 C   0  0  0  0  0  0  0  0  0  0  0  0
    2.8358   -5.1476    2.8004 C   0  0  0  0  0  0  0  0  0  0  0  0
    4.1615   -4.6637    3.3857 C   0  0  0  0  0  0  0  0  0  0  0  0
    5.0322   -3.8282    2.3992 C   0  0  1  0  0  0  0  0  0  0  0  0
    5.0927   -4.4414    0.9626 C   0  0  1  0  0  0  0  0  0  0  0  0
    6.1724   -5.3811    1.1192 O   0  0  0  0  0  0  0  0  0  0  0  0
    7.1006   -4.3445    0.5126 O   0  0  0  0  0  0  0  0  0  0  0  0
    5.9346   -3.8400   -0.1541 C   0  0  2  0  0  0  0  0  0  0  0  0
    5.8336   -2.4574   -0.2439 O   0  0  0  0  0  0  0  0  0  0  0  0
    4.0546   -1.9422    4.5318 H   0  0  0  0  0  0  0  0  0  0  0  0
    5.1350   -0.6737    3.9972 H   0  0  0  0  0  0  0  0  0  0  0  0
    5.7991   -2.2114    4.5230 H   0  0  0  0  0  0  0  0  0  0  0  0
    5.7916   -1.8381    2.0680 H   0  0  0  0  0  0  0  0  0  0  0  0
    2.8255   -2.2811    1.8531 H   0  0  0  0  0  0  0  0  0  0  0  0
    3.3563   -0.7696    2.3896 H   0  0  0  0  0  0  0  0  0  0  0  0
    3.0160   -0.6546    0.0171 H   0  0  0  0  0  0  0  0  0  0  0  0
    4.6213   -0.2109    0.5056 H   0  0  0  0  0  0  0  0  0  0  0  0
    4.0771   -0.6652   -2.3557 H   0  0  0  0  0  0  0  0  0  0  0  0
    5.4097   -1.7769   -2.6669 H   0  0  0  0  0  0  0  0  0  0  0  0
    5.6484   -0.3832   -1.6235 H   0  0  0  0  0  0  0  0  0  0  0  0
    2.6776   -2.5199   -1.6329 H   0  0  0  0  0  0  0  0  0  0  0  0
    3.9382   -3.6101   -2.0751 H   0  0  0  0  0  0  0  0  0  0  0  0
    2.2358   -3.6028    0.4495 H   0  0  0  0  0  0  0  0  0  0  0  0
    2.1851   -4.6809   -0.8406 H   0  0  0  0  0  0  0  0  0  0  0  0
    4.1048   -5.8197   -0.3201 H   0  0  0  0  0  0  0  0  0  0  0  0
    2.0610   -6.1689    1.0924 H   0  0  0  0  0  0  0  0  0  0  0  0
    4.6827   -7.2451    2.1995 H   0  0  0  0  0  0  0  0  0  0  0  0
    3.7768   -7.9026    0.8529 H   0  0  0  0  0  0  0  0  0  0  0  0
    3.0776   -7.9113    2.4593 H   0  0  0  0  0  0  0  0  0  0  0  0
    2.1858   -4.2967    2.6123 H   0  0  0  0  0  0  0  0  0  0  0  0
    2.3103   -5.7565    3.5319 H   0  0  0  0  0  0  0  0  0  0  0  0
    3.9626   -4.1248    4.3068 H   0  0  0  0  0  0  0  0  0  0  0  0
    4.7427   -5.5357    3.6913 H   0  0  0  0  0  0  0  0  0  0  0  0
    6.0200   -3.9499    2.8366 H   0  0  0  0  0  0  0  0  0  0  0  0
    5.7944   -4.3711   -1.0954 H   0  0  0  0  0  0  0  0  0  0  0  0
  1  2  1  0
  1 20  1  0
  1 21  1  0
  1 22  1  0
  2 14  1  0
  2  3  1  0
  2 23  1  6
  3  4  1  0
  3 24  1  0
  3 25  1  0
  4  5  1  0
  4 26  1  0
  4 27  1  0
  5 19  1  0
  5  6  1  6
  5  7  1  0
  6 28  1  0
  6 29  1  0
  6 30  1  0
  7  8  1  0
  7 31  1  0
  7 32  1  0
  8  9  1  0
  8 33  1  0
  8 34  1  0
  9 15  1  0
  9 10  1  0
  9 35  1  6
 10 11  1  0
 10 12  1  0
 10 36  1  6
 11 37  1  0
 11 38  1  0
 11 39  1  0
 12 13  1  0
 12 40  1  0
 12 41  1  0
 13 14  1  0
 13 42  1  0
 13 43  1  0
 14 15  1  0
 14 44  1  1
 15 18  1  0
 15 16  1  1
 16 17  1  0
 17 18  1  0
 18 19  1  0
 18 45  1  6
M  END
>  <i_m_ct_stereo_status>  (127) 
1

>  <s_m_source_file>  (127) 
/var/tmp/pbs.5076255.sched01/tmp7w47f283/46ruht8ay8.sdf

>  <i_m_source_file_index>  (127) 
9

>  <i_lp_mmshare_version>  (127) 
48012

>  <i_f3d_flags>  (127) 
0

>  <s_epik_input>  (127) 
W0NIM11bQ0BIXTFbQ0gyXVtDSDJdW0NAQEhdMltDQEhdKFtDSDNdKVtDSDJdW0NIMl1bQ0BdKFtDSDNdKShbQ0gyXVtDSDJdW0NASF0xW0NAQF0yMzQpT1tDQEhdNE9PMw==

>  <s_epik_cmdline>  (127) 
J2VwaWtfcHl0aG9uJywgJy1waHQnLCAnMi4wJywgJy1waCcsICc3LjAnLCAnLXRuJywgJzgnLCAnLW1hJywgJzIwMCcsICctaW1hZScsICc8aW5maWxlLm1hZT4nLCAnLW9tYWUnLCAnPG91dGZpbGUubWFlPic=

>  <r_lp_tautomer_probability>  (127) 
1

>  <r_epik_Ionization_Penalty>  (127) 
3.45998e-14

>  <r_epik_Ionization_Penalty_Charging>  (127) 
0

>  <r_epik_Ionization_Penalty_Neutral>  (127) 
3.45998e-14

>  <r_epik_State_Penalty>  (127) 
-0

>  <r_epik_Charging_Adjusted_Penalty>  (127) 
0

>  <i_epik_Tot_Q>  (127) 
0

>  <i_epik_Tot_abs_Q>  (127) 
0

>  <s_epik_Chemistry_Notes>  (127) 
This compound contains an acetal/aminal-like group ( X-CH(R)-Y where X, Y are N, S, or O) that may be acid/base labile, releasing an aldehyde.

>  <s_lp_Force_Field>  (127) 
OPLS3e

>  <r_lp_Energy>  (127) 
55.3209

>  <b_lp_Chiralities_Consistent>  (127) 
1

>  <s_lp_Variant>  (127) 
37:0-1

>  <s_i_glide_gridfile>  (127) 
pfpi4k_grid

>  <i_i_glide_lignum>  (127) 
9

>  <i_i_glide_rotatable_bonds>  (127) 
0

>  <r_i_docking_score>  (127) 
-3.20128

>  <r_i_glide_ligand_efficiency>  (127) 
-0.168488

>  <r_i_glide_ligand_efficiency_sa>  (127) 
-0.449595

>  <r_i_glide_ligand_efficiency_ln>  (127) 
-0.811593

>  <r_i_glide_gscore>  (127) 
-3.20128

>  <r_i_glide_lipo>  (127) 
-0.261064

>  <r_i_glide_hbond>  (127) 
0

>  <r_i_glide_metal>  (127) 
-0

>  <r_i_glide_rewards>  (127) 
-1.67855

>  <r_i_glide_evdw>  (127) 
-20.7415

>  <r_i_glide_ecoul>  (127) 
-1.4973

>  <r_i_glide_erotb>  (127) 
0

>  <r_i_glide_esite>  (127) 
0

>  <r_i_glide_emodel>  (127) 
-27.391

>  <r_i_glide_energy>  (127) 
-22.2388

>  <r_i_glide_einternal>  (127) 
0

>  <r_i_glide_intrahb_reward>  (127) 
-0

>  <i_i_glide_confnum>  (127) 
1

>  <i_i_glide_posenum>  (127) 
29

>  <r_i_glide_eff_state_penalty>  (127) 
0

>  <ligand_id>  (127) 
37

>  <original_smiles>  (127) 
CC1CCC2(C)CCC3C(C)CCC1C31OOC1O2

>  <smiles>  (127) 
[H]C([H])([H])C1([H])C([H])([H])C([H])([H])C2(C([H])([H])[H])OC3([H])OOC34C1([H])C([H])([H])C([H])([H])C([H])(C([H])([H])[H])C4([H])C([H])([H])C2([H])[H]

$$$$
38:0:0
     RDKit          3D

 82 87  0  0  1  0  0  0  0  0999 V2000
    2.9867   -2.5610    1.3521 C   0  0  0  0  0  0  0  0  0  0  0  0
    3.9800   -3.6205    1.8821 C   0  0  2  0  0  0  0  0  0  0  0  0
    4.1013   -4.8456    0.9669 C   0  0  0  0  0  0  0  0  0  0  0  0
    2.7899   -5.6260    0.9071 C   0  0  0  0  0  0  0  0  0  0  0  0
    2.1521   -6.0442    2.2768 C   0  0  1  0  0  0  0  0  0  0  0  0
    0.6157   -6.2650    2.0177 C   0  0  0  0  0  0  0  0  0  0  0  0
    0.2083   -6.3119    0.8353 O   0  0  0  0  0  0  0  0  0  0  0  0
   -0.1735   -6.2609    2.9888 O   0  0  0  0  0  0  0  0  0  0  0  0
    2.7590   -7.3765    2.7602 C   0  0  0  0  0  0  0  0  0  0  0  0
    2.1444   -7.8751    4.0809 C   0  0  0  0  0  0  0  0  0  0  0  0
    2.2876   -6.8738    5.2588 C   0  0  2  0  0  0  0  0  0  0  0  0
    3.7253   -7.0428    5.7952 C   0  0  0  0  0  0  0  0  0  0  0  0
    1.3259   -7.3546    6.3691 C   0  0  0  0  0  0  0  0  0  0  0  0
    1.1616   -6.3320    7.4867 C   0  0  0  0  0  0  0  0  0  0  0  0
    0.5668   -4.9975    6.9847 C   0  0  2  0  0  0  0  0  0  0  0  0
   -0.9318   -5.2606    6.6539 C   0  0  0  0  0  0  0  0  0  0  0  0
    1.1760   -4.5775    5.6268 C   0  0  0  0  0  0  0  0  0  0  0  0
    1.9561   -5.3983    4.8473 C   0  0  0  0  0  0  0  0  0  0  0  0
    2.3628   -4.9582    3.4036 C   0  0  1  0  0  0  0  0  0  0  0  0
    3.6661   -4.0800    3.3239 C   0  0  1  0  0  0  0  0  0  0  0  0
    4.9477   -4.6352    3.9802 C   0  0  0  0  0  0  0  0  0  0  0  0
    0.7104   -3.1963    5.1198 C   0  0  0  0  0  0  0  0  0  0  0  0
    0.2455   -2.1783    6.1721 C   0  0  0  0  0  0  0  0  0  0  0  0
   -0.4057   -1.2063    5.7834 O   0  0  0  0  0  0  0  0  0  0  0  0
    0.5780   -2.4313    7.6161 C   0  0  2  0  0  0  0  0  0  0  0  0
    1.9194   -1.9815    8.2130 C   0  0  2  0  0  0  0  0  0  0  0  0
    1.7826   -0.9585    9.3602 C   0  0  0  0  0  0  0  0  0  0  0  0
    3.1001   -1.6069    7.2800 C   0  0  1  0  0  0  0  0  0  0  0  0
    3.4568   -0.1179    7.1284 C   0  0  0  0  0  0  0  0  0  0  0  0
    4.2504   -2.5491    7.6523 C   0  0  1  0  0  0  0  0  0  0  0  0
    4.9497   -2.0644    8.7864 O   0  0  0  0  0  0  0  0  0  0  0  0
    3.4902   -3.8537    7.9625 C   0  0  1  0  0  0  0  0  0  0  0  0
    4.2622   -4.7936    8.6999 O   0  0  0  0  0  0  0  0  0  0  0  0
    2.1521   -3.4494    8.6255 C   0  0  1  0  0  0  0  0  0  0  0  0
    2.3144   -3.6484   10.0158 O   0  0  0  0  0  0  0  0  0  0  0  0
    0.7321   -3.8797    8.0929 C   0  0  2  0  0  0  0  0  0  0  0  0
   -0.2784   -4.1805    9.2354 C   0  0  0  0  0  0  0  0  0  0  0  0
    1.9623   -2.9312    1.3080 H   0  0  0  0  0  0  0  0  0  0  0  0
    3.2562   -2.2389    0.3443 H   0  0  0  0  0  0  0  0  0  0  0  0
    2.9812   -1.6736    1.9894 H   0  0  0  0  0  0  0  0  0  0  0  0
    4.9557   -3.1265    1.8804 H   0  0  0  0  0  0  0  0  0  0  0  0
    4.3779   -4.5322   -0.0392 H   0  0  0  0  0  0  0  0  0  0  0  0
    4.9018   -5.5009    1.3042 H   0  0  0  0  0  0  0  0  0  0  0  0
    2.1158   -4.9950    0.3320 H   0  0  0  0  0  0  0  0  0  0  0  0
    2.9422   -6.5095    0.2957 H   0  0  0  0  0  0  0  0  0  0  0  0
    2.6159   -8.1436    2.0033 H   0  0  0  0  0  0  0  0  0  0  0  0
    3.8388   -7.2757    2.8633 H   0  0  0  0  0  0  0  0  0  0  0  0
    1.0955   -8.1298    3.9274 H   0  0  0  0  0  0  0  0  0  0  0  0
    2.5940   -8.8314    4.3555 H   0  0  0  0  0  0  0  0  0  0  0  0
    3.8477   -8.0143    6.2739 H   0  0  0  0  0  0  0  0  0  0  0  0
    3.9974   -6.2935    6.5299 H   0  0  0  0  0  0  0  0  0  0  0  0
    4.4677   -7.0261    5.0039 H   0  0  0  0  0  0  0  0  0  0  0  0
    0.3465   -7.5826    5.9483 H   0  0  0  0  0  0  0  0  0  0  0  0
    1.6762   -8.2962    6.7868 H   0  0  0  0  0  0  0  0  0  0  0  0
    0.5327   -6.7619    8.2645 H   0  0  0  0  0  0  0  0  0  0  0  0
    2.1223   -6.1753    7.9619 H   0  0  0  0  0  0  0  0  0  0  0  0
   -1.4248   -5.8353    7.4388 H   0  0  0  0  0  0  0  0  0  0  0  0
   -1.0319   -5.8361    5.7319 H   0  0  0  0  0  0  0  0  0  0  0  0
   -1.5010   -4.3380    6.4991 H   0  0  0  0  0  0  0  0  0  0  0  0
    1.5951   -4.2449    3.1065 H   0  0  0  0  0  0  0  0  0  0  0  0
    3.4715   -3.1681    3.8907 H   0  0  0  0  0  0  0  0  0  0  0  0
    5.2629   -5.5868    3.5536 H   0  0  0  0  0  0  0  0  0  0  0  0
    4.8328   -4.7421    5.0568 H   0  0  0  0  0  0  0  0  0  0  0  0
    5.7860   -3.9454    3.8446 H   0  0  0  0  0  0  0  0  0  0  0  0
    1.4791   -2.7061    4.5272 H   0  0  0  0  0  0  0  0  0  0  0  0
   -0.1455   -3.3645    4.4603 H   0  0  0  0  0  0  0  0  0  0  0  0
   -0.1881   -1.9696    8.2211 H   0  0  0  0  0  0  0  0  0  0  0  0
    2.7210   -0.8304    9.8984 H   0  0  0  0  0  0  0  0  0  0  0  0
    1.0428   -1.2752   10.0951 H   0  0  0  0  0  0  0  0  0  0  0  0
    1.4660    0.0175    8.9963 H   0  0  0  0  0  0  0  0  0  0  0  0
    2.8485   -1.9184    6.2749 H   0  0  0  0  0  0  0  0  0  0  0  0
    3.8140    0.3352    8.0566 H   0  0  0  0  0  0  0  0  0  0  0  0
    2.5905    0.4459    6.7780 H   0  0  0  0  0  0  0  0  0  0  0  0
    4.2404   -0.0074    6.3824 H   0  0  0  0  0  0  0  0  0  0  0  0
    4.9589   -2.6843    6.8313 H   0  0  0  0  0  0  0  0  0  0  0  0
    5.5615   -2.7433    9.0312 H   0  0  0  0  0  0  0  0  0  0  0  0
    3.2916   -4.2972    6.9932 H   0  0  0  0  0  0  0  0  0  0  0  0
    3.8559   -5.6436    8.5995 H   0  0  0  0  0  0  0  0  0  0  0  0
    2.7802   -4.4668   10.0935 H   0  0  0  0  0  0  0  0  0  0  0  0
   -0.2080   -3.4333   10.0235 H   0  0  0  0  0  0  0  0  0  0  0  0
   -0.1010   -5.1422    9.7177 H   0  0  0  0  0  0  0  0  0  0  0  0
   -1.3258   -4.1450    8.9238 H   0  0  0  0  0  0  0  0  0  0  0  0
  1  2  1  0
  1 38  1  0
  1 39  1  0
  1 40  1  0
  2 20  1  0
  2  3  1  0
  2 41  1  1
  3  4  1  0
  3 42  1  0
  3 43  1  0
  4  5  1  0
  4 44  1  0
  4 45  1  0
  5 19  1  0
  5  6  1  6
  5  9  1  0
  6  7  2  0
  6  8  1  0
  9 10  1  0
  9 46  1  0
  9 47  1  0
 10 11  1  0
 10 48  1  0
 10 49  1  0
 11 18  1  0
 11 12  1  1
 11 13  1  0
 12 50  1  0
 12 51  1  0
 12 52  1  0
 13 14  1  0
 13 53  1  0
 13 54  1  0
 14 15  1  0
 14 55  1  0
 14 56  1  0
 15 36  1  0
 15 16  1  6
 15 17  1  0
 16 57  1  0
 16 58  1  0
 16 59  1  0
 17 18  2  0
 17 22  1  0
 18 19  1  0
 19 20  1  0
 19 60  1  6
 20 21  1  0
 20 61  1  1
 21 62  1  0
 21 63  1  0
 21 64  1  0
 22 23  1  0
 22 65  1  0
 22 66  1  0
 23 24  2  0
 23 25  1  0
 25 36  1  0
 25 26  1  0
 25 67  1  1
 26 34  1  0
 26 27  1  1
 26 28  1  0
 27 68  1  0
 27 69  1  0
 27 70  1  0
 28 29  1  0
 28 30  1  0
 28 71  1  6
 29 72  1  0
 29 73  1  0
 29 74  1  0
 30 31  1  0
 30 32  1  0
 30 75  1  6
 31 76  1  0
 32 33  1  0
 32 34  1  0
 32 77  1  6
 33 78  1  0
 34 35  1  1
 34 36  1  0
 35 79  1  0
 36 37  1  1
 37 80  1  0
 37 81  1  0
 37 82  1  0
M  CHG  1   8  -1
M  END
>  <i_m_ct_stereo_status>  (128) 
1

>  <s_m_source_file>  (128) 
/var/tmp/pbs.5076255.sched01/tmp7w47f283/46ruht8ay8.sdf

>  <i_m_source_file_index>  (128) 
10

>  <i_lp_mmshare_version>  (128) 
48012

>  <i_f3d_flags>  (128) 
0

>  <s_epik_input>  (128) 
W0NIMl0xW0NIMl1bQ0BASF0oW0NIM10pW0NASF0oW0NIM10pW0NAQEhdKFtDQEBdMTJDKD1PKVtPSF0pQzM9QzRbQ0BAXShbQ0gzXSkoW0NIMl1bQ0gyXVtDQEBdMyhbQ0gzXSlbQ0gyXVtDSDJdMilbQ0BdNShbQ0gzXSlbQ0BIXShDKD1PKVtDSDJdNClbQ0BAXTYoW0NIM10pW0NAXTUoW09IXSlbQ0BIXShbT0hdKVtDQEhdKFtPSF0pW0NAQEhdNltDSDNd

>  <s_epik_cmdline>  (128) 
J2VwaWtfcHl0aG9uJywgJy1waHQnLCAnMi4wJywgJy1waCcsICc3LjAnLCAnLXRuJywgJzgnLCAnLW1hJywgJzIwMCcsICctaW1hZScsICc8aW5maWxlLm1hZT4nLCAnLW9tYWUnLCAnPG91dGZpbGUubWFlPic=

>  <r_epik_Ionization_Penalty>  (128) 
0.00662687

>  <r_epik_Ionization_Penalty_Charging>  (128) 
0.0066265

>  <r_epik_Ionization_Penalty_Neutral>  (128) 
3.62532e-07

>  <r_epik_State_Penalty>  (128) 
0.00491108

>  <r_epik_Charging_Adjusted_Penalty>  (128) 
0.0115376

>  <i_epik_Tot_Q>  (128) 
-1

>  <i_epik_Tot_abs_Q>  (128) 
1

>  <s_lp_Force_Field>  (128) 
OPLS3e

>  <r_lp_Energy>  (128) 
105.927

>  <b_lp_Chiralities_Consistent>  (128) 
1

>  <s_lp_Variant>  (128) 
38:0-1

>  <s_i_glide_gridfile>  (128) 
pfpi4k_grid

>  <i_i_glide_lignum>  (128) 
10

>  <i_i_glide_rotatable_bonds>  (128) 
4

>  <r_i_docking_score>  (128) 
-2.09793

>  <r_i_glide_ligand_efficiency>  (128) 
-0.0567008

>  <r_i_glide_ligand_efficiency_sa>  (128) 
-0.18894

>  <r_i_glide_ligand_efficiency_ln>  (128) 
-0.454992

>  <r_i_glide_gscore>  (128) 
-2.09793

>  <r_i_glide_lipo>  (128) 
-0.130748

>  <r_i_glide_hbond>  (128) 
-0.373846

>  <r_i_glide_metal>  (128) 
-0

>  <r_i_glide_rewards>  (128) 
0

>  <r_i_glide_evdw>  (128) 
-14.6415

>  <r_i_glide_ecoul>  (128) 
-5.00062

>  <r_i_glide_erotb>  (128) 
0

>  <r_i_glide_esite>  (128) 
-0.111165

>  <r_i_glide_emodel>  (128) 
-21.5685

>  <r_i_glide_energy>  (128) 
-19.6422

>  <r_i_glide_einternal>  (128) 
3.23396

>  <r_i_glide_intrahb_reward>  (128) 
-0

>  <i_i_glide_confnum>  (128) 
1

>  <i_i_glide_posenum>  (128) 
40

>  <r_i_glide_eff_state_penalty>  (128) 
0

>  <ligand_id>  (128) 
38

>  <original_smiles>  (128) 
CC1CCC2(C(=O)O)CCC3(C)CCC4(C)C(=C3C2C1C)CC(=O)C1C2(C)C(C)C(O)C(O)C2(O)C14C

>  <smiles>  (128) 
[H]OC1([H])C([H])(O[H])C2(O[H])C(C([H])([H])[H])(C3([H])C(=O)C([H])([H])C4=C5C6([H])C([H])(C([H])([H])[H])C([H])(C([H])([H])[H])C([H])([H])C([H])([H])C6(C(=O)[O-])C([H])([H])C([H])([H])C5(C([H])([H])[H])C([H])([H])C([H])([H])C4(C([H])([H])[H])C32C([H])([H])[H])C1([H])C([H])([H])[H]

$$$$
38:0:1
     RDKit          3D

 82 87  0  0  1  0  0  0  0  0999 V2000
    3.1734   -3.0853    7.2069 C   0  0  0  0  0  0  0  0  0  0  0  0
    4.0296   -1.8137    7.3976 C   0  0  2  0  0  0  0  0  0  0  0  0
    4.6452   -1.7240    8.7994 C   0  0  0  0  0  0  0  0  0  0  0  0
    3.5692   -1.5620    9.8798 C   0  0  0  0  0  0  0  0  0  0  0  0
    2.5457   -0.4047    9.6543 C   0  0  1  0  0  0  0  0  0  0  0  0
    1.2829   -0.8141   10.4830 C   0  0  0  0  0  0  0  0  0  0  0  0
    0.1906   -1.0326    9.9001 O   0  0  0  0  0  0  0  0  0  0  0  0
    1.4511   -0.9303   11.7159 O   0  0  0  0  0  0  0  0  0  0  0  0
    3.1114    0.9132   10.2257 C   0  0  0  0  0  0  0  0  0  0  0  0
    2.0993    2.0637   10.1201 C   0  0  0  0  0  0  0  0  0  0  0  0
    1.6557    2.3755    8.6681 C   0  0  2  0  0  0  0  0  0  0  0  0
    2.7933    3.1999    8.0246 C   0  0  0  0  0  0  0  0  0  0  0  0
    0.4268    3.3071    8.7731 C   0  0  0  0  0  0  0  0  0  0  0  0
   -0.2899    3.4823    7.4392 C   0  0  0  0  0  0  0  0  0  0  0  0
   -0.8370    2.1476    6.8877 C   0  0  2  0  0  0  0  0  0  0  0  0
   -2.0425    1.7409    7.7880 C   0  0  0  0  0  0  0  0  0  0  0  0
    0.1778    0.9950    7.0807 C   0  0  0  0  0  0  0  0  0  0  0  0
    1.3019    1.0821    7.8590 C   0  0  0  0  0  0  0  0  0  0  0  0
    2.1727   -0.1834    8.1398 C   0  0  1  0  0  0  0  0  0  0  0  0
    3.2726   -0.5067    7.0708 C   0  0  1  0  0  0  0  0  0  0  0  0
    4.2683    0.6094    6.7140 C   0  0  0  0  0  0  0  0  0  0  0  0
   -0.2448   -0.3425    6.4442 C   0  0  0  0  0  0  0  0  0  0  0  0
   -1.2148   -0.2860    5.2615 C   0  0  0  0  0  0  0  0  0  0  0  0
   -1.7862   -1.3367    4.9640 O   0  0  0  0  0  0  0  0  0  0  0  0
   -1.4326    1.0281    4.5688 C   0  0  2  0  0  0  0  0  0  0  0  0
   -0.4969    1.4971    3.4447 C   0  0  2  0  0  0  0  0  0  0  0  0
   -1.2048    1.6646    2.0888 C   0  0  0  0  0  0  0  0  0  0  0  0
    0.8822    0.8161    3.2493 C   0  0  1  0  0  0  0  0  0  0  0  0
    1.0656   -0.1480    2.0699 C   0  0  0  0  0  0  0  0  0  0  0  0
    1.9237    1.9355    3.3719 C   0  0  1  0  0  0  0  0  0  0  0  0
    2.0613    2.6583    2.1556 O   0  0  0  0  0  0  0  0  0  0  0  0
    1.3101    2.8033    4.4851 C   0  0  1  0  0  0  0  0  0  0  0  0
    1.9143    4.0811    4.5760 O   0  0  0  0  0  0  0  0  0  0  0  0
   -0.2207    2.7769    4.2748 C   0  0  1  0  0  0  0  0  0  0  0  0
   -0.5639    4.0013    3.6391 O   0  0  0  0  0  0  0  0  0  0  0  0
   -1.2597    2.3213    5.3737 C   0  0  2  0  0  0  0  0  0  0  0  0
   -2.5641    3.1488    5.3333 C   0  0  0  0  0  0  0  0  0  0  0  0
    2.3099   -3.1144    7.8718 H   0  0  0  0  0  0  0  0  0  0  0  0
    3.7608   -3.9830    7.4049 H   0  0  0  0  0  0  0  0  0  0  0  0
    2.8001   -3.1574    6.1844 H   0  0  0  0  0  0  0  0  0  0  0  0
    4.8546   -1.9141    6.6900 H   0  0  0  0  0  0  0  0  0  0  0  0
    5.2452   -2.6114    9.0020 H   0  0  0  0  0  0  0  0  0  0  0  0
    5.3408   -0.8870    8.8489 H   0  0  0  0  0  0  0  0  0  0  0  0
    3.0446   -2.5140    9.9759 H   0  0  0  0  0  0  0  0  0  0  0  0
    4.0635   -1.4330   10.8426 H   0  0  0  0  0  0  0  0  0  0  0  0
    3.3856    0.7877   11.2727 H   0  0  0  0  0  0  0  0  0  0  0  0
    4.0419    1.1686    9.7214 H   0  0  0  0  0  0  0  0  0  0  0  0
    1.2316    1.8375   10.7415 H   0  0  0  0  0  0  0  0  0  0  0  0
    2.5273    2.9568   10.5740 H   0  0  0  0  0  0  0  0  0  0  0  0
    2.8606    4.1923    8.4685 H   0  0  0  0  0  0  0  0  0  0  0  0
    2.6524    3.3481    6.9608 H   0  0  0  0  0  0  0  0  0  0  0  0
    3.7705    2.7563    8.1754 H   0  0  0  0  0  0  0  0  0  0  0  0
   -0.2790    2.9252    9.5114 H   0  0  0  0  0  0  0  0  0  0  0  0
    0.7224    4.2835    9.1536 H   0  0  0  0  0  0  0  0  0  0  0  0
   -1.1002    4.1985    7.5676 H   0  0  0  0  0  0  0  0  0  0  0  0
    0.3870    3.9496    6.7305 H   0  0  0  0  0  0  0  0  0  0  0  0
   -2.7131    2.5734    8.0089 H   0  0  0  0  0  0  0  0  0  0  0  0
   -1.6960    1.3634    8.7509 H   0  0  0  0  0  0  0  0  0  0  0  0
   -2.6467    0.9534    7.3363 H   0  0  0  0  0  0  0  0  0  0  0  0
    1.5176   -1.0290    7.9653 H   0  0  0  0  0  0  0  0  0  0  0  0
    2.7486   -0.6901    6.1343 H   0  0  0  0  0  0  0  0  0  0  0  0
    4.8483    0.9459    7.5721 H   0  0  0  0  0  0  0  0  0  0  0  0
    3.7642    1.4603    6.2610 H   0  0  0  0  0  0  0  0  0  0  0  0
    4.9867    0.2613    5.9688 H   0  0  0  0  0  0  0  0  0  0  0  0
    0.6128   -0.9250    6.1172 H   0  0  0  0  0  0  0  0  0  0  0  0
   -0.7412   -0.9204    7.2237 H   0  0  0  0  0  0  0  0  0  0  0  0
   -2.4380    1.0255    4.1597 H   0  0  0  0  0  0  0  0  0  0  0  0
   -0.5506    2.1370    1.3581 H   0  0  0  0  0  0  0  0  0  0  0  0
   -2.1071    2.2714    2.1820 H   0  0  0  0  0  0  0  0  0  0  0  0
   -1.5136    0.7123    1.6578 H   0  0  0  0  0  0  0  0  0  0  0  0
    1.0827    0.1920    4.1150 H   0  0  0  0  0  0  0  0  0  0  0  0
    0.9737    0.3584    1.1071 H   0  0  0  0  0  0  0  0  0  0  0  0
    0.3344   -0.9559    2.1149 H   0  0  0  0  0  0  0  0  0  0  0  0
    2.0521   -0.6091    2.1049 H   0  0  0  0  0  0  0  0  0  0  0  0
    2.8990    1.5499    3.6611 H   0  0  0  0  0  0  0  0  0  0  0  0
    1.2289    3.0348    1.8913 H   0  0  0  0  0  0  0  0  0  0  0  0
    1.5470    2.2940    5.4086 H   0  0  0  0  0  0  0  0  0  0  0  0
    1.7896    4.5222    3.7489 H   0  0  0  0  0  0  0  0  0  0  0  0
   -0.2363    3.9725    2.7462 H   0  0  0  0  0  0  0  0  0  0  0  0
   -2.9234    3.2824    4.3131 H   0  0  0  0  0  0  0  0  0  0  0  0
   -2.4401    4.1456    5.7533 H   0  0  0  0  0  0  0  0  0  0  0  0
   -3.3840    2.6722    5.8611 H   0  0  0  0  0  0  0  0  0  0  0  0
  1  2  1  0
  1 38  1  0
  1 39  1  0
  1 40  1  0
  2 20  1  0
  2  3  1  0
  2 41  1  6
  3  4  1  0
  3 42  1  0
  3 43  1  0
  4  5  1  0
  4 44  1  0
  4 45  1  0
  5 19  1  0
  5  6  1  1
  5  9  1  0
  6  7  2  0
  6  8  1  0
  9 10  1  0
  9 46  1  0
  9 47  1  0
 10 11  1  0
 10 48  1  0
 10 49  1  0
 11 18  1  0
 11 12  1  6
 11 13  1  0
 12 50  1  0
 12 51  1  0
 12 52  1  0
 13 14  1  0
 13 53  1  0
 13 54  1  0
 14 15  1  0
 14 55  1  0
 14 56  1  0
 15 36  1  0
 15 16  1  1
 15 17  1  0
 16 57  1  0
 16 58  1  0
 16 59  1  0
 17 18  2  0
 17 22  1  0
 18 19  1  0
 19 20  1  0
 19 60  1  6
 20 21  1  0
 20 61  1  6
 21 62  1  0
 21 63  1  0
 21 64  1  0
 22 23  1  0
 22 65  1  0
 22 66  1  0
 23 24  2  0
 23 25  1  0
 25 36  1  0
 25 26  1  0
 25 67  1  6
 26 34  1  0
 26 27  1  6
 26 28  1  0
 27 68  1  0
 27 69  1  0
 27 70  1  0
 28 29  1  0
 28 30  1  0
 28 71  1  1
 29 72  1  0
 29 73  1  0
 29 74  1  0
 30 31  1  0
 30 32  1  0
 30 75  1  1
 31 76  1  0
 32 33  1  0
 32 34  1  0
 32 77  1  1
 33 78  1  0
 34 35  1  6
 34 36  1  0
 35 79  1  0
 36 37  1  1
 37 80  1  0
 37 81  1  0
 37 82  1  0
M  CHG  1   8  -1
M  END
>  <i_m_ct_stereo_status>  (129) 
1

>  <s_m_source_file>  (129) 
/var/tmp/pbs.5076255.sched01/tmp7w47f283/46ruht8ay8.sdf

>  <i_m_source_file_index>  (129) 
10

>  <i_lp_mmshare_version>  (129) 
48012

>  <i_f3d_flags>  (129) 
0

>  <s_epik_input>  (129) 
W0NIMl0xW0NIMl1bQ0BASF0oW0NIM10pW0NASF0oW0NIM10pW0NAQEhdKFtDQEBdMTJDKD1PKVtPSF0pQzM9QzRbQ0BAXShbQ0gzXSkoW0NIMl1bQ0gyXVtDQEBdMyhbQ0gzXSlbQ0gyXVtDSDJdMilbQ0BdNShbQ0gzXSlbQ0BIXShDKD1PKVtDSDJdNClbQ0BAXTYoW0NIM10pW0NAXTUoW09IXSlbQ0BIXShbT0hdKVtDQEhdKFtPSF0pW0NAQEhdNltDSDNd

>  <s_epik_cmdline>  (129) 
J2VwaWtfcHl0aG9uJywgJy1waHQnLCAnMi4wJywgJy1waCcsICc3LjAnLCAnLXRuJywgJzgnLCAnLW1hJywgJzIwMCcsICctaW1hZScsICc8aW5maWxlLm1hZT4nLCAnLW9tYWUnLCAnPG91dGZpbGUubWFlPic=

>  <r_epik_Ionization_Penalty>  (129) 
0.00662687

>  <r_epik_Ionization_Penalty_Charging>  (129) 
0.0066265

>  <r_epik_Ionization_Penalty_Neutral>  (129) 
3.62532e-07

>  <r_epik_State_Penalty>  (129) 
0.00491108

>  <r_epik_Charging_Adjusted_Penalty>  (129) 
0.0115376

>  <i_epik_Tot_Q>  (129) 
-1

>  <i_epik_Tot_abs_Q>  (129) 
1

>  <s_lp_Force_Field>  (129) 
OPLS3e

>  <r_lp_Energy>  (129) 
105.927

>  <b_lp_Chiralities_Consistent>  (129) 
1

>  <s_lp_Variant>  (129) 
38:0-1

>  <s_i_glide_gridfile>  (129) 
pfpi4k_grid

>  <i_i_glide_lignum>  (129) 
10

>  <i_i_glide_rotatable_bonds>  (129) 
4

>  <r_i_docking_score>  (129) 
-1.93641

>  <r_i_glide_ligand_efficiency>  (129) 
-0.0523354

>  <r_i_glide_ligand_efficiency_sa>  (129) 
-0.174393

>  <r_i_glide_ligand_efficiency_ln>  (129) 
-0.419962

>  <r_i_glide_gscore>  (129) 
-1.93641

>  <r_i_glide_lipo>  (129) 
0

>  <r_i_glide_hbond>  (129) 
0

>  <r_i_glide_metal>  (129) 
-0

>  <r_i_glide_rewards>  (129) 
0

>  <r_i_glide_evdw>  (129) 
-19.7836

>  <r_i_glide_ecoul>  (129) 
-6.02606

>  <r_i_glide_erotb>  (129) 
0

>  <r_i_glide_esite>  (129) 
-0.0433197

>  <r_i_glide_emodel>  (129) 
-29.2446

>  <r_i_glide_energy>  (129) 
-25.8097

>  <r_i_glide_einternal>  (129) 
0.998523

>  <r_i_glide_intrahb_reward>  (129) 
-0

>  <i_i_glide_confnum>  (129) 
1

>  <i_i_glide_posenum>  (129) 
19

>  <r_i_glide_eff_state_penalty>  (129) 
0

>  <ligand_id>  (129) 
38

>  <original_smiles>  (129) 
CC1CCC2(C(=O)O)CCC3(C)CCC4(C)C(=C3C2C1C)CC(=O)C1C2(C)C(C)C(O)C(O)C2(O)C14C

>  <smiles>  (129) 
[H]OC1([H])C([H])(O[H])C2(O[H])C(C([H])([H])[H])(C3([H])C(=O)C([H])([H])C4=C5C6([H])C([H])(C([H])([H])[H])C([H])(C([H])([H])[H])C([H])([H])C([H])([H])C6(C(=O)[O-])C([H])([H])C([H])([H])C5(C([H])([H])[H])C([H])([H])C([H])([H])C4(C([H])([H])[H])C32C([H])([H])[H])C1([H])C([H])([H])[H]

$$$$
38:0:2
     RDKit          3D

 82 87  0  0  1  0  0  0  0  0999 V2000
    3.0361   -3.1921    7.1716 C   0  0  0  0  0  0  0  0  0  0  0  0
    3.8966   -1.9396    7.4478 C   0  0  2  0  0  0  0  0  0  0  0  0
    4.4595   -1.9163    8.8743 C   0  0  0  0  0  0  0  0  0  0  0  0
    3.3446   -1.7867    9.9182 C   0  0  0  0  0  0  0  0  0  0  0  0
    2.3432   -0.6082    9.7039 C   0  0  1  0  0  0  0  0  0  0  0  0
    1.0435   -1.0352   10.4638 C   0  0  0  0  0  0  0  0  0  0  0  0
   -0.0393   -1.1756    9.8369 O   0  0  0  0  0  0  0  0  0  0  0  0
    1.1720   -1.2477   11.6874 O   0  0  0  0  0  0  0  0  0  0  0  0
    2.8995    0.6777   10.3507 C   0  0  0  0  0  0  0  0  0  0  0  0
    1.9053    1.8448   10.2578 C   0  0  0  0  0  0  0  0  0  0  0  0
    1.5209    2.2250    8.8050 C   0  0  2  0  0  0  0  0  0  0  0  0
    2.6909    3.0603    8.2388 C   0  0  0  0  0  0  0  0  0  0  0  0
    0.2977    3.1649    8.9012 C   0  0  0  0  0  0  0  0  0  0  0  0
   -0.3643    3.4057    7.5486 C   0  0  0  0  0  0  0  0  0  0  0  0
   -0.9022    2.1020    6.9196 C   0  0  2  0  0  0  0  0  0  0  0  0
   -2.1457    1.6720    7.7544 C   0  0  0  0  0  0  0  0  0  0  0  0
    0.0930    0.9324    7.1041 C   0  0  0  0  0  0  0  0  0  0  0  0
    1.1895    0.9722    7.9292 C   0  0  0  0  0  0  0  0  0  0  0  0
    2.0304   -0.3171    8.1884 C   0  0  1  0  0  0  0  0  0  0  0  0
    3.1664   -0.6113    7.1485 C   0  0  1  0  0  0  0  0  0  0  0  0
    4.1877    0.5064    6.8759 C   0  0  0  0  0  0  0  0  0  0  0  0
   -0.3163   -0.3743    6.4016 C   0  0  0  0  0  0  0  0  0  0  0  0
   -1.2387   -0.2627    5.1914 C   0  0  0  0  0  0  0  0  0  0  0  0
   -1.7987   -1.3000    4.8427 O   0  0  0  0  0  0  0  0  0  0  0  0
   -1.4231    1.0782    4.5422 C   0  0  2  0  0  0  0  0  0  0  0  0
   -0.4448    1.5778    3.4710 C   0  0  2  0  0  0  0  0  0  0  0  0
   -1.1035    1.8100    2.1042 C   0  0  0  0  0  0  0  0  0  0  0  0
    0.9379    0.8952    3.2945 C   0  0  1  0  0  0  0  0  0  0  0  0
    1.1525   -0.0183    2.0778 C   0  0  0  0  0  0  0  0  0  0  0  0
    1.9846    1.9946    3.5042 C   0  0  1  0  0  0  0  0  0  0  0  0
    2.1885    2.7568    2.3267 O   0  0  0  0  0  0  0  0  0  0  0  0
    1.3283    2.8309    4.6169 C   0  0  1  0  0  0  0  0  0  0  0  0
    1.9428    4.0924    4.7772 O   0  0  0  0  0  0  0  0  0  0  0  0
   -0.1952    2.8295    4.3476 C   0  0  1  0  0  0  0  0  0  0  0  0
   -0.5250    4.0599    3.7107 O   0  0  0  0  0  0  0  0  0  0  0  0
   -1.2707    2.3400    5.3976 C   0  0  2  0  0  0  0  0  0  0  0  0
   -2.5657    3.1744    5.3448 C   0  0  0  0  0  0  0  0  0  0  0  0
    2.1479   -3.2381    7.8029 H   0  0  0  0  0  0  0  0  0  0  0  0
    3.6053   -4.1045    7.3539 H   0  0  0  0  0  0  0  0  0  0  0  0
    2.7013   -3.2187    6.1333 H   0  0  0  0  0  0  0  0  0  0  0  0
    4.7469   -2.0203    6.7693 H   0  0  0  0  0  0  0  0  0  0  0  0
    5.0427   -2.8182    9.0619 H   0  0  0  0  0  0  0  0  0  0  0  0
    5.1611   -1.0902    8.9858 H   0  0  0  0  0  0  0  0  0  0  0  0
    2.8074   -2.7350    9.9517 H   0  0  0  0  0  0  0  0  0  0  0  0
    3.8026   -1.7036   10.9035 H   0  0  0  0  0  0  0  0  0  0  0  0
    3.1326    0.5051   11.4007 H   0  0  0  0  0  0  0  0  0  0  0  0
    3.8513    0.9427    9.8920 H   0  0  0  0  0  0  0  0  0  0  0  0
    1.0111    1.6039   10.8341 H   0  0  0  0  0  0  0  0  0  0  0  0
    2.3257    2.7126   10.7645 H   0  0  0  0  0  0  0  0  0  0  0  0
    2.7516    4.0312    8.7271 H   0  0  0  0  0  0  0  0  0  0  0  0
    2.5866    3.2533    7.1774 H   0  0  0  0  0  0  0  0  0  0  0  0
    3.6581    2.5991    8.4061 H   0  0  0  0  0  0  0  0  0  0  0  0
   -0.4391    2.7616    9.5957 H   0  0  0  0  0  0  0  0  0  0  0  0
    0.5885    4.1200    9.3341 H   0  0  0  0  0  0  0  0  0  0  0  0
   -1.1716    4.1256    7.6759 H   0  0  0  0  0  0  0  0  0  0  0  0
    0.3434    3.8917    6.8846 H   0  0  0  0  0  0  0  0  0  0  0  0
   -2.8185    2.5002    7.9849 H   0  0  0  0  0  0  0  0  0  0  0  0
   -1.8323    1.2641    8.7150 H   0  0  0  0  0  0  0  0  0  0  0  0
   -2.7397    0.9061    7.2537 H   0  0  0  0  0  0  0  0  0  0  0  0
    1.3733   -1.1473    7.9554 H   0  0  0  0  0  0  0  0  0  0  0  0
    2.6767   -0.7492    6.1847 H   0  0  0  0  0  0  0  0  0  0  0  0
    4.7363    0.7989    7.7693 H   0  0  0  0  0  0  0  0  0  0  0  0
    3.7091    1.3799    6.4417 H   0  0  0  0  0  0  0  0  0  0  0  0
    4.9310    0.1824    6.1451 H   0  0  0  0  0  0  0  0  0  0  0  0
    0.5466   -0.9551    6.0856 H   0  0  0  0  0  0  0  0  0  0  0  0
   -0.8558   -0.9745    7.1335 H   0  0  0  0  0  0  0  0  0  0  0  0
   -2.4121    1.1030    4.0988 H   0  0  0  0  0  0  0  0  0  0  0  0
   -0.4164    2.3214    1.4408 H   0  0  0  0  0  0  0  0  0  0  0  0
   -2.0024    2.4238    2.1893 H   0  0  0  0  0  0  0  0  0  0  0  0
   -1.3962    0.8844    1.6096 H   0  0  0  0  0  0  0  0  0  0  0  0
    1.1024    0.2341    4.1401 H   0  0  0  0  0  0  0  0  0  0  0  0
    1.0994    0.5230    1.1280 H   0  0  0  0  0  0  0  0  0  0  0  0
    0.4133   -0.8201    2.0602 H   0  0  0  0  0  0  0  0  0  0  0  0
    2.1334   -0.4893    2.1331 H   0  0  0  0  0  0  0  0  0  0  0  0
    2.9437    1.5860    3.8178 H   0  0  0  0  0  0  0  0  0  0  0  0
    1.3603    3.1248    2.0398 H   0  0  0  0  0  0  0  0  0  0  0  0
    1.5316    2.2825    5.5284 H   0  0  0  0  0  0  0  0  0  0  0  0
    2.8750    3.9466    4.8384 H   0  0  0  0  0  0  0  0  0  0  0  0
   -0.1758    4.0427    2.8264 H   0  0  0  0  0  0  0  0  0  0  0  0
   -2.8842    3.3584    4.3222 H   0  0  0  0  0  0  0  0  0  0  0  0
   -2.4451    4.1445    5.8223 H   0  0  0  0  0  0  0  0  0  0  0  0
   -3.4079    2.6892    5.8201 H   0  0  0  0  0  0  0  0  0  0  0  0
  1  2  1  0
  1 38  1  0
  1 39  1  0
  1 40  1  0
  2 20  1  0
  2  3  1  0
  2 41  1  6
  3  4  1  0
  3 42  1  0
  3 43  1  0
  4  5  1  0
  4 44  1  0
  4 45  1  0
  5 19  1  0
  5  6  1  1
  5  9  1  0
  6  7  2  0
  6  8  1  0
  9 10  1  0
  9 46  1  0
  9 47  1  0
 10 11  1  0
 10 48  1  0
 10 49  1  0
 11 18  1  0
 11 12  1  6
 11 13  1  0
 12 50  1  0
 12 51  1  0
 12 52  1  0
 13 14  1  0
 13 53  1  0
 13 54  1  0
 14 15  1  0
 14 55  1  0
 14 56  1  0
 15 36  1  0
 15 16  1  1
 15 17  1  0
 16 57  1  0
 16 58  1  0
 16 59  1  0
 17 18  2  0
 17 22  1  0
 18 19  1  0
 19 20  1  0
 19 60  1  6
 20 21  1  0
 20 61  1  6
 21 62  1  0
 21 63  1  0
 21 64  1  0
 22 23  1  0
 22 65  1  0
 22 66  1  0
 23 24  2  0
 23 25  1  0
 25 36  1  0
 25 26  1  0
 25 67  1  6
 26 34  1  0
 26 27  1  6
 26 28  1  0
 27 68  1  0
 27 69  1  0
 27 70  1  0
 28 29  1  0
 28 30  1  0
 28 71  1  1
 29 72  1  0
 29 73  1  0
 29 74  1  0
 30 31  1  0
 30 32  1  0
 30 75  1  1
 31 76  1  0
 32 33  1  0
 32 34  1  0
 32 77  1  1
 33 78  1  0
 34 35  1  6
 34 36  1  0
 35 79  1  0
 36 37  1  1
 37 80  1  0
 37 81  1  0
 37 82  1  0
M  CHG  1   8  -1
M  END
>  <i_m_ct_stereo_status>  (130) 
1

>  <s_m_source_file>  (130) 
/var/tmp/pbs.5076255.sched01/tmp7w47f283/46ruht8ay8.sdf

>  <i_m_source_file_index>  (130) 
10

>  <i_lp_mmshare_version>  (130) 
48012

>  <i_f3d_flags>  (130) 
0

>  <s_epik_input>  (130) 
W0NIMl0xW0NIMl1bQ0BASF0oW0NIM10pW0NASF0oW0NIM10pW0NAQEhdKFtDQEBdMTJDKD1PKVtPSF0pQzM9QzRbQ0BAXShbQ0gzXSkoW0NIMl1bQ0gyXVtDQEBdMyhbQ0gzXSlbQ0gyXVtDSDJdMilbQ0BdNShbQ0gzXSlbQ0BIXShDKD1PKVtDSDJdNClbQ0BAXTYoW0NIM10pW0NAXTUoW09IXSlbQ0BIXShbT0hdKVtDQEhdKFtPSF0pW0NAQEhdNltDSDNd

>  <s_epik_cmdline>  (130) 
J2VwaWtfcHl0aG9uJywgJy1waHQnLCAnMi4wJywgJy1waCcsICc3LjAnLCAnLXRuJywgJzgnLCAnLW1hJywgJzIwMCcsICctaW1hZScsICc8aW5maWxlLm1hZT4nLCAnLW9tYWUnLCAnPG91dGZpbGUubWFlPic=

>  <r_epik_Ionization_Penalty>  (130) 
0.00662687

>  <r_epik_Ionization_Penalty_Charging>  (130) 
0.0066265

>  <r_epik_Ionization_Penalty_Neutral>  (130) 
3.62532e-07

>  <r_epik_State_Penalty>  (130) 
0.00491108

>  <r_epik_Charging_Adjusted_Penalty>  (130) 
0.0115376

>  <i_epik_Tot_Q>  (130) 
-1

>  <i_epik_Tot_abs_Q>  (130) 
1

>  <s_lp_Force_Field>  (130) 
OPLS3e

>  <r_lp_Energy>  (130) 
105.927

>  <b_lp_Chiralities_Consistent>  (130) 
1

>  <s_lp_Variant>  (130) 
38:0-1

>  <s_i_glide_gridfile>  (130) 
pfpi4k_grid

>  <i_i_glide_lignum>  (130) 
10

>  <i_i_glide_rotatable_bonds>  (130) 
4

>  <r_i_docking_score>  (130) 
-1.89585

>  <r_i_glide_ligand_efficiency>  (130) 
-0.0512391

>  <r_i_glide_ligand_efficiency_sa>  (130) 
-0.17074

>  <r_i_glide_ligand_efficiency_ln>  (130) 
-0.411164

>  <r_i_glide_gscore>  (130) 
-1.89585

>  <r_i_glide_lipo>  (130) 
0

>  <r_i_glide_hbond>  (130) 
-0.0996048

>  <r_i_glide_metal>  (130) 
-0

>  <r_i_glide_rewards>  (130) 
0

>  <r_i_glide_evdw>  (130) 
-19.1461

>  <r_i_glide_ecoul>  (130) 
-5.28124

>  <r_i_glide_erotb>  (130) 
0

>  <r_i_glide_esite>  (130) 
-0.0467487

>  <r_i_glide_emodel>  (130) 
-27.5331

>  <r_i_glide_energy>  (130) 
-24.4274

>  <r_i_glide_einternal>  (130) 
1.44835

>  <r_i_glide_intrahb_reward>  (130) 
-0

>  <i_i_glide_confnum>  (130) 
2

>  <i_i_glide_posenum>  (130) 
11

>  <r_i_glide_eff_state_penalty>  (130) 
0

>  <ligand_id>  (130) 
38

>  <original_smiles>  (130) 
CC1CCC2(C(=O)O)CCC3(C)CCC4(C)C(=C3C2C1C)CC(=O)C1C2(C)C(C)C(O)C(O)C2(O)C14C

>  <smiles>  (130) 
[H]OC1([H])C([H])(O[H])C2(O[H])C(C([H])([H])[H])(C3([H])C(=O)C([H])([H])C4=C5C6([H])C([H])(C([H])([H])[H])C([H])(C([H])([H])[H])C([H])([H])C([H])([H])C6(C(=O)[O-])C([H])([H])C([H])([H])C5(C([H])([H])[H])C([H])([H])C([H])([H])C4(C([H])([H])[H])C32C([H])([H])[H])C1([H])C([H])([H])[H]

$$$$
39:0:0
     RDKit          3D

 67 70  0  0  1  0  0  0  0  0999 V2000
   -0.8386   -7.8726    2.3170 C   0  0  0  0  0  0  0  0  0  0  0  0
    0.3573   -7.4572    1.4479 C   0  0  0  0  0  0  0  0  0  0  0  0
    1.1657   -6.2931    2.0551 C   0  0  0  0  0  0  0  0  0  0  0  0
    2.4391   -5.8986    1.2415 C   0  0  2  0  0  0  0  0  0  0  0  0
    3.6015   -6.8963    1.4785 C   0  0  1  0  0  0  0  0  0  0  0  0
    4.6681   -6.9549    0.3701 C   0  0  0  0  0  0  0  0  0  0  0  0
    4.1978   -6.8594    2.8992 C   0  0  0  0  0  0  0  0  0  0  0  0
    5.2603   -5.7995    3.2092 C   0  0  0  0  0  0  0  0  0  0  0  0
    5.0316   -4.3260    2.7772 C   0  0  1  0  0  0  0  0  0  0  0  0
    6.0319   -3.9068    1.6951 C   0  0  0  0  0  0  0  0  0  0  0  0
    5.9851   -2.8786    0.8158 C   0  0  0  0  0  0  0  0  0  0  0  0
    7.1191   -2.6508   -0.2082 C   0  0  0  0  0  0  0  0  0  0  0  0
    6.6361   -2.8078   -1.6601 C   0  0  0  0  0  0  0  0  0  0  0  0
    8.3738   -3.5343   -0.0114 C   0  0  0  0  0  0  0  0  0  0  0  0
    4.8293   -1.8568    0.8436 C   0  0  1  0  0  0  0  0  0  0  0  0
    5.2533   -0.4305    0.4234 C   0  0  0  0  0  0  0  0  0  0  0  0
    3.6480   -2.3183   -0.0570 C   0  0  0  0  0  0  0  0  0  0  0  0
    3.3168   -3.8245   -0.0141 C   0  0  0  0  0  0  0  0  0  0  0  0
    2.7854   -4.3731    1.3319 C   0  0  2  0  0  0  0  0  0  0  0  0
    3.5481   -3.8700    2.5996 C   0  0  1  0  0  0  0  0  0  0  0  0
    2.7991   -4.2422    3.7443 O   0  0  0  0  0  0  0  0  0  0  0  0
    3.2477   -3.3309    4.8497 O   0  0  0  0  0  0  0  0  0  0  0  0
    3.2747   -2.0357    4.2920 C   0  0  0  0  0  0  0  0  0  0  0  0
    1.9738   -1.2913    4.6501 C   0  0  0  0  0  0  0  0  0  0  0  0
    4.4852   -1.3197    4.9190 C   0  0  0  0  0  0  0  0  0  0  0  0
    3.3945   -2.3390    2.7753 C   0  0  1  0  0  0  0  0  0  0  0  0
    4.4625   -1.6015    2.2008 O   0  0  0  0  0  0  0  0  0  0  0  0
   -1.3765   -8.7050    1.8604 H   0  0  0  0  0  0  0  0  0  0  0  0
   -1.5456   -7.0552    2.4593 H   0  0  0  0  0  0  0  0  0  0  0  0
   -0.5065   -8.2052    3.3022 H   0  0  0  0  0  0  0  0  0  0  0  0
    0.9899   -8.3333    1.3093 H   0  0  0  0  0  0  0  0  0  0  0  0
    0.0021   -7.1850    0.4533 H   0  0  0  0  0  0  0  0  0  0  0  0
    0.4924   -5.4499    2.1371 H   0  0  0  0  0  0  0  0  0  0  0  0
    1.4102   -6.5343    3.0880 H   0  0  0  0  0  0  0  0  0  0  0  0
    2.1379   -6.0386    0.2044 H   0  0  0  0  0  0  0  0  0  0  0  0
    3.1407   -7.8802    1.4097 H   0  0  0  0  0  0  0  0  0  0  0  0
    5.3363   -6.1009    0.3733 H   0  0  0  0  0  0  0  0  0  0  0  0
    4.2138   -7.0150   -0.6187 H   0  0  0  0  0  0  0  0  0  0  0  0
    5.2909   -7.8391    0.4923 H   0  0  0  0  0  0  0  0  0  0  0  0
    3.4176   -6.7881    3.6534 H   0  0  0  0  0  0  0  0  0  0  0  0
    4.6588   -7.8303    3.0848 H   0  0  0  0  0  0  0  0  0  0  0  0
    5.3783   -5.8056    4.2938 H   0  0  0  0  0  0  0  0  0  0  0  0
    6.2187   -6.1630    2.8412 H   0  0  0  0  0  0  0  0  0  0  0  0
    5.4115   -3.7709    3.6291 H   0  0  0  0  0  0  0  0  0  0  0  0
    6.8830   -4.5632    1.6594 H   0  0  0  0  0  0  0  0  0  0  0  0
    7.4803   -1.6352   -0.0655 H   0  0  0  0  0  0  0  0  0  0  0  0
    5.9522   -2.0233   -1.9753 H   0  0  0  0  0  0  0  0  0  0  0  0
    6.1274   -3.7623   -1.7980 H   0  0  0  0  0  0  0  0  0  0  0  0
    7.4800   -2.7850   -2.3462 H   0  0  0  0  0  0  0  0  0  0  0  0
    8.7853   -3.4467    0.9957 H   0  0  0  0  0  0  0  0  0  0  0  0
    9.1641   -3.2434   -0.7054 H   0  0  0  0  0  0  0  0  0  0  0  0
    8.1551   -4.5870   -0.2010 H   0  0  0  0  0  0  0  0  0  0  0  0
    5.5562   -0.3528   -0.6200 H   0  0  0  0  0  0  0  0  0  0  0  0
    6.0752   -0.0605    1.0358 H   0  0  0  0  0  0  0  0  0  0  0  0
    4.4202    0.2630    0.5448 H   0  0  0  0  0  0  0  0  0  0  0  0
    2.7583   -1.7192    0.1339 H   0  0  0  0  0  0  0  0  0  0  0  0
    3.8923   -2.0971   -1.0953 H   0  0  0  0  0  0  0  0  0  0  0  0
    2.5582   -4.0064   -0.7751 H   0  0  0  0  0  0  0  0  0  0  0  0
    4.1732   -4.3929   -0.3554 H   0  0  0  0  0  0  0  0  0  0  0  0
    1.8208   -3.8825    1.4098 H   0  0  0  0  0  0  0  0  0  0  0  0
    1.9673   -0.2888    4.2172 H   0  0  0  0  0  0  0  0  0  0  0  0
    1.8745   -1.1730    5.7291 H   0  0  0  0  0  0  0  0  0  0  0  0
    1.0883   -1.8125    4.2895 H   0  0  0  0  0  0  0  0  0  0  0  0
    4.5904   -0.3021    4.5371 H   0  0  0  0  0  0  0  0  0  0  0  0
    5.4170   -1.8482    4.7215 H   0  0  0  0  0  0  0  0  0  0  0  0
    4.3687   -1.2563    6.0014 H   0  0  0  0  0  0  0  0  0  0  0  0
    2.4685   -1.9963    2.3158 H   0  0  0  0  0  0  0  0  0  0  0  0
  1  2  1  0
  1 28  1  0
  1 29  1  0
  1 30  1  0
  2  3  1  0
  2 31  1  0
  2 32  1  0
  3  4  1  0
  3 33  1  0
  3 34  1  0
  4 19  1  0
  4  5  1  0
  4 35  1  6
  5  6  1  0
  5  7  1  0
  5 36  1  1
  6 37  1  0
  6 38  1  0
  6 39  1  0
  7  8  1  0
  7 40  1  0
  7 41  1  0
  8  9  1  0
  8 42  1  0
  8 43  1  0
  9 20  1  0
  9 10  1  0
  9 44  1  1
 10 11  2  0
 10 45  1  0
 11 12  1  0
 11 15  1  0
 12 13  1  0
 12 14  1  0
 12 46  1  0
 13 47  1  0
 13 48  1  0
 13 49  1  0
 14 50  1  0
 14 51  1  0
 14 52  1  0
 15 27  1  0
 15 16  1  6
 15 17  1  0
 16 53  1  0
 16 54  1  0
 16 55  1  0
 17 18  1  0
 17 56  1  0
 17 57  1  0
 18 19  1  0
 18 58  1  0
 18 59  1  0
 19 20  1  0
 19 60  1  1
 20 26  1  0
 20 21  1  1
 21 22  1  0
 22 23  1  0
 23 24  1  0
 23 25  1  0
 23 26  1  0
 24 61  1  0
 24 62  1  0
 24 63  1  0
 25 64  1  0
 25 65  1  0
 25 66  1  0
 26 27  1  0
 26 67  1  6
M  END
>  <i_m_ct_stereo_status>  (131) 
1

>  <s_m_source_file>  (131) 
/var/tmp/pbs.5076255.sched01/tmp7w47f283/46ruht8ay8.sdf

>  <i_m_source_file_index>  (131) 
11

>  <i_lp_mmshare_version>  (131) 
48012

>  <i_f3d_flags>  (131) 
0

>  <s_epik_input>  (131) 
W0NAXTEyM1tDQEhdNFtDSDJdW0NIMl1bQ0BIXShbQ0gzXSlbQ0BASF0oW0NIMl1bQ0gyXVtDSDNdKVtDQEBIXTFbQ0gyXVtDSDJdW0NAXShbQ0gzXSkoQyg9W0NIXTQpW0NIXShbQ0gzXSlbQ0gzXSlPW0NAQEhdM0MoT08yKShbQ0gzXSlbQ0gzXQ==

>  <s_epik_cmdline>  (131) 
J2VwaWtfcHl0aG9uJywgJy1waHQnLCAnMi4wJywgJy1waCcsICc3LjAnLCAnLXRuJywgJzgnLCAnLW1hJywgJzIwMCcsICctaW1hZScsICc8aW5maWxlLm1hZT4nLCAnLW9tYWUnLCAnPG91dGZpbGUubWFlPic=

>  <r_lp_tautomer_probability>  (131) 
1

>  <r_epik_Ionization_Penalty>  (131) 
4.91239e-13

>  <r_epik_Ionization_Penalty_Charging>  (131) 
0

>  <r_epik_Ionization_Penalty_Neutral>  (131) 
4.91239e-13

>  <r_epik_State_Penalty>  (131) 
-0

>  <r_epik_Charging_Adjusted_Penalty>  (131) 
0

>  <i_epik_Tot_Q>  (131) 
0

>  <i_epik_Tot_abs_Q>  (131) 
0

>  <s_lp_Force_Field>  (131) 
OPLS3e

>  <r_lp_Energy>  (131) 
49.1013

>  <b_lp_Chiralities_Consistent>  (131) 
1

>  <s_lp_Variant>  (131) 
39:0-1

>  <s_i_glide_gridfile>  (131) 
pfpi4k_grid

>  <i_i_glide_lignum>  (131) 
11

>  <i_i_glide_rotatable_bonds>  (131) 
3

>  <r_i_docking_score>  (131) 
-2.72685

>  <r_i_glide_ligand_efficiency>  (131) 
-0.100995

>  <r_i_glide_ligand_efficiency_sa>  (131) 
-0.302984

>  <r_i_glide_ligand_efficiency_ln>  (131) 
-0.634767

>  <r_i_glide_gscore>  (131) 
-2.72685

>  <r_i_glide_lipo>  (131) 
-0.725958

>  <r_i_glide_hbond>  (131) 
0

>  <r_i_glide_metal>  (131) 
-0

>  <r_i_glide_rewards>  (131) 
-0.84155

>  <r_i_glide_evdw>  (131) 
-23.1809

>  <r_i_glide_ecoul>  (131) 
-0.912136

>  <r_i_glide_erotb>  (131) 
0.136517

>  <r_i_glide_esite>  (131) 
0

>  <r_i_glide_emodel>  (131) 
-27.2586

>  <r_i_glide_energy>  (131) 
-24.093

>  <r_i_glide_einternal>  (131) 
1.26315

>  <r_i_glide_intrahb_reward>  (131) 
-0

>  <i_i_glide_confnum>  (131) 
1

>  <i_i_glide_posenum>  (131) 
29

>  <r_i_glide_eff_state_penalty>  (131) 
0

>  <ligand_id>  (131) 
39

>  <original_smiles>  (131) 
CCCC1C(C)CCC2C=C(C(C)C)C3(C)CCC1C21OOC(C)(C)C1O3

>  <smiles>  (131) 
[H]C1=C(C([H])(C([H])([H])[H])C([H])([H])[H])C2(C([H])([H])[H])OC3([H])C(C([H])([H])[H])(C([H])([H])[H])OOC34C1([H])C([H])([H])C([H])([H])C([H])(C([H])([H])[H])C([H])(C([H])([H])C([H])([H])C([H])([H])[H])C4([H])C([H])([H])C2([H])[H]

$$$$
39:0:1
     RDKit          3D

 67 70  0  0  1  0  0  0  0  0999 V2000
    0.1447   -7.8266    1.6789 C   0  0  0  0  0  0  0  0  0  0  0  0
    0.4349   -6.6660    2.6390 C   0  0  0  0  0  0  0  0  0  0  0  0
    1.8973   -6.6049    3.1211 C   0  0  0  0  0  0  0  0  0  0  0  0
    2.9633   -6.2246    2.0512 C   0  0  2  0  0  0  0  0  0  0  0  0
    4.3820   -6.6595    2.5019 C   0  0  1  0  0  0  0  0  0  0  0  0
    5.4042   -6.8747    1.3652 C   0  0  0  0  0  0  0  0  0  0  0  0
    4.9290   -5.8564    3.6922 C   0  0  0  0  0  0  0  0  0  0  0  0
    5.6101   -4.5122    3.3890 C   0  0  0  0  0  0  0  0  0  0  0  0
    4.9298   -3.4784    2.4466 C   0  0  1  0  0  0  0  0  0  0  0  0
    5.7278   -3.2950    1.1490 C   0  0  0  0  0  0  0  0  0  0  0  0
    5.3394   -2.8060   -0.0552 C   0  0  0  0  0  0  0  0  0  0  0  0
    6.3256   -2.7252   -1.2450 C   0  0  0  0  0  0  0  0  0  0  0  0
    5.8345   -3.5083   -2.4757 C   0  0  0  0  0  0  0  0  0  0  0  0
    7.7785   -3.1593   -0.9268 C   0  0  0  0  0  0  0  0  0  0  0  0
    3.9199   -2.2432   -0.2719 C   0  0  1  0  0  0  0  0  0  0  0  0
    3.8635   -1.0655   -1.2766 C   0  0  0  0  0  0  0  0  0  0  0  0
    2.9407   -3.3691   -0.7242 C   0  0  0  0  0  0  0  0  0  0  0  0
    3.1160   -4.7287   -0.0255 C   0  0  0  0  0  0  0  0  0  0  0  0
    2.8117   -4.7764    1.4840 C   0  0  2  0  0  0  0  0  0  0  0  0
    3.3782   -3.5820    2.3206 C   0  0  1  0  0  0  0  0  0  0  0  0
    2.8074   -3.6272    3.6164 O   0  0  0  0  0  0  0  0  0  0  0  0
    2.9473   -2.2531    4.1837 O   0  0  0  0  0  0  0  0  0  0  0  0
    2.5516   -1.3711    3.1573 C   0  0  0  0  0  0  0  0  0  0  0  0
    1.0833   -0.9567    3.3784 C   0  0  0  0  0  0  0  0  0  0  0  0
    3.4747   -0.1460    3.2617 C   0  0  0  0  0  0  0  0  0  0  0  0
    2.7467   -2.2398    1.8875 C   0  0  1  0  0  0  0  0  0  0  0  0
    3.5133   -1.5504    0.9114 O   0  0  0  0  0  0  0  0  0  0  0  0
   -0.9009   -7.8351    1.3716 H   0  0  0  0  0  0  0  0  0  0  0  0
    0.3541   -8.7911    2.1463 H   0  0  0  0  0  0  0  0  0  0  0  0
    0.7419   -7.7652    0.7720 H   0  0  0  0  0  0  0  0  0  0  0  0
    0.1419   -5.7320    2.1736 H   0  0  0  0  0  0  0  0  0  0  0  0
   -0.2086   -6.7763    3.5134 H   0  0  0  0  0  0  0  0  0  0  0  0
    1.9549   -5.9292    3.9739 H   0  0  0  0  0  0  0  0  0  0  0  0
    2.1302   -7.5874    3.5350 H   0  0  0  0  0  0  0  0  0  0  0  0
    2.7532   -6.8921    1.2181 H   0  0  0  0  0  0  0  0  0  0  0  0
    4.2504   -7.6687    2.8945 H   0  0  0  0  0  0  0  0  0  0  0  0
    5.7545   -5.9464    0.9238 H   0  0  0  0  0  0  0  0  0  0  0  0
    4.9762   -7.4803    0.5635 H   0  0  0  0  0  0  0  0  0  0  0  0
    6.2847   -7.4029    1.7300 H   0  0  0  0  0  0  0  0  0  0  0  0
    4.1537   -5.7187    4.4462 H   0  0  0  0  0  0  0  0  0  0  0  0
    5.6796   -6.4756    4.1851 H   0  0  0  0  0  0  0  0  0  0  0  0
    5.7614   -4.0260    4.3557 H   0  0  0  0  0  0  0  0  0  0  0  0
    6.6101   -4.7412    3.0296 H   0  0  0  0  0  0  0  0  0  0  0  0
    5.1303   -2.5324    2.9459 H   0  0  0  0  0  0  0  0  0  0  0  0
    6.7444   -3.6305    1.2577 H   0  0  0  0  0  0  0  0  0  0  0  0
    6.3886   -1.6758   -1.5173 H   0  0  0  0  0  0  0  0  0  0  0  0
    4.9736   -3.0772   -2.9755 H   0  0  0  0  0  0  0  0  0  0  0  0
    5.5648   -4.5275   -2.2048 H   0  0  0  0  0  0  0  0  0  0  0  0
    6.6135   -3.5575   -3.2333 H   0  0  0  0  0  0  0  0  0  0  0  0
    8.2090   -2.6152   -0.0840 H   0  0  0  0  0  0  0  0  0  0  0  0
    8.4405   -2.9905   -1.7791 H   0  0  0  0  0  0  0  0  0  0  0  0
    7.8311   -4.2257   -0.6958 H   0  0  0  0  0  0  0  0  0  0  0  0
    4.0998   -1.3266   -2.3067 H   0  0  0  0  0  0  0  0  0  0  0  0
    4.5285   -0.2551   -0.9749 H   0  0  0  0  0  0  0  0  0  0  0  0
    2.8583   -0.6536   -1.3130 H   0  0  0  0  0  0  0  0  0  0  0  0
    1.9008   -3.0546   -0.6632 H   0  0  0  0  0  0  0  0  0  0  0  0
    3.0931   -3.5541   -1.7848 H   0  0  0  0  0  0  0  0  0  0  0  0
    2.4254   -5.4208   -0.5006 H   0  0  0  0  0  0  0  0  0  0  0  0
    4.1004   -5.1300   -0.2503 H   0  0  0  0  0  0  0  0  0  0  0  0
    1.7481   -4.5877    1.5043 H   0  0  0  0  0  0  0  0  0  0  0  0
    0.7449   -0.2845    2.5869 H   0  0  0  0  0  0  0  0  0  0  0  0
    0.9618   -0.4247    4.3235 H   0  0  0  0  0  0  0  0  0  0  0  0
    0.4107   -1.8134    3.3938 H   0  0  0  0  0  0  0  0  0  0  0  0
    3.2442    0.5967    2.4955 H   0  0  0  0  0  0  0  0  0  0  0  0
    4.5230   -0.4188    3.1527 H   0  0  0  0  0  0  0  0  0  0  0  0
    3.3647    0.3358    4.2340 H   0  0  0  0  0  0  0  0  0  0  0  0
    1.7553   -2.4053    1.4723 H   0  0  0  0  0  0  0  0  0  0  0  0
  1  2  1  0
  1 28  1  0
  1 29  1  0
  1 30  1  0
  2  3  1  0
  2 31  1  0
  2 32  1  0
  3  4  1  0
  3 33  1  0
  3 34  1  0
  4 19  1  0
  4  5  1  0
  4 35  1  6
  5  6  1  0
  5  7  1  0
  5 36  1  1
  6 37  1  0
  6 38  1  0
  6 39  1  0
  7  8  1  0
  7 40  1  0
  7 41  1  0
  8  9  1  0
  8 42  1  0
  8 43  1  0
  9 20  1  0
  9 10  1  0
  9 44  1  1
 10 11  2  0
 10 45  1  0
 11 12  1  0
 11 15  1  0
 12 13  1  0
 12 14  1  0
 12 46  1  0
 13 47  1  0
 13 48  1  0
 13 49  1  0
 14 50  1  0
 14 51  1  0
 14 52  1  0
 15 27  1  0
 15 16  1  6
 15 17  1  0
 16 53  1  0
 16 54  1  0
 16 55  1  0
 17 18  1  0
 17 56  1  0
 17 57  1  0
 18 19  1  0
 18 58  1  0
 18 59  1  0
 19 20  1  0
 19 60  1  6
 20 26  1  0
 20 21  1  1
 21 22  1  0
 22 23  1  0
 23 24  1  0
 23 25  1  0
 23 26  1  0
 24 61  1  0
 24 62  1  0
 24 63  1  0
 25 64  1  0
 25 65  1  0
 25 66  1  0
 26 27  1  0
 26 67  1  6
M  END
>  <i_m_ct_stereo_status>  (132) 
1

>  <s_m_source_file>  (132) 
/var/tmp/pbs.5076255.sched01/tmp7w47f283/46ruht8ay8.sdf

>  <i_m_source_file_index>  (132) 
11

>  <i_lp_mmshare_version>  (132) 
48012

>  <i_f3d_flags>  (132) 
0

>  <s_epik_input>  (132) 
W0NAXTEyM1tDQEhdNFtDSDJdW0NIMl1bQ0BIXShbQ0gzXSlbQ0BASF0oW0NIMl1bQ0gyXVtDSDNdKVtDQEBIXTFbQ0gyXVtDSDJdW0NAXShbQ0gzXSkoQyg9W0NIXTQpW0NIXShbQ0gzXSlbQ0gzXSlPW0NAQEhdM0MoT08yKShbQ0gzXSlbQ0gzXQ==

>  <s_epik_cmdline>  (132) 
J2VwaWtfcHl0aG9uJywgJy1waHQnLCAnMi4wJywgJy1waCcsICc3LjAnLCAnLXRuJywgJzgnLCAnLW1hJywgJzIwMCcsICctaW1hZScsICc8aW5maWxlLm1hZT4nLCAnLW9tYWUnLCAnPG91dGZpbGUubWFlPic=

>  <r_lp_tautomer_probability>  (132) 
1

>  <r_epik_Ionization_Penalty>  (132) 
4.91239e-13

>  <r_epik_Ionization_Penalty_Charging>  (132) 
0

>  <r_epik_Ionization_Penalty_Neutral>  (132) 
4.91239e-13

>  <r_epik_State_Penalty>  (132) 
-0

>  <r_epik_Charging_Adjusted_Penalty>  (132) 
0

>  <i_epik_Tot_Q>  (132) 
0

>  <i_epik_Tot_abs_Q>  (132) 
0

>  <s_lp_Force_Field>  (132) 
OPLS3e

>  <r_lp_Energy>  (132) 
49.1013

>  <b_lp_Chiralities_Consistent>  (132) 
1

>  <s_lp_Variant>  (132) 
39:0-1

>  <s_i_glide_gridfile>  (132) 
pfpi4k_grid

>  <i_i_glide_lignum>  (132) 
11

>  <i_i_glide_rotatable_bonds>  (132) 
3

>  <r_i_docking_score>  (132) 
-2.4084

>  <r_i_glide_ligand_efficiency>  (132) 
-0.0892

>  <r_i_glide_ligand_efficiency_sa>  (132) 
-0.2676

>  <r_i_glide_ligand_efficiency_ln>  (132) 
-0.560636

>  <r_i_glide_gscore>  (132) 
-2.4084

>  <r_i_glide_lipo>  (132) 
-0.55161

>  <r_i_glide_hbond>  (132) 
0

>  <r_i_glide_metal>  (132) 
-0

>  <r_i_glide_rewards>  (132) 
-0.84155

>  <r_i_glide_evdw>  (132) 
-20.9125

>  <r_i_glide_ecoul>  (132) 
-0.707545

>  <r_i_glide_erotb>  (132) 
0.136517

>  <r_i_glide_esite>  (132) 
0

>  <r_i_glide_emodel>  (132) 
-24.2595

>  <r_i_glide_energy>  (132) 
-21.62

>  <r_i_glide_einternal>  (132) 
1.09761

>  <r_i_glide_intrahb_reward>  (132) 
-0

>  <i_i_glide_confnum>  (132) 
2

>  <i_i_glide_posenum>  (132) 
17

>  <r_i_glide_eff_state_penalty>  (132) 
0

>  <ligand_id>  (132) 
39

>  <original_smiles>  (132) 
CCCC1C(C)CCC2C=C(C(C)C)C3(C)CCC1C21OOC(C)(C)C1O3

>  <smiles>  (132) 
[H]C1=C(C([H])(C([H])([H])[H])C([H])([H])[H])C2(C([H])([H])[H])OC3([H])C(C([H])([H])[H])(C([H])([H])[H])OOC34C1([H])C([H])([H])C([H])([H])C([H])(C([H])([H])[H])C([H])(C([H])([H])C([H])([H])C([H])([H])[H])C4([H])C([H])([H])C2([H])[H]

$$$$
39:0:2
     RDKit          3D

 67 70  0  0  1  0  0  0  0  0999 V2000
    3.2518   -2.1748   -4.1730 C   0  0  0  0  0  0  0  0  0  0  0  0
    3.4111   -1.5213   -2.7967 C   0  0  0  0  0  0  0  0  0  0  0  0
    3.2641   -2.5328   -1.6382 C   0  0  0  0  0  0  0  0  0  0  0  0
    3.5474   -1.9486   -0.2216 C   0  0  2  0  0  0  0  0  0  0  0  0
    5.0571   -1.6444   -0.0126 C   0  0  1  0  0  0  0  0  0  0  0  0
    5.3875   -0.5898    1.0588 C   0  0  0  0  0  0  0  0  0  0  0  0
    5.9528   -2.8957    0.0461 C   0  0  0  0  0  0  0  0  0  0  0  0
    6.0858   -3.6196    1.3915 C   0  0  0  0  0  0  0  0  0  0  0  0
    4.8174   -3.9298    2.2343 C   0  0  1  0  0  0  0  0  0  0  0  0
    4.8090   -3.1272    3.5411 C   0  0  0  0  0  0  0  0  0  0  0  0
    3.7836   -2.8222    4.3730 C   0  0  0  0  0  0  0  0  0  0  0  0
    4.0090   -1.9652    5.6448 C   0  0  0  0  0  0  0  0  0  0  0  0
    3.2405   -0.6321    5.6003 C   0  0  0  0  0  0  0  0  0  0  0  0
    5.4855   -1.6648    5.9836 C   0  0  0  0  0  0  0  0  0  0  0  0
    2.3615   -3.3652    4.1229 C   0  0  1  0  0  0  0  0  0  0  0  0
    1.5603   -3.6369    5.4189 C   0  0  0  0  0  0  0  0  0  0  0  0
    1.5427   -2.4038    3.2157 C   0  0  0  0  0  0  0  0  0  0  0  0
    2.3103   -1.7670    2.0373 C   0  0  0  0  0  0  0  0  0  0  0  0
    2.8127   -2.7205    0.9262 C   0  0  2  0  0  0  0  0  0  0  0  0
    3.4666   -4.0463    1.4520 C   0  0  1  0  0  0  0  0  0  0  0  0
    3.6406   -4.9225    0.3524 O   0  0  0  0  0  0  0  0  0  0  0  0
    3.7554   -6.3029    0.9252 O   0  0  0  0  0  0  0  0  0  0  0  0
    2.7307   -6.4068    1.8880 C   0  0  0  0  0  0  0  0  0  0  0  0
    1.5138   -7.1271    1.2739 C   0  0  0  0  0  0  0  0  0  0  0  0
    3.3057   -7.2397    3.0470 C   0  0  0  0  0  0  0  0  0  0  0  0
    2.4437   -4.9169    2.2179 C   0  0  1  0  0  0  0  0  0  0  0  0
    2.4451   -4.7025    3.6219 O   0  0  0  0  0  0  0  0  0  0  0  0
    3.3790   -1.4347   -4.9646 H   0  0  0  0  0  0  0  0  0  0  0  0
    2.2658   -2.6310   -4.2897 H   0  0  0  0  0  0  0  0  0  0  0  0
    4.0015   -2.9523   -4.3172 H   0  0  0  0  0  0  0  0  0  0  0  0
    4.3811   -1.0254   -2.7897 H   0  0  0  0  0  0  0  0  0  0  0  0
    2.6662   -0.7292   -2.6815 H   0  0  0  0  0  0  0  0  0  0  0  0
    2.2414   -2.9077   -1.6825 H   0  0  0  0  0  0  0  0  0  0  0  0
    3.8802   -3.4077   -1.8411 H   0  0  0  0  0  0  0  0  0  0  0  0
    3.0502   -0.9800   -0.2511 H   0  0  0  0  0  0  0  0  0  0  0  0
    5.3734   -1.1378   -0.9217 H   0  0  0  0  0  0  0  0  0  0  0  0
    5.2716   -0.9552    2.0748 H   0  0  0  0  0  0  0  0  0  0  0  0
    4.7573    0.2930    0.9449 H   0  0  0  0  0  0  0  0  0  0  0  0
    6.4195   -0.2590    0.9556 H   0  0  0  0  0  0  0  0  0  0  0  0
    5.6608   -3.6220   -0.7093 H   0  0  0  0  0  0  0  0  0  0  0  0
    6.9571   -2.5935   -0.2497 H   0  0  0  0  0  0  0  0  0  0  0  0
    6.5779   -4.5693    1.1736 H   0  0  0  0  0  0  0  0  0  0  0  0
    6.8131   -3.0723    1.9851 H   0  0  0  0  0  0  0  0  0  0  0  0
    5.0318   -4.9249    2.6154 H   0  0  0  0  0  0  0  0  0  0  0  0
    5.7858   -2.7541    3.7916 H   0  0  0  0  0  0  0  0  0  0  0  0
    3.6464   -2.5434    6.4913 H   0  0  0  0  0  0  0  0  0  0  0  0
    2.1628   -0.7602    5.6611 H   0  0  0  0  0  0  0  0  0  0  0  0
    3.4594   -0.0863    4.6811 H   0  0  0  0  0  0  0  0  0  0  0  0
    3.5193    0.0114    6.4366 H   0  0  0  0  0  0  0  0  0  0  0  0
    6.0893   -2.5730    6.0492 H   0  0  0  0  0  0  0  0  0  0  0  0
    5.5702   -1.1587    6.9471 H   0  0  0  0  0  0  0  0  0  0  0  0
    5.9320   -1.0012    5.2398 H   0  0  0  0  0  0  0  0  0  0  0  0
    1.3288   -2.7374    5.9884 H   0  0  0  0  0  0  0  0  0  0  0  0
    2.0936   -4.3198    6.0827 H   0  0  0  0  0  0  0  0  0  0  0  0
    0.6026   -4.1005    5.1806 H   0  0  0  0  0  0  0  0  0  0  0  0
    0.6253   -2.8859    2.8807 H   0  0  0  0  0  0  0  0  0  0  0  0
    1.1859   -1.5738    3.8216 H   0  0  0  0  0  0  0  0  0  0  0  0
    1.6450   -1.0383    1.5765 H   0  0  0  0  0  0  0  0  0  0  0  0
    3.1239   -1.1651    2.4290 H   0  0  0  0  0  0  0  0  0  0  0  0
    1.8845   -3.0450    0.4612 H   0  0  0  0  0  0  0  0  0  0  0  0
    0.6976   -7.2082    1.9944 H   0  0  0  0  0  0  0  0  0  0  0  0
    1.7674   -8.1443    0.9718 H   0  0  0  0  0  0  0  0  0  0  0  0
    1.1326   -6.6107    0.3944 H   0  0  0  0  0  0  0  0  0  0  0  0
    2.5758   -7.3721    3.8483 H   0  0  0  0  0  0  0  0  0  0  0  0
    4.1921   -6.7801    3.4802 H   0  0  0  0  0  0  0  0  0  0  0  0
    3.5936   -8.2337    2.6991 H   0  0  0  0  0  0  0  0  0  0  0  0
    1.4386   -4.7102    1.8592 H   0  0  0  0  0  0  0  0  0  0  0  0
  1  2  1  0
  1 28  1  0
  1 29  1  0
  1 30  1  0
  2  3  1  0
  2 31  1  0
  2 32  1  0
  3  4  1  0
  3 33  1  0
  3 34  1  0
  4 19  1  0
  4  5  1  0
  4 35  1  6
  5  6  1  0
  5  7  1  0
  5 36  1  6
  6 37  1  0
  6 38  1  0
  6 39  1  0
  7  8  1  0
  7 40  1  0
  7 41  1  0
  8  9  1  0
  8 42  1  0
  8 43  1  0
  9 20  1  0
  9 10  1  0
  9 44  1  1
 10 11  2  0
 10 45  1  0
 11 12  1  0
 11 15  1  0
 12 13  1  0
 12 14  1  0
 12 46  1  0
 13 47  1  0
 13 48  1  0
 13 49  1  0
 14 50  1  0
 14 51  1  0
 14 52  1  0
 15 27  1  0
 15 16  1  1
 15 17  1  0
 16 53  1  0
 16 54  1  0
 16 55  1  0
 17 18  1  0
 17 56  1  0
 17 57  1  0
 18 19  1  0
 18 58  1  0
 18 59  1  0
 19 20  1  0
 19 60  1  6
 20 26  1  0
 20 21  1  6
 21 22  1  0
 22 23  1  0
 23 24  1  0
 23 25  1  0
 23 26  1  0
 24 61  1  0
 24 62  1  0
 24 63  1  0
 25 64  1  0
 25 65  1  0
 25 66  1  0
 26 27  1  0
 26 67  1  6
M  END
>  <i_m_ct_stereo_status>  (133) 
1

>  <s_m_source_file>  (133) 
/var/tmp/pbs.5076255.sched01/tmp7w47f283/46ruht8ay8.sdf

>  <i_m_source_file_index>  (133) 
11

>  <i_lp_mmshare_version>  (133) 
48012

>  <i_f3d_flags>  (133) 
0

>  <s_epik_input>  (133) 
W0NAXTEyM1tDQEhdNFtDSDJdW0NIMl1bQ0BIXShbQ0gzXSlbQ0BASF0oW0NIMl1bQ0gyXVtDSDNdKVtDQEBIXTFbQ0gyXVtDSDJdW0NAXShbQ0gzXSkoQyg9W0NIXTQpW0NIXShbQ0gzXSlbQ0gzXSlPW0NAQEhdM0MoT08yKShbQ0gzXSlbQ0gzXQ==

>  <s_epik_cmdline>  (133) 
J2VwaWtfcHl0aG9uJywgJy1waHQnLCAnMi4wJywgJy1waCcsICc3LjAnLCAnLXRuJywgJzgnLCAnLW1hJywgJzIwMCcsICctaW1hZScsICc8aW5maWxlLm1hZT4nLCAnLW9tYWUnLCAnPG91dGZpbGUubWFlPic=

>  <r_lp_tautomer_probability>  (133) 
1

>  <r_epik_Ionization_Penalty>  (133) 
4.91239e-13

>  <r_epik_Ionization_Penalty_Charging>  (133) 
0

>  <r_epik_Ionization_Penalty_Neutral>  (133) 
4.91239e-13

>  <r_epik_State_Penalty>  (133) 
-0

>  <r_epik_Charging_Adjusted_Penalty>  (133) 
0

>  <i_epik_Tot_Q>  (133) 
0

>  <i_epik_Tot_abs_Q>  (133) 
0

>  <s_lp_Force_Field>  (133) 
OPLS3e

>  <r_lp_Energy>  (133) 
49.1013

>  <b_lp_Chiralities_Consistent>  (133) 
1

>  <s_lp_Variant>  (133) 
39:0-1

>  <s_i_glide_gridfile>  (133) 
pfpi4k_grid

>  <i_i_glide_lignum>  (133) 
11

>  <i_i_glide_rotatable_bonds>  (133) 
3

>  <r_i_docking_score>  (133) 
-2.15369

>  <r_i_glide_ligand_efficiency>  (133) 
-0.0797663

>  <r_i_glide_ligand_efficiency_sa>  (133) 
-0.239299

>  <r_i_glide_ligand_efficiency_ln>  (133) 
-0.501343

>  <r_i_glide_gscore>  (133) 
-2.15369

>  <r_i_glide_lipo>  (133) 
-0.379999

>  <r_i_glide_hbond>  (133) 
0

>  <r_i_glide_metal>  (133) 
-0

>  <r_i_glide_rewards>  (133) 
-0.84155

>  <r_i_glide_evdw>  (133) 
-21.5392

>  <r_i_glide_ecoul>  (133) 
0.0553533

>  <r_i_glide_erotb>  (133) 
0.136517

>  <r_i_glide_esite>  (133) 
0

>  <r_i_glide_emodel>  (133) 
-23.8737

>  <r_i_glide_energy>  (133) 
-21.4838

>  <r_i_glide_einternal>  (133) 
1.10582

>  <r_i_glide_intrahb_reward>  (133) 
-0

>  <i_i_glide_confnum>  (133) 
2

>  <i_i_glide_posenum>  (133) 
2

>  <r_i_glide_eff_state_penalty>  (133) 
0

>  <ligand_id>  (133) 
39

>  <original_smiles>  (133) 
CCCC1C(C)CCC2C=C(C(C)C)C3(C)CCC1C21OOC(C)(C)C1O3

>  <smiles>  (133) 
[H]C1=C(C([H])(C([H])([H])[H])C([H])([H])[H])C2(C([H])([H])[H])OC3([H])C(C([H])([H])[H])(C([H])([H])[H])OOC34C1([H])C([H])([H])C([H])([H])C([H])(C([H])([H])[H])C([H])(C([H])([H])C([H])([H])C([H])([H])[H])C4([H])C([H])([H])C2([H])[H]

$$$$
40:1:0
     RDKit          3D

 55 59  0  0  1  0  0  0  0  0999 V2000
    2.2145   -0.0896   -4.9158 C   0  0  0  0  0  0  0  0  0  0  0  0
    3.0479   -1.0592   -4.1735 N   0  0  1  0  0  0  0  0  0  0  0  0
    4.3830   -0.5610   -3.8608 C   0  0  0  0  0  0  0  0  0  0  0  0
    4.9396   -1.4953   -2.8033 C   0  0  0  0  0  0  0  0  0  0  0  0
    3.6952   -2.1043   -2.1491 C   0  0  1  0  0  0  0  0  0  0  0  0
    3.6361   -3.6056   -2.3696 C   0  0  0  0  0  0  0  0  0  0  0  0
    4.7339   -4.3172   -1.5850 C   0  0  0  0  0  0  0  0  0  0  0  0
    4.6160   -4.0264   -0.1316 N   0  0  1  0  0  0  0  0  0  0  0  0
    5.5710   -4.7972    0.6857 C   0  0  2  0  0  0  0  0  0  0  0  0
    5.3438   -6.3362    0.5815 C   0  0  2  0  0  0  0  0  0  0  0  0
    3.9605   -6.7321    1.1528 C   0  0  0  0  0  0  0  0  0  0  0  0
    3.9042   -6.3243    2.6374 C   0  0  1  0  0  0  0  0  0  0  0  0
    5.0278   -7.0699    3.3949 C   0  0  0  0  0  0  0  0  0  0  0  0
    6.4106   -6.7131    2.8055 C   0  0  1  0  0  0  0  0  0  0  0  0
    6.4660   -7.0873    1.3224 C   0  0  0  0  0  0  0  0  0  0  0  0
    6.6259   -5.2096    2.9271 C   0  0  0  0  0  0  0  0  0  0  0  0
    5.5206   -4.4304    2.2008 C   0  0  2  0  0  0  0  0  0  0  0  0
    4.1267   -4.8017    2.7808 C   0  0  0  0  0  0  0  0  0  0  0  0
    4.6667   -2.5592    0.1302 C   0  0  0  0  0  0  0  0  0  0  0  0
    3.5922   -1.8142   -0.6565 C   0  0  0  0  0  0  0  0  0  0  0  0
    2.5325   -1.4730   -2.8652 C   0  0  0  0  0  0  0  0  0  0  0  0
    1.9944    0.8262   -4.3699 H   0  0  0  0  0  0  0  0  0  0  0  0
    1.2435   -0.5542   -5.1366 H   0  0  0  0  0  0  0  0  0  0  0  0
    2.6663    0.1881   -5.8632 H   0  0  0  0  0  0  0  0  0  0  0  0
    5.0061   -0.5522   -4.7423 H   0  0  0  0  0  0  0  0  0  0  0  0
    4.2980    0.4445   -3.4401 H   0  0  0  0  0  0  0  0  0  0  0  0
    5.5459   -2.2631   -3.2948 H   0  0  0  0  0  0  0  0  0  0  0  0
    5.5853   -0.9630   -2.1034 H   0  0  0  0  0  0  0  0  0  0  0  0
    2.6535   -3.9715   -2.0483 H   0  0  0  0  0  0  0  0  0  0  0  0
    3.7011   -3.8567   -3.4404 H   0  0  0  0  0  0  0  0  0  0  0  0
    4.6191   -5.3664   -1.8182 H   0  0  0  0  0  0  0  0  0  0  0  0
    5.7183   -4.0204   -1.9559 H   0  0  0  0  0  0  0  0  0  0  0  0
    6.5926   -4.5881    0.3254 H   0  0  0  0  0  0  0  0  0  0  0  0
    5.4023   -6.6597   -0.4440 H   0  0  0  0  0  0  0  0  0  0  0  0
    3.1587   -6.2549    0.5886 H   0  0  0  0  0  0  0  0  0  0  0  0
    3.8013   -7.8032    1.0411 H   0  0  0  0  0  0  0  0  0  0  0  0
    2.9313   -6.5996    3.0500 H   0  0  0  0  0  0  0  0  0  0  0  0
    4.9994   -6.7864    4.4515 H   0  0  0  0  0  0  0  0  0  0  0  0
    4.8657   -8.1512    3.3373 H   0  0  0  0  0  0  0  0  0  0  0  0
    7.2053   -7.2314    3.3445 H   0  0  0  0  0  0  0  0  0  0  0  0
    6.3663   -8.1603    1.1945 H   0  0  0  0  0  0  0  0  0  0  0  0
    7.4243   -6.8050    0.8954 H   0  0  0  0  0  0  0  0  0  0  0  0
    6.6197   -4.9262    3.9711 H   0  0  0  0  0  0  0  0  0  0  0  0
    7.5797   -4.9462    2.4725 H   0  0  0  0  0  0  0  0  0  0  0  0
    5.7633   -3.3735    2.3837 H   0  0  0  0  0  0  0  0  0  0  0  0
    3.3373   -4.2558    2.2639 H   0  0  0  0  0  0  0  0  0  0  0  0
    4.0731   -4.4993    3.8245 H   0  0  0  0  0  0  0  0  0  0  0  0
    4.4864   -2.2698    1.1670 H   0  0  0  0  0  0  0  0  0  0  0  0
    5.6624   -2.1979   -0.1503 H   0  0  0  0  0  0  0  0  0  0  0  0
    3.6626   -0.7374   -0.4644 H   0  0  0  0  0  0  0  0  0  0  0  0
    2.6151   -2.1101   -0.2636 H   0  0  0  0  0  0  0  0  0  0  0  0
    2.2139   -0.5791   -2.3257 H   0  0  0  0  0  0  0  0  0  0  0  0
    1.6987   -2.1719   -2.9391 H   0  0  0  0  0  0  0  0  0  0  0  0
    3.7009   -4.3387    0.1500 H   0  0  0  0  0  0  0  0  0  0  0  0
    3.1329   -1.9185   -4.7018 H   0  0  0  0  0  0  0  0  0  0  0  0
  1  2  1  0
  1 22  1  0
  1 23  1  0
  1 24  1  0
  2 21  1  0
  2  3  1  0
  2 55  1  6
  3  4  1  0
  3 25  1  0
  3 26  1  0
  5  4  1  6
  4 27  1  0
  4 28  1  0
  5 20  1  0
  5  6  1  0
  5 21  1  0
  6  7  1  0
  6 29  1  0
  6 30  1  0
  7  8  1  0
  7 31  1  0
  7 32  1  0
  8  9  1  0
  8 19  1  0
  8 54  1  1
  9 17  1  0
  9 10  1  0
  9 33  1  6
 10 15  1  0
 10 11  1  0
 10 34  1  6
 11 12  1  0
 11 35  1  0
 11 36  1  0
 12 18  1  0
 12 13  1  0
 12 37  1  1
 13 14  1  0
 13 38  1  0
 13 39  1  0
 14 15  1  0
 14 16  1  0
 14 40  1  1
 15 41  1  0
 15 42  1  0
 16 17  1  0
 16 43  1  0
 16 44  1  0
 17 18  1  0
 17 45  1  6
 18 46  1  0
 18 47  1  0
 19 20  1  0
 19 48  1  0
 19 49  1  0
 20 50  1  0
 20 51  1  0
 21 52  1  0
 21 53  1  0
M  CHG  2   2   1   8   1
M  END
>  <i_m_ct_stereo_status>  (134) 
1

>  <s_m_source_file>  (134) 
/var/tmp/pbs.5076255.sched01/tmp7w47f283/46ruht8ay8.sdf

>  <i_m_source_file_index>  (134) 
13

>  <i_lp_mmshare_version>  (134) 
48012

>  <i_f3d_flags>  (134) 
0

>  <s_epik_input>  (134) 
W0NIM11OKFtDSDJdMSlbQ0gyXVtDSDJdQzEyW0NIMl1bQ0gyXU4oW0NIMl1bQ0gyXTIpW0NASF0oW0NAQEhdMzQpW0NASF01W0NIMl1bQ0BASF0oW0NIMl00KVtDSDJdW0NAQEhdKFtDSDJdMylbQ0gyXTU=

>  <s_epik_cmdline>  (134) 
J2VwaWtfcHl0aG9uJywgJy1waHQnLCAnMi4wJywgJy1waCcsICc3LjAnLCAnLXRuJywgJzgnLCAnLW1hJywgJzIwMCcsICctaW1hZScsICc8aW5maWxlLm1hZT4nLCAnLW9tYWUnLCAnPG91dGZpbGUubWFlPic=

>  <r_lp_tautomer_probability>  (134) 
1

>  <r_epik_Ionization_Penalty>  (134) 
0.00620163

>  <r_epik_Ionization_Penalty_Charging>  (134) 
0.00620163

>  <r_epik_Ionization_Penalty_Neutral>  (134) 
0

>  <r_epik_State_Penalty>  (134) 
-0

>  <r_epik_Charging_Adjusted_Penalty>  (134) 
0.00620163

>  <i_epik_Tot_Q>  (134) 
2

>  <i_epik_Tot_abs_Q>  (134) 
2

>  <s_lp_Force_Field>  (134) 
OPLS3e

>  <r_lp_Energy>  (134) 
41.3822

>  <b_lp_Chiralities_Consistent>  (134) 
1

>  <s_lp_Variant>  (134) 
40:0-2

>  <s_i_glide_gridfile>  (134) 
pfpi4k_grid

>  <i_i_glide_lignum>  (134) 
13

>  <i_i_glide_rotatable_bonds>  (134) 
1

>  <r_i_docking_score>  (134) 
-2.91574

>  <r_i_glide_ligand_efficiency>  (134) 
-0.138845

>  <r_i_glide_ligand_efficiency_sa>  (134) 
-0.383062

>  <r_i_glide_ligand_efficiency_ln>  (134) 
-0.72091

>  <r_i_glide_gscore>  (134) 
-2.91574

>  <r_i_glide_lipo>  (134) 
-0.621731

>  <r_i_glide_hbond>  (134) 
0

>  <r_i_glide_metal>  (134) 
-0

>  <r_i_glide_rewards>  (134) 
-1.4285

>  <r_i_glide_evdw>  (134) 
-8.20919

>  <r_i_glide_ecoul>  (134) 
-4.47356

>  <r_i_glide_erotb>  (134) 
0.21599

>  <r_i_glide_esite>  (134) 
0

>  <r_i_glide_emodel>  (134) 
-14.2215

>  <r_i_glide_energy>  (134) 
-12.6828

>  <r_i_glide_einternal>  (134) 
0.00404548

>  <r_i_glide_intrahb_reward>  (134) 
-0

>  <i_i_glide_confnum>  (134) 
1

>  <i_i_glide_posenum>  (134) 
1

>  <r_i_glide_eff_state_penalty>  (134) 
0

>  <ligand_id>  (134) 
40

>  <original_smiles>  (134) 
CN1CCC2(CCN(C3C4CC5CC(C4)CC3C5)CC2)C1

>  <smiles>  (134) 
[H]C1([H])C2([H])C([H])([H])C3([H])C([H])([H])C1([H])C([H])([H])C([H])(C2([H])[H])C3([H])[N+]1([H])C([H])([H])C([H])([H])C2(C([H])([H])C([H])([H])[N+]([H])(C([H])([H])[H])C2([H])[H])C([H])([H])C1([H])[H]

$$$$
40:1:1
     RDKit          3D

 55 59  0  0  1  0  0  0  0  0999 V2000
    2.2270    1.0337   -5.0267 C   0  0  0  0  0  0  0  0  0  0  0  0
    2.6323   -0.2709   -4.4418 N   0  0  1  0  0  0  0  0  0  0  0  0
    3.9154   -0.7237   -4.9520 C   0  0  0  0  0  0  0  0  0  0  0  0
    4.3268   -1.8529   -3.9929 C   0  0  0  0  0  0  0  0  0  0  0  0
    3.5920   -1.5150   -2.6809 C   0  0  1  0  0  0  0  0  0  0  0  0
    2.6153   -2.6282   -2.3234 C   0  0  0  0  0  0  0  0  0  0  0  0
    3.3304   -3.8461   -1.8032 C   0  0  0  0  0  0  0  0  0  0  0  0
    4.2623   -3.5618   -0.6861 N   0  0  1  0  0  0  0  0  0  0  0  0
    4.9050   -4.8120   -0.1780 C   0  0  2  0  0  0  0  0  0  0  0  0
    3.8634   -5.7624    0.5050 C   0  0  2  0  0  0  0  0  0  0  0  0
    3.2562   -5.0793    1.7510 C   0  0  0  0  0  0  0  0  0  0  0  0
    4.3835   -4.7496    2.7483 C   0  0  1  0  0  0  0  0  0  0  0  0
    5.0974   -6.0565    3.1608 C   0  0  0  0  0  0  0  0  0  0  0  0
    5.6926   -6.7575    1.9194 C   0  0  1  0  0  0  0  0  0  0  0  0
    4.5749   -7.0677    0.9092 C   0  0  0  0  0  0  0  0  0  0  0  0
    6.7202   -5.8212    1.2602 C   0  0  0  0  0  0  0  0  0  0  0  0
    6.0337   -4.5152    0.8493 C   0  0  2  0  0  0  0  0  0  0  0  0
    5.4230   -3.8118    2.0878 C   0  0  0  0  0  0  0  0  0  0  0  0
    5.2524   -2.5030   -1.0561 C   0  0  0  0  0  0  0  0  0  0  0  0
    4.5419   -1.2381   -1.5040 C   0  0  0  0  0  0  0  0  0  0  0  0
    2.8312   -0.2443   -2.9986 C   0  0  0  0  0  0  0  0  0  0  0  0
    2.9314    1.8254   -4.7820 H   0  0  0  0  0  0  0  0  0  0  0  0
    1.2319    1.3139   -4.6907 H   0  0  0  0  0  0  0  0  0  0  0  0
    2.2242    0.9518   -6.0957 H   0  0  0  0  0  0  0  0  0  0  0  0
    3.8079   -1.0434   -5.9866 H   0  0  0  0  0  0  0  0  0  0  0  0
    4.6150    0.1016   -4.8664 H   0  0  0  0  0  0  0  0  0  0  0  0
    4.0259   -2.8247   -4.3876 H   0  0  0  0  0  0  0  0  0  0  0  0
    5.3969   -1.9094   -3.8382 H   0  0  0  0  0  0  0  0  0  0  0  0
    1.9908   -2.3223   -1.5137 H   0  0  0  0  0  0  0  0  0  0  0  0
    1.9527   -2.8761   -3.1525 H   0  0  0  0  0  0  0  0  0  0  0  0
    2.5048   -4.4498   -1.4418 H   0  0  0  0  0  0  0  0  0  0  0  0
    3.8811   -4.2702   -2.6251 H   0  0  0  0  0  0  0  0  0  0  0  0
    5.3402   -5.3440   -1.0242 H   0  0  0  0  0  0  0  0  0  0  0  0
    3.0688   -6.0660   -0.1677 H   0  0  0  0  0  0  0  0  0  0  0  0
    2.7096   -4.1743    1.4766 H   0  0  0  0  0  0  0  0  0  0  0  0
    2.5166   -5.7368    2.2195 H   0  0  0  0  0  0  0  0  0  0  0  0
    3.9569   -4.2654    3.6284 H   0  0  0  0  0  0  0  0  0  0  0  0
    5.8965   -5.8256    3.8633 H   0  0  0  0  0  0  0  0  0  0  0  0
    4.3945   -6.7210    3.6686 H   0  0  0  0  0  0  0  0  0  0  0  0
    6.1909   -7.6862    2.2095 H   0  0  0  0  0  0  0  0  0  0  0  0
    3.8589   -7.7807    1.3261 H   0  0  0  0  0  0  0  0  0  0  0  0
    4.9880   -7.5364    0.0188 H   0  0  0  0  0  0  0  0  0  0  0  0
    7.5325   -5.6008    1.9504 H   0  0  0  0  0  0  0  0  0  0  0  0
    7.1710   -6.2890    0.3877 H   0  0  0  0  0  0  0  0  0  0  0  0
    6.8466   -3.9235    0.4143 H   0  0  0  0  0  0  0  0  0  0  0  0
    4.9382   -2.8720    1.8216 H   0  0  0  0  0  0  0  0  0  0  0  0
    6.2061   -3.5491    2.7954 H   0  0  0  0  0  0  0  0  0  0  0  0
    5.8755   -2.1724   -0.2232 H   0  0  0  0  0  0  0  0  0  0  0  0
    5.9013   -2.8948   -1.8361 H   0  0  0  0  0  0  0  0  0  0  0  0
    5.2880   -0.4826   -1.7692 H   0  0  0  0  0  0  0  0  0  0  0  0
    4.0005   -0.8223   -0.6554 H   0  0  0  0  0  0  0  0  0  0  0  0
    3.5426    0.5501   -2.7804 H   0  0  0  0  0  0  0  0  0  0  0  0
    1.9461   -0.0934   -2.3645 H   0  0  0  0  0  0  0  0  0  0  0  0
    3.7063   -3.1928    0.0653 H   0  0  0  0  0  0  0  0  0  0  0  0
    1.9586   -0.9941   -4.6573 H   0  0  0  0  0  0  0  0  0  0  0  0
  1  2  1  0
  1 22  1  0
  1 23  1  0
  1 24  1  0
  2 21  1  0
  2  3  1  0
  2 55  1  1
  3  4  1  0
  3 25  1  0
  3 26  1  0
  5  4  1  6
  4 27  1  0
  4 28  1  0
  5 20  1  0
  5  6  1  0
  5 21  1  0
  6  7  1  0
  6 29  1  0
  6 30  1  0
  7  8  1  0
  7 31  1  0
  7 32  1  0
  8  9  1  0
  8 19  1  0
  8 54  1  1
  9 17  1  0
  9 10  1  0
  9 33  1  6
 10 15  1  0
 10 11  1  0
 10 34  1  6
 11 12  1  0
 11 35  1  0
 11 36  1  0
 12 18  1  0
 12 13  1  0
 12 37  1  1
 13 14  1  0
 13 38  1  0
 13 39  1  0
 14 15  1  0
 14 16  1  0
 14 40  1  1
 15 41  1  0
 15 42  1  0
 16 17  1  0
 16 43  1  0
 16 44  1  0
 17 18  1  0
 17 45  1  6
 18 46  1  0
 18 47  1  0
 19 20  1  0
 19 48  1  0
 19 49  1  0
 20 50  1  0
 20 51  1  0
 21 52  1  0
 21 53  1  0
M  CHG  2   2   1   8   1
M  END
>  <i_m_ct_stereo_status>  (135) 
1

>  <s_m_source_file>  (135) 
/var/tmp/pbs.5076255.sched01/tmp7w47f283/46ruht8ay8.sdf

>  <i_m_source_file_index>  (135) 
13

>  <i_lp_mmshare_version>  (135) 
48012

>  <i_f3d_flags>  (135) 
0

>  <s_epik_input>  (135) 
W0NIM11OKFtDSDJdMSlbQ0gyXVtDSDJdQzEyW0NIMl1bQ0gyXU4oW0NIMl1bQ0gyXTIpW0NASF0oW0NAQEhdMzQpW0NASF01W0NIMl1bQ0BASF0oW0NIMl00KVtDSDJdW0NAQEhdKFtDSDJdMylbQ0gyXTU=

>  <s_epik_cmdline>  (135) 
J2VwaWtfcHl0aG9uJywgJy1waHQnLCAnMi4wJywgJy1waCcsICc3LjAnLCAnLXRuJywgJzgnLCAnLW1hJywgJzIwMCcsICctaW1hZScsICc8aW5maWxlLm1hZT4nLCAnLW9tYWUnLCAnPG91dGZpbGUubWFlPic=

>  <r_lp_tautomer_probability>  (135) 
1

>  <r_epik_Ionization_Penalty>  (135) 
0.00620163

>  <r_epik_Ionization_Penalty_Charging>  (135) 
0.00620163

>  <r_epik_Ionization_Penalty_Neutral>  (135) 
0

>  <r_epik_State_Penalty>  (135) 
-0

>  <r_epik_Charging_Adjusted_Penalty>  (135) 
0.00620163

>  <i_epik_Tot_Q>  (135) 
2

>  <i_epik_Tot_abs_Q>  (135) 
2

>  <s_lp_Force_Field>  (135) 
OPLS3e

>  <r_lp_Energy>  (135) 
41.3822

>  <b_lp_Chiralities_Consistent>  (135) 
1

>  <s_lp_Variant>  (135) 
40:0-2

>  <s_i_glide_gridfile>  (135) 
pfpi4k_grid

>  <i_i_glide_lignum>  (135) 
13

>  <i_i_glide_rotatable_bonds>  (135) 
1

>  <r_i_docking_score>  (135) 
-2.6466

>  <r_i_glide_ligand_efficiency>  (135) 
-0.126029

>  <r_i_glide_ligand_efficiency_sa>  (135) 
-0.347704

>  <r_i_glide_ligand_efficiency_ln>  (135) 
-0.654368

>  <r_i_glide_gscore>  (135) 
-2.6466

>  <r_i_glide_lipo>  (135) 
-0.502556

>  <r_i_glide_hbond>  (135) 
0

>  <r_i_glide_metal>  (135) 
-0

>  <r_i_glide_rewards>  (135) 
-1.4285

>  <r_i_glide_evdw>  (135) 
-4.75503

>  <r_i_glide_ecoul>  (135) 
-4.62525

>  <r_i_glide_erotb>  (135) 
0.21599

>  <r_i_glide_esite>  (135) 
0

>  <r_i_glide_emodel>  (135) 
-10.5487

>  <r_i_glide_energy>  (135) 
-9.38028

>  <r_i_glide_einternal>  (135) 
0.293009

>  <r_i_glide_intrahb_reward>  (135) 
-0

>  <i_i_glide_confnum>  (135) 
2

>  <i_i_glide_posenum>  (135) 
7

>  <r_i_glide_eff_state_penalty>  (135) 
0

>  <ligand_id>  (135) 
40

>  <original_smiles>  (135) 
CN1CCC2(CCN(C3C4CC5CC(C4)CC3C5)CC2)C1

>  <smiles>  (135) 
[H]C1([H])C2([H])C([H])([H])C3([H])C([H])([H])C1([H])C([H])([H])C([H])(C2([H])[H])C3([H])[N+]1([H])C([H])([H])C([H])([H])C2(C([H])([H])C([H])([H])[N+]([H])(C([H])([H])[H])C2([H])[H])C([H])([H])C1([H])[H]

$$$$
41:0:0
     RDKit          3D

 35 38  0  0  1  0  0  0  0  0999 V2000
    3.9818   -1.0027   -3.7200 C   0  0  0  0  0  0  0  0  0  0  0  0
    4.5578   -0.8593   -2.4476 C   0  0  0  0  0  0  0  0  0  0  0  0
    4.9402   -2.0239   -1.7413 C   0  0  0  0  0  0  0  0  0  0  0  0
    5.4605   -1.9527   -0.2996 C   0  0  2  0  0  0  0  0  0  0  0  0
    4.8816   -3.0118    0.6455 C   0  0  2  0  0  0  0  0  0  0  0  0
    3.3728   -2.6145    0.6246 C   0  0  0  0  0  0  0  0  0  0  0  0
    3.4665   -1.0786    0.5596 C   0  0  0  0  0  0  0  0  0  0  0  0
    4.9262   -0.8284    0.4974 N   0  0  1  0  0  0  0  0  0  0  0  0
    5.5001   -1.0482    1.8453 C   0  0  0  0  0  0  0  0  0  0  0  0
    5.5291   -2.5938    1.9874 C   0  0  1  0  0  0  0  0  0  0  0  0
    4.8070   -3.1364    3.1996 C   0  0  0  0  0  0  0  0  0  0  0  0
    3.9862   -4.3016    3.2746 C   0  0  0  0  0  0  0  0  0  0  0  0
    3.5437   -4.3197    4.5609 C   0  0  0  0  0  0  0  0  0  0  0  0
    4.1230   -3.2436    5.1912 N   0  0  0  0  0  0  0  0  0  0  0  0
    4.9257   -2.5330    4.3744 N   0  0  0  0  0  0  0  0  0  0  0  0
    4.7620   -3.2741   -2.3742 C   0  0  0  0  0  0  0  0  0  0  0  0
    4.1876   -3.3074   -3.6547 C   0  0  0  0  0  0  0  0  0  0  0  0
    3.8138   -2.1964   -4.3161 N   0  0  0  0  0  0  0  0  0  0  0  0
    3.9885   -2.9915    6.1610 H   0  0  0  0  0  0  0  0  0  0  0  0
    3.6479   -0.1375   -4.2740 H   0  0  0  0  0  0  0  0  0  0  0  0
    4.6320    0.1269   -2.0270 H   0  0  0  0  0  0  0  0  0  0  0  0
    6.5551   -1.9454   -0.3124 H   0  0  0  0  0  0  0  0  0  0  0  0
    5.0895   -4.0491    0.3747 H   0  0  0  0  0  0  0  0  0  0  0  0
    2.8740   -3.0230   -0.2597 H   0  0  0  0  0  0  0  0  0  0  0  0
    2.7778   -2.9261    1.4850 H   0  0  0  0  0  0  0  0  0  0  0  0
    3.0033   -0.7112   -0.3467 H   0  0  0  0  0  0  0  0  0  0  0  0
    2.9833   -0.5804    1.4015 H   0  0  0  0  0  0  0  0  0  0  0  0
    6.5185   -0.6591    1.8855 H   0  0  0  0  0  0  0  0  0  0  0  0
    4.9159   -0.5324    2.6086 H   0  0  0  0  0  0  0  0  0  0  0  0
    6.5690   -2.9347    2.0091 H   0  0  0  0  0  0  0  0  0  0  0  0
    3.7329   -4.9968    2.4918 H   0  0  0  0  0  0  0  0  0  0  0  0
    2.8777   -5.0052    5.0603 H   0  0  0  0  0  0  0  0  0  0  0  0
    5.0110   -4.2043   -1.8921 H   0  0  0  0  0  0  0  0  0  0  0  0
    4.0228   -4.2491   -4.1572 H   0  0  0  0  0  0  0  0  0  0  0  0
    5.1405    0.0803    0.1267 H   0  0  0  0  0  0  0  0  0  0  0  0
  1 18  2  0
  1  2  1  0
  1 20  1  0
  2  3  2  0
  2 21  1  0
  3  4  1  0
  3 16  1  0
  4  8  1  0
  4  5  1  0
  4 22  1  6
  5 10  1  0
  5  6  1  0
  5 23  1  6
  6  7  1  0
  6 24  1  0
  6 25  1  0
  7  8  1  0
  7 26  1  0
  7 27  1  0
  8  9  1  0
  8 35  1  6
  9 10  1  0
  9 28  1  0
  9 29  1  0
 10 11  1  0
 10 30  1  6
 11 15  2  0
 11 12  1  0
 12 13  2  0
 12 31  1  0
 13 14  1  0
 13 32  1  0
 14 19  1  0
 14 15  1  0
 16 17  2  0
 16 33  1  0
 17 18  1  0
 17 34  1  0
M  CHG  1   8   1
M  END
>  <i_m_ct_stereo_status>  (136) 
1

>  <s_m_source_file>  (136) 
/var/tmp/pbs.5076255.sched01/tmp7w47f283/46ruht8ay8.sdf

>  <i_m_source_file_index>  (136) 
14

>  <i_lp_mmshare_version>  (136) 
48012

>  <i_f3d_flags>  (136) 
0

>  <s_epik_input>  (136) 
W2NIXTFbY0hdbltjSF1bY0hdYzFbQ0BIXShbQ0BIXTIzKU4oW0NIMl1bQ0gyXTIpW0NIMl1bQ0BIXTNjNFtjSF1bY0hdW25IXW40

>  <s_epik_cmdline>  (136) 
J2VwaWtfcHl0aG9uJywgJy1waHQnLCAnMi4wJywgJy1waCcsICc3LjAnLCAnLXRuJywgJzgnLCAnLW1hJywgJzIwMCcsICctaW1hZScsICc8aW5maWxlLm1hZT4nLCAnLW9tYWUnLCAnPG91dGZpbGUubWFlPic=

>  <r_lp_tautomer_probability>  (136) 
0.5

>  <r_epik_Ionization_Penalty>  (136) 
0.0191415

>  <r_epik_Ionization_Penalty_Charging>  (136) 
0.0188389

>  <r_epik_Ionization_Penalty_Neutral>  (136) 
0.000302584

>  <r_epik_State_Penalty>  (136) 
0.425693

>  <r_epik_Charging_Adjusted_Penalty>  (136) 
0.444532

>  <i_epik_Tot_Q>  (136) 
1

>  <i_epik_Tot_abs_Q>  (136) 
1

>  <s_lp_Force_Field>  (136) 
OPLS3e

>  <r_lp_Energy>  (136) 
45.8773

>  <b_lp_Chiralities_Consistent>  (136) 
1

>  <s_lp_Variant>  (136) 
41:0-1

>  <s_i_glide_gridfile>  (136) 
pfpi4k_grid

>  <i_i_glide_lignum>  (136) 
14

>  <i_i_glide_rotatable_bonds>  (136) 
2

>  <r_i_docking_score>  (136) 
-4.23927

>  <r_i_glide_ligand_efficiency>  (136) 
-0.235515

>  <r_i_glide_ligand_efficiency_sa>  (136) 
-0.617223

>  <r_i_glide_ligand_efficiency_ln>  (136) 
-1.08968

>  <r_i_glide_gscore>  (136) 
-4.23927

>  <r_i_glide_lipo>  (136) 
-0.731253

>  <r_i_glide_hbond>  (136) 
-0.32

>  <r_i_glide_metal>  (136) 
-0

>  <r_i_glide_rewards>  (136) 
-1.76378

>  <r_i_glide_evdw>  (136) 
-21.776

>  <r_i_glide_ecoul>  (136) 
-6.2024

>  <r_i_glide_erotb>  (136) 
0.594931

>  <r_i_glide_esite>  (136) 
0

>  <r_i_glide_emodel>  (136) 
-34.7426

>  <r_i_glide_energy>  (136) 
-27.9784

>  <r_i_glide_einternal>  (136) 
2.73682

>  <r_i_glide_intrahb_reward>  (136) 
-0

>  <i_i_glide_confnum>  (136) 
6

>  <i_i_glide_posenum>  (136) 
2

>  <r_i_glide_eff_state_penalty>  (136) 
0

>  <ligand_id>  (136) 
41

>  <original_smiles>  (136) 
c1cc(C2C3CCN2CC3c2cc[nH]n2)ccn1

>  <smiles>  (136) 
[H]c1nc([H])c([H])c(C2([H])C3([H])C([H])([H])C([H])([H])[N+]2([H])C([H])([H])C3([H])c2nn([H])c([H])c2[H])c1[H]

$$$$
41:0:1
     RDKit          3D

 35 38  0  0  1  0  0  0  0  0999 V2000
    6.0785   -3.0508   -2.2186 C   0  0  0  0  0  0  0  0  0  0  0  0
    5.8040   -2.2827   -1.0713 C   0  0  0  0  0  0  0  0  0  0  0  0
    4.5315   -1.6867   -0.9323 C   0  0  0  0  0  0  0  0  0  0  0  0
    4.1436   -0.9227    0.3438 C   0  0  2  0  0  0  0  0  0  0  0  0
    4.8744   -1.3624    1.6193 C   0  0  2  0  0  0  0  0  0  0  0  0
    4.3695   -2.8310    1.7660 C   0  0  0  0  0  0  0  0  0  0  0  0
    2.9131   -2.6912    1.2604 C   0  0  0  0  0  0  0  0  0  0  0  0
    2.8115   -1.2562    0.8841 N   0  0  1  0  0  0  0  0  0  0  0  0
    2.7237   -0.4408    2.1225 C   0  0  0  0  0  0  0  0  0  0  0  0
    4.1745   -0.4617    2.6687 C   0  0  1  0  0  0  0  0  0  0  0  0
    4.3035   -0.9645    4.0914 C   0  0  0  0  0  0  0  0  0  0  0  0
    3.4378   -1.8474    4.8047 C   0  0  0  0  0  0  0  0  0  0  0  0
    4.0432   -2.0198    6.0136 C   0  0  0  0  0  0  0  0  0  0  0  0
    5.1978   -1.2769    5.9804 N   0  0  0  0  0  0  0  0  0  0  0  0
    5.3694   -0.6327    4.8091 N   0  0  0  0  0  0  0  0  0  0  0  0
    3.6100   -1.8615   -1.9857 C   0  0  0  0  0  0  0  0  0  0  0  0
    3.9807   -2.6463   -3.0960 C   0  0  0  0  0  0  0  0  0  0  0  0
    5.1883   -3.2349   -3.2146 N   0  0  0  0  0  0  0  0  0  0  0  0
    5.8673   -1.2025    6.7346 H   0  0  0  0  0  0  0  0  0  0  0  0
    7.0451   -3.5249   -2.3242 H   0  0  0  0  0  0  0  0  0  0  0  0
    6.5583   -2.2082   -0.2990 H   0  0  0  0  0  0  0  0  0  0  0  0
    4.2185    0.1516    0.1545 H   0  0  0  0  0  0  0  0  0  0  0  0
    5.9614   -1.2434    1.6207 H   0  0  0  0  0  0  0  0  0  0  0  0
    4.9326   -3.5202    1.1316 H   0  0  0  0  0  0  0  0  0  0  0  0
    4.4428   -3.2377    2.7802 H   0  0  0  0  0  0  0  0  0  0  0  0
    2.7500   -3.3077    0.3766 H   0  0  0  0  0  0  0  0  0  0  0  0
    2.1753   -2.9800    2.0092 H   0  0  0  0  0  0  0  0  0  0  0  0
    2.4383    0.5853    1.8830 H   0  0  0  0  0  0  0  0  0  0  0  0
    1.9731   -0.8355    2.8071 H   0  0  0  0  0  0  0  0  0  0  0  0
    4.5966    0.5396    2.5998 H   0  0  0  0  0  0  0  0  0  0  0  0
    2.5244   -2.3176    4.4804 H   0  0  0  0  0  0  0  0  0  0  0  0
    3.7501   -2.6169    6.8644 H   0  0  0  0  0  0  0  0  0  0  0  0
    2.6179   -1.4372   -1.9438 H   0  0  0  0  0  0  0  0  0  0  0  0
    3.2932   -2.8209   -3.9101 H   0  0  0  0  0  0  0  0  0  0  0  0
    2.0353   -1.0600    0.2472 H   0  0  0  0  0  0  0  0  0  0  0  0
  1 18  2  0
  1  2  1  0
  1 20  1  0
  2  3  2  0
  2 21  1  0
  3  4  1  0
  3 16  1  0
  4  8  1  0
  4  5  1  0
  4 22  1  6
  5 10  1  0
  5  6  1  0
  5 23  1  6
  6  7  1  0
  6 24  1  0
  6 25  1  0
  7  8  1  0
  7 26  1  0
  7 27  1  0
  8  9  1  0
  8 35  1  6
  9 10  1  0
  9 28  1  0
  9 29  1  0
 10 11  1  0
 10 30  1  1
 11 15  2  0
 11 12  1  0
 12 13  2  0
 12 31  1  0
 13 14  1  0
 13 32  1  0
 14 19  1  0
 14 15  1  0
 16 17  2  0
 16 33  1  0
 17 18  1  0
 17 34  1  0
M  CHG  1   8   1
M  END
>  <i_m_ct_stereo_status>  (137) 
1

>  <s_m_source_file>  (137) 
/var/tmp/pbs.5076255.sched01/tmp7w47f283/46ruht8ay8.sdf

>  <i_m_source_file_index>  (137) 
14

>  <i_lp_mmshare_version>  (137) 
48012

>  <i_f3d_flags>  (137) 
0

>  <s_epik_input>  (137) 
W2NIXTFbY0hdbltjSF1bY0hdYzFbQ0BIXShbQ0BIXTIzKU4oW0NIMl1bQ0gyXTIpW0NIMl1bQ0BIXTNjNFtjSF1bY0hdW25IXW40

>  <s_epik_cmdline>  (137) 
J2VwaWtfcHl0aG9uJywgJy1waHQnLCAnMi4wJywgJy1waCcsICc3LjAnLCAnLXRuJywgJzgnLCAnLW1hJywgJzIwMCcsICctaW1hZScsICc8aW5maWxlLm1hZT4nLCAnLW9tYWUnLCAnPG91dGZpbGUubWFlPic=

>  <r_lp_tautomer_probability>  (137) 
0.5

>  <r_epik_Ionization_Penalty>  (137) 
0.0191415

>  <r_epik_Ionization_Penalty_Charging>  (137) 
0.0188389

>  <r_epik_Ionization_Penalty_Neutral>  (137) 
0.000302584

>  <r_epik_State_Penalty>  (137) 
0.425693

>  <r_epik_Charging_Adjusted_Penalty>  (137) 
0.444532

>  <i_epik_Tot_Q>  (137) 
1

>  <i_epik_Tot_abs_Q>  (137) 
1

>  <s_lp_Force_Field>  (137) 
OPLS3e

>  <r_lp_Energy>  (137) 
45.8773

>  <b_lp_Chiralities_Consistent>  (137) 
1

>  <s_lp_Variant>  (137) 
41:0-1

>  <s_i_glide_gridfile>  (137) 
pfpi4k_grid

>  <i_i_glide_lignum>  (137) 
14

>  <i_i_glide_rotatable_bonds>  (137) 
2

>  <r_i_docking_score>  (137) 
-3.99826

>  <r_i_glide_ligand_efficiency>  (137) 
-0.222125

>  <r_i_glide_ligand_efficiency_sa>  (137) 
-0.582133

>  <r_i_glide_ligand_efficiency_ln>  (137) 
-1.02773

>  <r_i_glide_gscore>  (137) 
-3.99826

>  <r_i_glide_lipo>  (137) 
-0.435546

>  <r_i_glide_hbond>  (137) 
-0.2

>  <r_i_glide_metal>  (137) 
-0

>  <r_i_glide_rewards>  (137) 
-1.76378

>  <r_i_glide_evdw>  (137) 
-21.0978

>  <r_i_glide_ecoul>  (137) 
-7.17921

>  <r_i_glide_erotb>  (137) 
0.594931

>  <r_i_glide_esite>  (137) 
-0.0620859

>  <r_i_glide_emodel>  (137) 
-36.0305

>  <r_i_glide_energy>  (137) 
-28.277

>  <r_i_glide_einternal>  (137) 
0.124234

>  <r_i_glide_intrahb_reward>  (137) 
-0

>  <i_i_glide_confnum>  (137) 
4

>  <i_i_glide_posenum>  (137) 
35

>  <r_i_glide_eff_state_penalty>  (137) 
0

>  <ligand_id>  (137) 
41

>  <original_smiles>  (137) 
c1cc(C2C3CCN2CC3c2cc[nH]n2)ccn1

>  <smiles>  (137) 
[H]c1nc([H])c([H])c(C2([H])C3([H])C([H])([H])C([H])([H])[N+]2([H])C([H])([H])C3([H])c2nn([H])c([H])c2[H])c1[H]

$$$$
41:0:2
     RDKit          3D

 35 38  0  0  1  0  0  0  0  0999 V2000
    3.7765   -2.3950   -3.9241 C   0  0  0  0  0  0  0  0  0  0  0  0
    4.2447   -3.1611   -2.8508 C   0  0  0  0  0  0  0  0  0  0  0  0
    4.6905   -2.5062   -1.6848 C   0  0  0  0  0  0  0  0  0  0  0  0
    5.1095   -3.3096   -0.4480 C   0  0  2  0  0  0  0  0  0  0  0  0
    4.4633   -4.6928   -0.3118 C   0  0  2  0  0  0  0  0  0  0  0  0
    2.9605   -4.3120   -0.1511 C   0  0  0  0  0  0  0  0  0  0  0  0
    3.0667   -3.0041    0.6638 C   0  0  0  0  0  0  0  0  0  0  0  0
    4.5346   -2.8254    0.8235 N   0  0  1  0  0  0  0  0  0  0  0  0
    5.0450   -3.7991    1.8240 C   0  0  0  0  0  0  0  0  0  0  0  0
    5.0347   -5.1446    1.0506 C   0  0  1  0  0  0  0  0  0  0  0  0
    4.2337   -6.2438    1.7117 C   0  0  0  0  0  0  0  0  0  0  0  0
    3.2230   -6.1312    2.7163 C   0  0  0  0  0  0  0  0  0  0  0  0
    2.8013   -7.4100    2.9174 C   0  0  0  0  0  0  0  0  0  0  0  0
    3.5179   -8.2047    2.0558 N   0  0  0  0  0  0  0  0  0  0  0  0
    4.3908   -7.4977    1.3102 N   0  0  0  0  0  0  0  0  0  0  0  0
    4.6918   -1.0945   -1.6841 C   0  0  0  0  0  0  0  0  0  0  0  0
    4.2164   -0.4221   -2.8279 C   0  0  0  0  0  0  0  0  0  0  0  0
    3.7850   -1.0505   -3.9398 N   0  0  0  0  0  0  0  0  0  0  0  0
    3.4347   -9.2103    1.9711 H   0  0  0  0  0  0  0  0  0  0  0  0
    3.3912   -2.8916   -4.8044 H   0  0  0  0  0  0  0  0  0  0  0  0
    4.2053   -4.2365   -2.9316 H   0  0  0  0  0  0  0  0  0  0  0  0
    6.2025   -3.3388   -0.3979 H   0  0  0  0  0  0  0  0  0  0  0  0
    4.6782   -5.4035   -1.1138 H   0  0  0  0  0  0  0  0  0  0  0  0
    2.4845   -4.1226   -1.1161 H   0  0  0  0  0  0  0  0  0  0  0  0
    2.3554   -5.0800    0.3379 H   0  0  0  0  0  0  0  0  0  0  0  0
    2.6548   -2.1651    0.1047 H   0  0  0  0  0  0  0  0  0  0  0  0
    2.5430   -3.0544    1.6198 H   0  0  0  0  0  0  0  0  0  0  0  0
    6.0667   -3.5514    2.1146 H   0  0  0  0  0  0  0  0  0  0  0  0
    4.4394   -3.7785    2.7311 H   0  0  0  0  0  0  0  0  0  0  0  0
    6.0679   -5.4817    0.9033 H   0  0  0  0  0  0  0  0  0  0  0  0
    2.8415   -5.2558    3.2129 H   0  0  0  0  0  0  0  0  0  0  0  0
    2.0515   -7.8011    3.5896 H   0  0  0  0  0  0  0  0  0  0  0  0
    5.0045   -0.5192   -0.8253 H   0  0  0  0  0  0  0  0  0  0  0  0
    4.2083    0.6570   -2.8693 H   0  0  0  0  0  0  0  0  0  0  0  0
    4.7830   -1.8780    1.0622 H   0  0  0  0  0  0  0  0  0  0  0  0
  1 18  2  0
  1  2  1  0
  1 20  1  0
  2  3  2  0
  2 21  1  0
  3  4  1  0
  3 16  1  0
  4  8  1  0
  4  5  1  0
  4 22  1  1
  5 10  1  0
  5  6  1  0
  5 23  1  6
  6  7  1  0
  6 24  1  0
  6 25  1  0
  7  8  1  0
  7 26  1  0
  7 27  1  0
  8  9  1  0
  8 35  1  1
  9 10  1  0
  9 28  1  0
  9 29  1  0
 10 11  1  0
 10 30  1  6
 11 15  2  0
 11 12  1  0
 12 13  2  0
 12 31  1  0
 13 14  1  0
 13 32  1  0
 14 19  1  0
 14 15  1  0
 16 17  2  0
 16 33  1  0
 17 18  1  0
 17 34  1  0
M  CHG  1   8   1
M  END
>  <i_m_ct_stereo_status>  (138) 
1

>  <s_m_source_file>  (138) 
/var/tmp/pbs.5076255.sched01/tmp7w47f283/46ruht8ay8.sdf

>  <i_m_source_file_index>  (138) 
14

>  <i_lp_mmshare_version>  (138) 
48012

>  <i_f3d_flags>  (138) 
0

>  <s_epik_input>  (138) 
W2NIXTFbY0hdbltjSF1bY0hdYzFbQ0BIXShbQ0BIXTIzKU4oW0NIMl1bQ0gyXTIpW0NIMl1bQ0BIXTNjNFtjSF1bY0hdW25IXW40

>  <s_epik_cmdline>  (138) 
J2VwaWtfcHl0aG9uJywgJy1waHQnLCAnMi4wJywgJy1waCcsICc3LjAnLCAnLXRuJywgJzgnLCAnLW1hJywgJzIwMCcsICctaW1hZScsICc8aW5maWxlLm1hZT4nLCAnLW9tYWUnLCAnPG91dGZpbGUubWFlPic=

>  <r_lp_tautomer_probability>  (138) 
0.5

>  <r_epik_Ionization_Penalty>  (138) 
0.0191415

>  <r_epik_Ionization_Penalty_Charging>  (138) 
0.0188389

>  <r_epik_Ionization_Penalty_Neutral>  (138) 
0.000302584

>  <r_epik_State_Penalty>  (138) 
0.425693

>  <r_epik_Charging_Adjusted_Penalty>  (138) 
0.444532

>  <i_epik_Tot_Q>  (138) 
1

>  <i_epik_Tot_abs_Q>  (138) 
1

>  <s_lp_Force_Field>  (138) 
OPLS3e

>  <r_lp_Energy>  (138) 
45.8773

>  <b_lp_Chiralities_Consistent>  (138) 
1

>  <s_lp_Variant>  (138) 
41:0-1

>  <s_i_glide_gridfile>  (138) 
pfpi4k_grid

>  <i_i_glide_lignum>  (138) 
14

>  <i_i_glide_rotatable_bonds>  (138) 
2

>  <r_i_docking_score>  (138) 
-3.44622

>  <r_i_glide_ligand_efficiency>  (138) 
-0.191457

>  <r_i_glide_ligand_efficiency_sa>  (138) 
-0.501759

>  <r_i_glide_ligand_efficiency_ln>  (138) 
-0.885833

>  <r_i_glide_gscore>  (138) 
-3.44622

>  <r_i_glide_lipo>  (138) 
-0.422982

>  <r_i_glide_hbond>  (138) 
0

>  <r_i_glide_metal>  (138) 
-0

>  <r_i_glide_rewards>  (138) 
-1.76378

>  <r_i_glide_evdw>  (138) 
-23.7863

>  <r_i_glide_ecoul>  (138) 
-4.38051

>  <r_i_glide_erotb>  (138) 
0.594931

>  <r_i_glide_esite>  (138) 
-0.00799287

>  <r_i_glide_emodel>  (138) 
-34.8018

>  <r_i_glide_energy>  (138) 
-28.1668

>  <r_i_glide_einternal>  (138) 
0.140062

>  <r_i_glide_intrahb_reward>  (138) 
-0

>  <i_i_glide_confnum>  (138) 
1

>  <i_i_glide_posenum>  (138) 
10

>  <r_i_glide_eff_state_penalty>  (138) 
0

>  <ligand_id>  (138) 
41

>  <original_smiles>  (138) 
c1cc(C2C3CCN2CC3c2cc[nH]n2)ccn1

>  <smiles>  (138) 
[H]c1nc([H])c([H])c(C2([H])C3([H])C([H])([H])C([H])([H])[N+]2([H])C([H])([H])C3([H])c2nn([H])c([H])c2[H])c1[H]

$$$$
41:1:0
     RDKit          3D

 35 38  0  0  1  0  0  0  0  0999 V2000
    5.3890   -0.0860    4.1888 C   0  0  0  0  0  0  0  0  0  0  0  0
    5.5363   -0.7074    2.9393 C   0  0  0  0  0  0  0  0  0  0  0  0
    5.1070   -2.0422    2.7760 C   0  0  0  0  0  0  0  0  0  0  0  0
    5.1891   -2.7339    1.4052 C   0  0  2  0  0  0  0  0  0  0  0  0
    5.0979   -1.7898    0.1988 C   0  0  2  0  0  0  0  0  0  0  0  0
    3.6651   -1.2071    0.3931 C   0  0  0  0  0  0  0  0  0  0  0  0
    2.9158   -2.4329    0.9454 C   0  0  0  0  0  0  0  0  0  0  0  0
    3.9720   -3.4738    1.0220 N   0  0  1  0  0  0  0  0  0  0  0  0
    4.2661   -3.9520   -0.3542 C   0  0  0  0  0  0  0  0  0  0  0  0
    5.1042   -2.7996   -0.9669 C   0  0  1  0  0  0  0  0  0  0  0  0
    4.5870   -2.2613   -2.2679 C   0  0  0  0  0  0  0  0  0  0  0  0
    4.4205   -0.9752   -2.7091 C   0  0  0  0  0  0  0  0  0  0  0  0
    3.8203   -1.1258   -3.9882 C   0  0  0  0  0  0  0  0  0  0  0  0
    3.6657   -2.3908   -4.3169 N   0  0  0  0  0  0  0  0  0  0  0  0
    4.1539   -3.0793   -3.2819 N   0  0  0  0  0  0  0  0  0  0  0  0
    4.5720   -2.7048    3.9024 C   0  0  0  0  0  0  0  0  0  0  0  0
    4.4723   -1.9930    5.1157 C   0  0  0  0  0  0  0  0  0  0  0  0
    4.8631   -0.7105    5.2588 N   0  0  0  0  0  0  0  0  0  0  0  0
    4.1019   -4.0934   -3.2511 H   0  0  0  0  0  0  0  0  0  0  0  0
    5.6969    0.9407    4.3187 H   0  0  0  0  0  0  0  0  0  0  0  0
    5.9583   -0.1443    2.1237 H   0  0  0  0  0  0  0  0  0  0  0  0
    6.0643   -3.3910    1.3847 H   0  0  0  0  0  0  0  0  0  0  0  0
    5.8988   -1.0547    0.1138 H   0  0  0  0  0  0  0  0  0  0  0  0
    3.6512   -0.3810    1.1041 H   0  0  0  0  0  0  0  0  0  0  0  0
    3.1663   -0.8377   -0.5008 H   0  0  0  0  0  0  0  0  0  0  0  0
    2.5199   -2.2271    1.9404 H   0  0  0  0  0  0  0  0  0  0  0  0
    2.0821   -2.7349    0.3086 H   0  0  0  0  0  0  0  0  0  0  0  0
    4.8635   -4.8668   -0.3070 H   0  0  0  0  0  0  0  0  0  0  0  0
    3.3481   -4.1869   -0.9010 H   0  0  0  0  0  0  0  0  0  0  0  0
    6.1225   -3.1562   -1.1291 H   0  0  0  0  0  0  0  0  0  0  0  0
    4.6485   -0.0623   -2.1770 H   0  0  0  0  0  0  0  0  0  0  0  0
    3.4919   -0.3567   -4.6784 H   0  0  0  0  0  0  0  0  0  0  0  0
    4.2179   -3.7237    3.8544 H   0  0  0  0  0  0  0  0  0  0  0  0
    4.0541   -2.4565    5.9958 H   0  0  0  0  0  0  0  0  0  0  0  0
    3.7291   -4.2300    1.6413 H   0  0  0  0  0  0  0  0  0  0  0  0
  1 18  2  0
  1  2  1  0
  1 20  1  0
  2  3  2  0
  2 21  1  0
  3  4  1  0
  3 16  1  0
  4  8  1  0
  4  5  1  0
  4 22  1  1
  5 10  1  0
  5  6  1  0
  5 23  1  6
  6  7  1  0
  6 24  1  0
  6 25  1  0
  7  8  1  0
  7 26  1  0
  7 27  1  0
  8  9  1  0
  8 35  1  1
  9 10  1  0
  9 28  1  0
  9 29  1  0
 10 30  1  6
 10 11  1  0
 11 15  1  0
 11 12  2  0
 12 13  1  0
 12 31  1  0
 13 32  1  0
 13 14  2  0
 14 15  1  0
 15 19  1  0
 16 17  2  0
 16 33  1  0
 17 18  1  0
 17 34  1  0
M  CHG  1   8   1
M  END
>  <i_m_ct_stereo_status>  (139) 
1

>  <s_m_source_file>  (139) 
/var/tmp/pbs.5076255.sched01/tmp7w47f283/46ruht8ay8.sdf

>  <i_m_source_file_index>  (139) 
15

>  <i_lp_mmshare_version>  (139) 
48012

>  <i_f3d_flags>  (139) 
0

>  <s_epik_input>  (139) 
W2NIXTFbY0hdbltjSF1bY0hdYzFbQ0BIXShbQ0BIXTIzKU4oW0NIMl1bQ0gyXTIpW0NIMl1bQ0BIXTNjNFtjSF1bY0hdW25IXW40

>  <s_epik_cmdline>  (139) 
J2VwaWtfcHl0aG9uJywgJy1waHQnLCAnMi4wJywgJy1waCcsICc3LjAnLCAnLXRuJywgJzgnLCAnLW1hJywgJzIwMCcsICctaW1hZScsICc8aW5maWxlLm1hZT4nLCAnLW9tYWUnLCAnPG91dGZpbGUubWFlPic=

>  <r_lp_tautomer_probability>  (139) 
0.5

>  <r_epik_Ionization_Penalty>  (139) 
0.0191327

>  <r_epik_Ionization_Penalty_Charging>  (139) 
0.0188389

>  <r_epik_Ionization_Penalty_Neutral>  (139) 
0.00029377

>  <r_epik_State_Penalty>  (139) 
0.425693

>  <r_epik_Charging_Adjusted_Penalty>  (139) 
0.444532

>  <i_epik_Tot_Q>  (139) 
1

>  <i_epik_Tot_abs_Q>  (139) 
1

>  <s_lp_Force_Field>  (139) 
OPLS3e

>  <r_lp_Energy>  (139) 
44.8766

>  <b_lp_Chiralities_Consistent>  (139) 
1

>  <s_lp_Variant>  (139) 
41:0-2

>  <s_i_glide_gridfile>  (139) 
pfpi4k_grid

>  <i_i_glide_lignum>  (139) 
15

>  <i_i_glide_rotatable_bonds>  (139) 
2

>  <r_i_docking_score>  (139) 
-4.29286

>  <r_i_glide_ligand_efficiency>  (139) 
-0.238492

>  <r_i_glide_ligand_efficiency_sa>  (139) 
-0.625026

>  <r_i_glide_ligand_efficiency_ln>  (139) 
-1.10346

>  <r_i_glide_gscore>  (139) 
-4.29286

>  <r_i_glide_lipo>  (139) 
-0.534708

>  <r_i_glide_hbond>  (139) 
-0.360469

>  <r_i_glide_metal>  (139) 
-0

>  <r_i_glide_rewards>  (139) 
-1.76378

>  <r_i_glide_evdw>  (139) 
-22.7611

>  <r_i_glide_ecoul>  (139) 
-7.27179

>  <r_i_glide_erotb>  (139) 
0.594931

>  <r_i_glide_esite>  (139) 
0

>  <r_i_glide_emodel>  (139) 
-36.6844

>  <r_i_glide_energy>  (139) 
-30.0329

>  <r_i_glide_einternal>  (139) 
1.28554

>  <r_i_glide_intrahb_reward>  (139) 
-0

>  <i_i_glide_confnum>  (139) 
3

>  <i_i_glide_posenum>  (139) 
17

>  <r_i_glide_eff_state_penalty>  (139) 
0

>  <ligand_id>  (139) 
41

>  <original_smiles>  (139) 
c1cc(C2C3CCN2CC3c2cc[nH]n2)ccn1

>  <smiles>  (139) 
[H]c1nc([H])c([H])c(C2([H])C3([H])C([H])([H])C([H])([H])[N+]2([H])C([H])([H])C3([H])c2c([H])c([H])nn2[H])c1[H]

$$$$
41:1:1
     RDKit          3D

 35 38  0  0  1  0  0  0  0  0999 V2000
    5.2165   -0.3363    4.2287 C   0  0  0  0  0  0  0  0  0  0  0  0
    5.4255   -0.7248    2.8964 C   0  0  0  0  0  0  0  0  0  0  0  0
    5.2038   -2.0702    2.5237 C   0  0  0  0  0  0  0  0  0  0  0  0
    5.3553   -2.5225    1.0640 C   0  0  2  0  0  0  0  0  0  0  0  0
    5.0319   -1.4514    0.0220 C   0  0  2  0  0  0  0  0  0  0  0  0
    3.5305   -1.2005    0.3123 C   0  0  0  0  0  0  0  0  0  0  0  0
    3.0484   -2.6192    0.6780 C   0  0  0  0  0  0  0  0  0  0  0  0
    4.2926   -3.4272    0.5823 N   0  0  1  0  0  0  0  0  0  0  0  0
    4.6209   -3.6298   -0.8522 C   0  0  0  0  0  0  0  0  0  0  0  0
    5.1750   -2.2530   -1.2940 C   0  0  1  0  0  0  0  0  0  0  0  0
    4.4891   -1.6412   -2.4818 C   0  0  0  0  0  0  0  0  0  0  0  0
    3.7150   -2.1740   -3.4785 C   0  0  0  0  0  0  0  0  0  0  0  0
    3.3224   -1.0397   -4.2496 C   0  0  0  0  0  0  0  0  0  0  0  0
    3.8204    0.0896   -3.7956 N   0  0  0  0  0  0  0  0  0  0  0  0
    4.5357   -0.2846   -2.7194 N   0  0  0  0  0  0  0  0  0  0  0  0
    4.8022   -2.9732    3.5336 C   0  0  0  0  0  0  0  0  0  0  0  0
    4.6218   -2.4845    4.8416 C   0  0  0  0  0  0  0  0  0  0  0  0
    4.8176   -1.1950    5.1884 N   0  0  0  0  0  0  0  0  0  0  0  0
    4.9787    0.4067   -2.1256 H   0  0  0  0  0  0  0  0  0  0  0  0
    5.3681    0.6926    4.5243 H   0  0  0  0  0  0  0  0  0  0  0  0
    5.7375    0.0189    2.1799 H   0  0  0  0  0  0  0  0  0  0  0  0
    6.3452   -2.9678    0.9291 H   0  0  0  0  0  0  0  0  0  0  0  0
    5.6557   -0.5567    0.0456 H   0  0  0  0  0  0  0  0  0  0  0  0
    3.3767   -0.5071    1.1403 H   0  0  0  0  0  0  0  0  0  0  0  0
    3.0019   -0.7890   -0.5433 H   0  0  0  0  0  0  0  0  0  0  0  0
    2.6688   -2.6440    1.7010 H   0  0  0  0  0  0  0  0  0  0  0  0
    2.2552   -2.9857    0.0255 H   0  0  0  0  0  0  0  0  0  0  0  0
    5.3892   -4.3973   -0.9580 H   0  0  0  0  0  0  0  0  0  0  0  0
    3.7453   -3.9656   -1.4102 H   0  0  0  0  0  0  0  0  0  0  0  0
    6.2339   -2.3607   -1.5285 H   0  0  0  0  0  0  0  0  0  0  0  0
    3.4373   -3.2089   -3.6147 H   0  0  0  0  0  0  0  0  0  0  0  0
    2.6821   -0.9832   -5.1142 H   0  0  0  0  0  0  0  0  0  0  0  0
    4.6065   -4.0142    3.3227 H   0  0  0  0  0  0  0  0  0  0  0  0
    4.2989   -3.1417    5.6343 H   0  0  0  0  0  0  0  0  0  0  0  0
    4.2323   -4.2999    1.0838 H   0  0  0  0  0  0  0  0  0  0  0  0
  1 18  2  0
  1  2  1  0
  1 20  1  0
  2  3  2  0
  2 21  1  0
  3  4  1  0
  3 16  1  0
  4  8  1  0
  4  5  1  0
  4 22  1  1
  5 10  1  0
  5  6  1  0
  5 23  1  6
  6  7  1  0
  6 24  1  0
  6 25  1  0
  7  8  1  0
  7 26  1  0
  7 27  1  0
  8  9  1  0
  8 35  1  1
  9 10  1  0
  9 28  1  0
  9 29  1  0
 10 30  1  6
 10 11  1  0
 11 15  1  0
 11 12  2  0
 12 13  1  0
 12 31  1  0
 13 32  1  0
 13 14  2  0
 14 15  1  0
 15 19  1  0
 16 17  2  0
 16 33  1  0
 17 18  1  0
 17 34  1  0
M  CHG  1   8   1
M  END
>  <i_m_ct_stereo_status>  (140) 
1

>  <s_m_source_file>  (140) 
/var/tmp/pbs.5076255.sched01/tmp7w47f283/46ruht8ay8.sdf

>  <i_m_source_file_index>  (140) 
15

>  <i_lp_mmshare_version>  (140) 
48012

>  <i_f3d_flags>  (140) 
0

>  <s_epik_input>  (140) 
W2NIXTFbY0hdbltjSF1bY0hdYzFbQ0BIXShbQ0BIXTIzKU4oW0NIMl1bQ0gyXTIpW0NIMl1bQ0BIXTNjNFtjSF1bY0hdW25IXW40

>  <s_epik_cmdline>  (140) 
J2VwaWtfcHl0aG9uJywgJy1waHQnLCAnMi4wJywgJy1waCcsICc3LjAnLCAnLXRuJywgJzgnLCAnLW1hJywgJzIwMCcsICctaW1hZScsICc8aW5maWxlLm1hZT4nLCAnLW9tYWUnLCAnPG91dGZpbGUubWFlPic=

>  <r_lp_tautomer_probability>  (140) 
0.5

>  <r_epik_Ionization_Penalty>  (140) 
0.0191327

>  <r_epik_Ionization_Penalty_Charging>  (140) 
0.0188389

>  <r_epik_Ionization_Penalty_Neutral>  (140) 
0.00029377

>  <r_epik_State_Penalty>  (140) 
0.425693

>  <r_epik_Charging_Adjusted_Penalty>  (140) 
0.444532

>  <i_epik_Tot_Q>  (140) 
1

>  <i_epik_Tot_abs_Q>  (140) 
1

>  <s_lp_Force_Field>  (140) 
OPLS3e

>  <r_lp_Energy>  (140) 
44.8766

>  <b_lp_Chiralities_Consistent>  (140) 
1

>  <s_lp_Variant>  (140) 
41:0-2

>  <s_i_glide_gridfile>  (140) 
pfpi4k_grid

>  <i_i_glide_lignum>  (140) 
15

>  <i_i_glide_rotatable_bonds>  (140) 
2

>  <r_i_docking_score>  (140) 
-3.95563

>  <r_i_glide_ligand_efficiency>  (140) 
-0.219757

>  <r_i_glide_ligand_efficiency_sa>  (140) 
-0.575928

>  <r_i_glide_ligand_efficiency_ln>  (140) 
-1.01678

>  <r_i_glide_gscore>  (140) 
-3.95563

>  <r_i_glide_lipo>  (140) 
-0.666589

>  <r_i_glide_hbond>  (140) 
-0.32

>  <r_i_glide_metal>  (140) 
-0

>  <r_i_glide_rewards>  (140) 
-1.76378

>  <r_i_glide_evdw>  (140) 
-22.4608

>  <r_i_glide_ecoul>  (140) 
-4.51435

>  <r_i_glide_erotb>  (140) 
0.594931

>  <r_i_glide_esite>  (140) 
0

>  <r_i_glide_emodel>  (140) 
-33.5311

>  <r_i_glide_energy>  (140) 
-26.9752

>  <r_i_glide_einternal>  (140) 
0.522509

>  <r_i_glide_intrahb_reward>  (140) 
-0

>  <i_i_glide_confnum>  (140) 
1

>  <i_i_glide_posenum>  (140) 
26

>  <r_i_glide_eff_state_penalty>  (140) 
0

>  <ligand_id>  (140) 
41

>  <original_smiles>  (140) 
c1cc(C2C3CCN2CC3c2cc[nH]n2)ccn1

>  <smiles>  (140) 
[H]c1nc([H])c([H])c(C2([H])C3([H])C([H])([H])C([H])([H])[N+]2([H])C([H])([H])C3([H])c2c([H])c([H])nn2[H])c1[H]

$$$$
41:1:2
     RDKit          3D

 35 38  0  0  1  0  0  0  0  0999 V2000
    0.7316   -0.6740    3.6773 C   0  0  0  0  0  0  0  0  0  0  0  0
    1.6529   -0.5960    2.6201 C   0  0  0  0  0  0  0  0  0  0  0  0
    3.0026   -0.9438    2.8557 C   0  0  0  0  0  0  0  0  0  0  0  0
    4.0309   -0.9442    1.7153 C   0  0  2  0  0  0  0  0  0  0  0  0
    3.4769   -1.3164    0.3394 C   0  0  2  0  0  0  0  0  0  0  0  0
    3.0127   -2.7789    0.5756 C   0  0  0  0  0  0  0  0  0  0  0  0
    4.1063   -3.2797    1.5440 C   0  0  0  0  0  0  0  0  0  0  0  0
    4.9691   -2.0822    1.7278 N   0  0  1  0  0  0  0  0  0  0  0  0
    5.7799   -1.8816    0.4999 C   0  0  0  0  0  0  0  0  0  0  0  0
    4.7591   -1.3118   -0.5192 C   0  0  1  0  0  0  0  0  0  0  0  0
    4.6474   -2.0622   -1.8169 C   0  0  0  0  0  0  0  0  0  0  0  0
    5.1711   -3.2573   -2.2308 C   0  0  0  0  0  0  0  0  0  0  0  0
    4.6241   -3.4494   -3.5305 C   0  0  0  0  0  0  0  0  0  0  0  0
    3.8486   -2.4501   -3.9114 N   0  0  0  0  0  0  0  0  0  0  0  0
    3.8549   -1.6173   -2.8534 N   0  0  0  0  0  0  0  0  0  0  0  0
    3.3623   -1.3301    4.1663 C   0  0  0  0  0  0  0  0  0  0  0  0
    2.3617   -1.3779    5.1557 C   0  0  0  0  0  0  0  0  0  0  0  0
    1.0684   -1.0711    4.9215 N   0  0  0  0  0  0  0  0  0  0  0  0
    3.2814   -0.7842   -2.8366 H   0  0  0  0  0  0  0  0  0  0  0  0
   -0.3087   -0.4325    3.5089 H   0  0  0  0  0  0  0  0  0  0  0  0
    1.3038   -0.2978    1.6405 H   0  0  0  0  0  0  0  0  0  0  0  0
    4.5624    0.0122    1.7180 H   0  0  0  0  0  0  0  0  0  0  0  0
    2.7044   -0.6502   -0.0393 H   0  0  0  0  0  0  0  0  0  0  0  0
    2.0320   -2.8037    1.0510 H   0  0  0  0  0  0  0  0  0  0  0  0
    2.9413   -3.3755   -0.3368 H   0  0  0  0  0  0  0  0  0  0  0  0
    3.6677   -3.5686    2.4998 H   0  0  0  0  0  0  0  0  0  0  0  0
    4.6534   -4.1404    1.1590 H   0  0  0  0  0  0  0  0  0  0  0  0
    6.5704   -1.1523    0.6835 H   0  0  0  0  0  0  0  0  0  0  0  0
    6.2602   -2.8125    0.1958 H   0  0  0  0  0  0  0  0  0  0  0  0
    5.0215   -0.2758   -0.7408 H   0  0  0  0  0  0  0  0  0  0  0  0
    5.8185   -3.9270   -1.6844 H   0  0  0  0  0  0  0  0  0  0  0  0
    4.7731   -4.2807   -4.2049 H   0  0  0  0  0  0  0  0  0  0  0  0
    4.3718   -1.6152    4.4209 H   0  0  0  0  0  0  0  0  0  0  0  0
    2.5980   -1.6882    6.1622 H   0  0  0  0  0  0  0  0  0  0  0  0
    5.5418   -2.1360    2.5551 H   0  0  0  0  0  0  0  0  0  0  0  0
  1 18  2  0
  1  2  1  0
  1 20  1  0
  2  3  2  0
  2 21  1  0
  3  4  1  0
  3 16  1  0
  4  8  1  0
  4  5  1  0
  4 22  1  6
  5 10  1  0
  5  6  1  0
  5 23  1  6
  6  7  1  0
  6 24  1  0
  6 25  1  0
  7  8  1  0
  7 26  1  0
  7 27  1  0
  8  9  1  0
  8 35  1  1
  9 10  1  0
  9 28  1  0
  9 29  1  0
 10 30  1  6
 10 11  1  0
 11 15  1  0
 11 12  2  0
 12 13  1  0
 12 31  1  0
 13 32  1  0
 13 14  2  0
 14 15  1  0
 15 19  1  0
 16 17  2  0
 16 33  1  0
 17 18  1  0
 17 34  1  0
M  CHG  1   8   1
M  END
>  <i_m_ct_stereo_status>  (141) 
1

>  <s_m_source_file>  (141) 
/var/tmp/pbs.5076255.sched01/tmp7w47f283/46ruht8ay8.sdf

>  <i_m_source_file_index>  (141) 
15

>  <i_lp_mmshare_version>  (141) 
48012

>  <i_f3d_flags>  (141) 
0

>  <s_epik_input>  (141) 
W2NIXTFbY0hdbltjSF1bY0hdYzFbQ0BIXShbQ0BIXTIzKU4oW0NIMl1bQ0gyXTIpW0NIMl1bQ0BIXTNjNFtjSF1bY0hdW25IXW40

>  <s_epik_cmdline>  (141) 
J2VwaWtfcHl0aG9uJywgJy1waHQnLCAnMi4wJywgJy1waCcsICc3LjAnLCAnLXRuJywgJzgnLCAnLW1hJywgJzIwMCcsICctaW1hZScsICc8aW5maWxlLm1hZT4nLCAnLW9tYWUnLCAnPG91dGZpbGUubWFlPic=

>  <r_lp_tautomer_probability>  (141) 
0.5

>  <r_epik_Ionization_Penalty>  (141) 
0.0191327

>  <r_epik_Ionization_Penalty_Charging>  (141) 
0.0188389

>  <r_epik_Ionization_Penalty_Neutral>  (141) 
0.00029377

>  <r_epik_State_Penalty>  (141) 
0.425693

>  <r_epik_Charging_Adjusted_Penalty>  (141) 
0.444532

>  <i_epik_Tot_Q>  (141) 
1

>  <i_epik_Tot_abs_Q>  (141) 
1

>  <s_lp_Force_Field>  (141) 
OPLS3e

>  <r_lp_Energy>  (141) 
44.8766

>  <b_lp_Chiralities_Consistent>  (141) 
1

>  <s_lp_Variant>  (141) 
41:0-2

>  <s_i_glide_gridfile>  (141) 
pfpi4k_grid

>  <i_i_glide_lignum>  (141) 
15

>  <i_i_glide_rotatable_bonds>  (141) 
2

>  <r_i_docking_score>  (141) 
-3.66292

>  <r_i_glide_ligand_efficiency>  (141) 
-0.203495

>  <r_i_glide_ligand_efficiency_sa>  (141) 
-0.533309

>  <r_i_glide_ligand_efficiency_ln>  (141) 
-0.941534

>  <r_i_glide_gscore>  (141) 
-3.66292

>  <r_i_glide_lipo>  (141) 
-0.469199

>  <r_i_glide_hbond>  (141) 
-0.14361

>  <r_i_glide_metal>  (141) 
-0

>  <r_i_glide_rewards>  (141) 
-1.76378

>  <r_i_glide_evdw>  (141) 
-22.9679

>  <r_i_glide_ecoul>  (141) 
-4.82787

>  <r_i_glide_erotb>  (141) 
0.594931

>  <r_i_glide_esite>  (141) 
-0.00867614

>  <r_i_glide_emodel>  (141) 
-34.2201

>  <r_i_glide_energy>  (141) 
-27.7958

>  <r_i_glide_einternal>  (141) 
0.0234737

>  <r_i_glide_intrahb_reward>  (141) 
-0

>  <i_i_glide_confnum>  (141) 
1

>  <i_i_glide_posenum>  (141) 
9

>  <r_i_glide_eff_state_penalty>  (141) 
0

>  <ligand_id>  (141) 
41

>  <original_smiles>  (141) 
c1cc(C2C3CCN2CC3c2cc[nH]n2)ccn1

>  <smiles>  (141) 
[H]c1nc([H])c([H])c(C2([H])C3([H])C([H])([H])C([H])([H])[N+]2([H])C([H])([H])C3([H])c2c([H])c([H])nn2[H])c1[H]

$$$$
41:2:0
     RDKit          3D

 34 37  0  0  1  0  0  0  0  0999 V2000
    2.4576    0.8369    4.6461 C   0  0  0  0  0  0  0  0  0  0  0  0
    3.0847    0.6018    3.4084 C   0  0  0  0  0  0  0  0  0  0  0  0
    4.1653   -0.2991    3.3538 C   0  0  0  0  0  0  0  0  0  0  0  0
    4.8132   -0.6583    2.0078 C   0  0  2  0  0  0  0  0  0  0  0  0
    3.8502   -0.8130    0.8305 C   0  0  2  0  0  0  0  0  0  0  0  0
    3.0164   -2.0115    1.2928 C   0  0  0  0  0  0  0  0  0  0  0  0
    4.1155   -2.8443    1.9818 C   0  0  0  0  0  0  0  0  0  0  0  0
    5.3397   -2.0240    1.9038 N   0  0  0  0  0  0  0  0  0  0  0  0
    5.8256   -2.0749    0.5119 C   0  0  0  0  0  0  0  0  0  0  0  0
    4.8247   -1.2095   -0.2833 C   0  0  1  0  0  0  0  0  0  0  0  0
    4.2164   -1.8895   -1.4900 C   0  0  0  0  0  0  0  0  0  0  0  0
    3.7616   -1.2963   -2.7085 C   0  0  0  0  0  0  0  0  0  0  0  0
    3.1931   -2.3402   -3.3890 C   0  0  0  0  0  0  0  0  0  0  0  0
    3.3217   -3.4532   -2.5976 N   0  0  0  0  0  0  0  0  0  0  0  0
    3.9689   -3.1907   -1.4522 N   0  0  0  0  0  0  0  0  0  0  0  0
    4.5969   -0.8927    4.5593 C   0  0  0  0  0  0  0  0  0  0  0  0
    3.9012   -0.5919    5.7466 C   0  0  0  0  0  0  0  0  0  0  0  0
    2.8440    0.2442    5.7944 N   0  0  0  0  0  0  0  0  0  0  0  0
    3.0048   -4.4034   -2.7959 H   0  0  0  0  0  0  0  0  0  0  0  0
    1.6088    1.5029    4.7082 H   0  0  0  0  0  0  0  0  0  0  0  0
    2.7033    1.0823    2.5216 H   0  0  0  0  0  0  0  0  0  0  0  0
    5.6137    0.0561    1.8042 H   0  0  0  0  0  0  0  0  0  0  0  0
    3.2693    0.0742    0.5831 H   0  0  0  0  0  0  0  0  0  0  0  0
    2.2503   -1.7019    2.0015 H   0  0  0  0  0  0  0  0  0  0  0  0
    2.4961   -2.5416    0.4963 H   0  0  0  0  0  0  0  0  0  0  0  0
    3.8607   -2.9792    3.0288 H   0  0  0  0  0  0  0  0  0  0  0  0
    4.2504   -3.8358    1.5434 H   0  0  0  0  0  0  0  0  0  0  0  0
    6.8234   -1.6465    0.4447 H   0  0  0  0  0  0  0  0  0  0  0  0
    5.8897   -3.1094    0.1668 H   0  0  0  0  0  0  0  0  0  0  0  0
    5.3441   -0.3128   -0.6168 H   0  0  0  0  0  0  0  0  0  0  0  0
    3.7911   -0.2590   -3.0050 H   0  0  0  0  0  0  0  0  0  0  0  0
    2.6935   -2.3741   -4.3452 H   0  0  0  0  0  0  0  0  0  0  0  0
    5.4092   -1.6039    4.5714 H   0  0  0  0  0  0  0  0  0  0  0  0
    4.1839   -1.0545    6.6808 H   0  0  0  0  0  0  0  0  0  0  0  0
  1 18  2  0
  1  2  1  0
  1 20  1  0
  2  3  2  0
  2 21  1  0
  3  4  1  0
  3 16  1  0
  4  8  1  0
  4  5  1  0
  4 22  1  6
  5 10  1  0
  5  6  1  0
  5 23  1  6
  6  7  1  0
  6 24  1  0
  6 25  1  0
  7  8  1  0
  7 26  1  0
  7 27  1  0
  8  9  1  0
  9 10  1  0
  9 28  1  0
  9 29  1  0
 10 11  1  0
 10 30  1  6
 11 15  2  0
 11 12  1  0
 12 13  2  0
 12 31  1  0
 13 14  1  0
 13 32  1  0
 14 19  1  0
 14 15  1  0
 16 17  2  0
 16 33  1  0
 17 18  1  0
 17 34  1  0
M  END
>  <i_m_ct_stereo_status>  (142) 
1

>  <s_m_source_file>  (142) 
/var/tmp/pbs.5076255.sched01/tmp7w47f283/46ruht8ay8.sdf

>  <i_m_source_file_index>  (142) 
16

>  <i_lp_mmshare_version>  (142) 
48012

>  <i_f3d_flags>  (142) 
0

>  <s_epik_input>  (142) 
W2NIXTFbY0hdbltjSF1bY0hdYzFbQ0BIXShbQ0BIXTIzKU4oW0NIMl1bQ0gyXTIpW0NIMl1bQ0BIXTNjNFtjSF1bY0hdW25IXW40

>  <s_epik_cmdline>  (142) 
J2VwaWtfcHl0aG9uJywgJy1waHQnLCAnMi4wJywgJy1waCcsICc3LjAnLCAnLXRuJywgJzgnLCAnLW1hJywgJzIwMCcsICctaW1hZScsICc8aW5maWxlLm1hZT4nLCAnLW9tYWUnLCAnPG91dGZpbGUubWFlPic=

>  <r_lp_tautomer_probability>  (142) 
0.5

>  <r_epik_Ionization_Penalty>  (142) 
2.06741

>  <r_epik_Ionization_Penalty_Charging>  (142) 
0

>  <r_epik_Ionization_Penalty_Neutral>  (142) 
2.06741

>  <r_epik_State_Penalty>  (142) 
2.5958

>  <r_epik_Charging_Adjusted_Penalty>  (142) 
2.5958

>  <i_epik_Tot_Q>  (142) 
0

>  <i_epik_Tot_abs_Q>  (142) 
0

>  <s_lp_Force_Field>  (142) 
OPLS3e

>  <r_lp_Energy>  (142) 
46.1896

>  <b_lp_Chiralities_Consistent>  (142) 
1

>  <s_lp_Variant>  (142) 
41:0-3

>  <s_i_glide_gridfile>  (142) 
pfpi4k_grid

>  <i_i_glide_lignum>  (142) 
16

>  <i_i_glide_rotatable_bonds>  (142) 
2

>  <r_i_docking_score>  (142) 
-3.67076

>  <r_i_glide_ligand_efficiency>  (142) 
-0.203931

>  <r_i_glide_ligand_efficiency_sa>  (142) 
-0.53445

>  <r_i_glide_ligand_efficiency_ln>  (142) 
-0.943549

>  <r_i_glide_gscore>  (142) 
-3.67076

>  <r_i_glide_lipo>  (142) 
-0.415823

>  <r_i_glide_hbond>  (142) 
-0.32

>  <r_i_glide_metal>  (142) 
-0

>  <r_i_glide_rewards>  (142) 
-1.77066

>  <r_i_glide_evdw>  (142) 
-21.1212

>  <r_i_glide_ecoul>  (142) 
-4.46019

>  <r_i_glide_erotb>  (142) 
0.599196

>  <r_i_glide_esite>  (142) 
-0.0383836

>  <r_i_glide_emodel>  (142) 
-30.8982

>  <r_i_glide_energy>  (142) 
-25.5814

>  <r_i_glide_einternal>  (142) 
1.41679

>  <r_i_glide_intrahb_reward>  (142) 
-0

>  <i_i_glide_confnum>  (142) 
3

>  <i_i_glide_posenum>  (142) 
25

>  <r_i_glide_eff_state_penalty>  (142) 
0

>  <ligand_id>  (142) 
41

>  <original_smiles>  (142) 
c1cc(C2C3CCN2CC3c2cc[nH]n2)ccn1

>  <smiles>  (142) 
[H]c1nc([H])c([H])c(C2([H])N3C([H])([H])C([H])([H])C2([H])C([H])(c2nn([H])c([H])c2[H])C3([H])[H])c1[H]

$$$$
41:2:1
     RDKit          3D

 34 37  0  0  1  0  0  0  0  0999 V2000
    3.0751   -3.0218   -3.1933 C   0  0  0  0  0  0  0  0  0  0  0  0
    3.0221   -2.9202   -1.7902 C   0  0  0  0  0  0  0  0  0  0  0  0
    4.2067   -3.0887   -1.0391 C   0  0  0  0  0  0  0  0  0  0  0  0
    4.2160   -2.8885    0.4818 C   0  0  2  0  0  0  0  0  0  0  0  0
    3.4215   -1.6875    0.9929 C   0  0  2  0  0  0  0  0  0  0  0  0
    4.2235   -0.5357    0.3668 C   0  0  0  0  0  0  0  0  0  0  0  0
    5.6491   -1.0813    0.4735 C   0  0  0  0  0  0  0  0  0  0  0  0
    5.4837   -2.4215    1.0535 N   0  0  0  0  0  0  0  0  0  0  0  0
    5.1532   -2.2451    2.4747 C   0  0  0  0  0  0  0  0  0  0  0  0
    3.6821   -1.7739    2.5015 C   0  0  1  0  0  0  0  0  0  0  0  0
    3.4415   -0.4729    3.2374 C   0  0  0  0  0  0  0  0  0  0  0  0
    2.5662    0.5931    2.8615 C   0  0  0  0  0  0  0  0  0  0  0  0
    2.7406    1.5337    3.8324 C   0  0  0  0  0  0  0  0  0  0  0  0
    3.6241    0.9983    4.7375 N   0  0  0  0  0  0  0  0  0  0  0  0
    4.0336   -0.2411    4.4021 N   0  0  0  0  0  0  0  0  0  0  0  0
    5.3903   -3.3877   -1.7472 C   0  0  0  0  0  0  0  0  0  0  0  0
    5.3350   -3.4599   -3.1492 C   0  0  0  0  0  0  0  0  0  0  0  0
    4.2156   -3.2679   -3.8755 N   0  0  0  0  0  0  0  0  0  0  0  0
    3.9483    1.4601    5.5775 H   0  0  0  0  0  0  0  0  0  0  0  0
    2.1825   -2.8742   -3.7872 H   0  0  0  0  0  0  0  0  0  0  0  0
    2.0867   -2.6761   -1.3097 H   0  0  0  0  0  0  0  0  0  0  0  0
    3.9017   -3.8228    0.9533 H   0  0  0  0  0  0  0  0  0  0  0  0
    2.3576   -1.6891    0.7514 H   0  0  0  0  0  0  0  0  0  0  0  0
    3.9382   -0.4010   -0.6753 H   0  0  0  0  0  0  0  0  0  0  0  0
    4.1364    0.4387    0.8484 H   0  0  0  0  0  0  0  0  0  0  0  0
    6.0766   -1.1655   -0.5238 H   0  0  0  0  0  0  0  0  0  0  0  0
    6.3063   -0.4447    1.0683 H   0  0  0  0  0  0  0  0  0  0  0  0
    5.2315   -3.2034    2.9910 H   0  0  0  0  0  0  0  0  0  0  0  0
    5.8407   -1.5479    2.9575 H   0  0  0  0  0  0  0  0  0  0  0  0
    3.0581   -2.5565    2.9374 H   0  0  0  0  0  0  0  0  0  0  0  0
    1.9470    0.6719    1.9803 H   0  0  0  0  0  0  0  0  0  0  0  0
    2.3050    2.5163    3.9384 H   0  0  0  0  0  0  0  0  0  0  0  0
    6.3279   -3.5264   -1.2317 H   0  0  0  0  0  0  0  0  0  0  0  0
    6.2248   -3.6762   -3.7134 H   0  0  0  0  0  0  0  0  0  0  0  0
  1 18  2  0
  1  2  1  0
  1 20  1  0
  2  3  2  0
  2 21  1  0
  3  4  1  0
  3 16  1  0
  4  8  1  0
  4  5  1  0
  4 22  1  1
  5 10  1  0
  5  6  1  0
  5 23  1  1
  6  7  1  0
  6 24  1  0
  6 25  1  0
  7  8  1  0
  7 26  1  0
  7 27  1  0
  8  9  1  0
  9 10  1  0
  9 28  1  0
  9 29  1  0
 10 11  1  0
 10 30  1  1
 11 15  2  0
 11 12  1  0
 12 13  2  0
 12 31  1  0
 13 14  1  0
 13 32  1  0
 14 19  1  0
 14 15  1  0
 16 17  2  0
 16 33  1  0
 17 18  1  0
 17 34  1  0
M  END
>  <i_m_ct_stereo_status>  (143) 
1

>  <s_m_source_file>  (143) 
/var/tmp/pbs.5076255.sched01/tmp7w47f283/46ruht8ay8.sdf

>  <i_m_source_file_index>  (143) 
16

>  <i_lp_mmshare_version>  (143) 
48012

>  <i_f3d_flags>  (143) 
0

>  <s_epik_input>  (143) 
W2NIXTFbY0hdbltjSF1bY0hdYzFbQ0BIXShbQ0BIXTIzKU4oW0NIMl1bQ0gyXTIpW0NIMl1bQ0BIXTNjNFtjSF1bY0hdW25IXW40

>  <s_epik_cmdline>  (143) 
J2VwaWtfcHl0aG9uJywgJy1waHQnLCAnMi4wJywgJy1waCcsICc3LjAnLCAnLXRuJywgJzgnLCAnLW1hJywgJzIwMCcsICctaW1hZScsICc8aW5maWxlLm1hZT4nLCAnLW9tYWUnLCAnPG91dGZpbGUubWFlPic=

>  <r_lp_tautomer_probability>  (143) 
0.5

>  <r_epik_Ionization_Penalty>  (143) 
2.06741

>  <r_epik_Ionization_Penalty_Charging>  (143) 
0

>  <r_epik_Ionization_Penalty_Neutral>  (143) 
2.06741

>  <r_epik_State_Penalty>  (143) 
2.5958

>  <r_epik_Charging_Adjusted_Penalty>  (143) 
2.5958

>  <i_epik_Tot_Q>  (143) 
0

>  <i_epik_Tot_abs_Q>  (143) 
0

>  <s_lp_Force_Field>  (143) 
OPLS3e

>  <r_lp_Energy>  (143) 
46.1896

>  <b_lp_Chiralities_Consistent>  (143) 
1

>  <s_lp_Variant>  (143) 
41:0-3

>  <s_i_glide_gridfile>  (143) 
pfpi4k_grid

>  <i_i_glide_lignum>  (143) 
16

>  <i_i_glide_rotatable_bonds>  (143) 
2

>  <r_i_docking_score>  (143) 
-3.51234

>  <r_i_glide_ligand_efficiency>  (143) 
-0.19513

>  <r_i_glide_ligand_efficiency_sa>  (143) 
-0.511386

>  <r_i_glide_ligand_efficiency_ln>  (143) 
-0.90283

>  <r_i_glide_gscore>  (143) 
-3.51234

>  <r_i_glide_lipo>  (143) 
-0.697306

>  <r_i_glide_hbond>  (143) 
-0.0152882

>  <r_i_glide_metal>  (143) 
-0

>  <r_i_glide_rewards>  (143) 
-1.77066

>  <r_i_glide_evdw>  (143) 
-23.6723

>  <r_i_glide_ecoul>  (143) 
-2.95414

>  <r_i_glide_erotb>  (143) 
0.599196

>  <r_i_glide_esite>  (143) 
-0.0015513

>  <r_i_glide_emodel>  (143) 
-31.2227

>  <r_i_glide_energy>  (143) 
-26.6265

>  <r_i_glide_einternal>  (143) 
2.23921

>  <r_i_glide_intrahb_reward>  (143) 
-0

>  <i_i_glide_confnum>  (143) 
1

>  <i_i_glide_posenum>  (143) 
32

>  <r_i_glide_eff_state_penalty>  (143) 
0

>  <ligand_id>  (143) 
41

>  <original_smiles>  (143) 
c1cc(C2C3CCN2CC3c2cc[nH]n2)ccn1

>  <smiles>  (143) 
[H]c1nc([H])c([H])c(C2([H])N3C([H])([H])C([H])([H])C2([H])C([H])(c2nn([H])c([H])c2[H])C3([H])[H])c1[H]

$$$$
41:2:2
     RDKit          3D

 34 37  0  0  1  0  0  0  0  0999 V2000
    3.0772   -2.9092   -3.1635 C   0  0  0  0  0  0  0  0  0  0  0  0
    3.0156   -2.8959   -1.7563 C   0  0  0  0  0  0  0  0  0  0  0  0
    4.1968   -3.1197   -1.0150 C   0  0  0  0  0  0  0  0  0  0  0  0
    4.1954   -3.0127    0.5137 C   0  0  2  0  0  0  0  0  0  0  0  0
    3.4071   -1.8391    1.0978 C   0  0  2  0  0  0  0  0  0  0  0  0
    4.2147   -0.6492    0.5652 C   0  0  0  0  0  0  0  0  0  0  0  0
    5.6386   -1.2203    0.6397 C   0  0  0  0  0  0  0  0  0  0  0  0
    5.4641   -2.5998    1.1208 N   0  0  0  0  0  0  0  0  0  0  0  0
    5.1267   -2.5405    2.5499 C   0  0  0  0  0  0  0  0  0  0  0  0
    3.6703   -2.0349    2.5953 C   0  0  1  0  0  0  0  0  0  0  0  0
    3.4645   -0.7900    3.4265 C   0  0  0  0  0  0  0  0  0  0  0  0
    4.4414    0.1512    3.8782 C   0  0  0  0  0  0  0  0  0  0  0  0
    3.7141    1.1120    4.5159 C   0  0  0  0  0  0  0  0  0  0  0  0
    2.3991    0.7284    4.4341 N   0  0  0  0  0  0  0  0  0  0  0  0
    2.2347   -0.4363    3.7753 N   0  0  0  0  0  0  0  0  0  0  0  0
    5.3797   -3.3882   -1.7334 C   0  0  0  0  0  0  0  0  0  0  0  0
    5.3315   -3.3855   -3.1364 C   0  0  0  0  0  0  0  0  0  0  0  0
    4.2159   -3.1263   -3.8539 N   0  0  0  0  0  0  0  0  0  0  0  0
    1.6145    1.2504    4.8026 H   0  0  0  0  0  0  0  0  0  0  0  0
    2.1865   -2.7124   -3.7496 H   0  0  0  0  0  0  0  0  0  0  0  0
    2.0821   -2.6754   -1.2650 H   0  0  0  0  0  0  0  0  0  0  0  0
    3.8722   -3.9729    0.9237 H   0  0  0  0  0  0  0  0  0  0  0  0
    2.3418   -1.8111    0.8538 H   0  0  0  0  0  0  0  0  0  0  0  0
    3.9383   -0.4341   -0.4650 H   0  0  0  0  0  0  0  0  0  0  0  0
    4.0921    0.2768    1.1305 H   0  0  0  0  0  0  0  0  0  0  0  0
    6.0705   -1.2482   -0.3586 H   0  0  0  0  0  0  0  0  0  0  0  0
    6.3106   -0.6396    1.2741 H   0  0  0  0  0  0  0  0  0  0  0  0
    5.1812   -3.5342    2.9958 H   0  0  0  0  0  0  0  0  0  0  0  0
    5.8354   -1.9078    3.0847 H   0  0  0  0  0  0  0  0  0  0  0  0
    3.0302   -2.8356    2.9699 H   0  0  0  0  0  0  0  0  0  0  0  0
    5.5082    0.1549    3.7231 H   0  0  0  0  0  0  0  0  0  0  0  0
    4.0322    2.0268    4.9968 H   0  0  0  0  0  0  0  0  0  0  0  0
    6.3162   -3.5620   -1.2233 H   0  0  0  0  0  0  0  0  0  0  0  0
    6.2255   -3.5539   -3.7089 H   0  0  0  0  0  0  0  0  0  0  0  0
  1 18  2  0
  1  2  1  0
  1 20  1  0
  2  3  2  0
  2 21  1  0
  3  4  1  0
  3 16  1  0
  4  8  1  0
  4  5  1  0
  4 22  1  1
  5 10  1  0
  5  6  1  0
  5 23  1  1
  6  7  1  0
  6 24  1  0
  6 25  1  0
  7  8  1  0
  7 26  1  0
  7 27  1  0
  8  9  1  0
  9 10  1  0
  9 28  1  0
  9 29  1  0
 10 11  1  0
 10 30  1  1
 11 15  2  0
 11 12  1  0
 12 13  2  0
 12 31  1  0
 13 14  1  0
 13 32  1  0
 14 19  1  0
 14 15  1  0
 16 17  2  0
 16 33  1  0
 17 18  1  0
 17 34  1  0
M  END
>  <i_m_ct_stereo_status>  (144) 
1

>  <s_m_source_file>  (144) 
/var/tmp/pbs.5076255.sched01/tmp7w47f283/46ruht8ay8.sdf

>  <i_m_source_file_index>  (144) 
16

>  <i_lp_mmshare_version>  (144) 
48012

>  <i_f3d_flags>  (144) 
0

>  <s_epik_input>  (144) 
W2NIXTFbY0hdbltjSF1bY0hdYzFbQ0BIXShbQ0BIXTIzKU4oW0NIMl1bQ0gyXTIpW0NIMl1bQ0BIXTNjNFtjSF1bY0hdW25IXW40

>  <s_epik_cmdline>  (144) 
J2VwaWtfcHl0aG9uJywgJy1waHQnLCAnMi4wJywgJy1waCcsICc3LjAnLCAnLXRuJywgJzgnLCAnLW1hJywgJzIwMCcsICctaW1hZScsICc8aW5maWxlLm1hZT4nLCAnLW9tYWUnLCAnPG91dGZpbGUubWFlPic=

>  <r_lp_tautomer_probability>  (144) 
0.5

>  <r_epik_Ionization_Penalty>  (144) 
2.06741

>  <r_epik_Ionization_Penalty_Charging>  (144) 
0

>  <r_epik_Ionization_Penalty_Neutral>  (144) 
2.06741

>  <r_epik_State_Penalty>  (144) 
2.5958

>  <r_epik_Charging_Adjusted_Penalty>  (144) 
2.5958

>  <i_epik_Tot_Q>  (144) 
0

>  <i_epik_Tot_abs_Q>  (144) 
0

>  <s_lp_Force_Field>  (144) 
OPLS3e

>  <r_lp_Energy>  (144) 
46.1896

>  <b_lp_Chiralities_Consistent>  (144) 
1

>  <s_lp_Variant>  (144) 
41:0-3

>  <s_i_glide_gridfile>  (144) 
pfpi4k_grid

>  <i_i_glide_lignum>  (144) 
16

>  <i_i_glide_rotatable_bonds>  (144) 
2

>  <r_i_docking_score>  (144) 
-3.38313

>  <r_i_glide_ligand_efficiency>  (144) 
-0.187952

>  <r_i_glide_ligand_efficiency_sa>  (144) 
-0.492573

>  <r_i_glide_ligand_efficiency_ln>  (144) 
-0.869617

>  <r_i_glide_gscore>  (144) 
-3.38313

>  <r_i_glide_lipo>  (144) 
-0.711105

>  <r_i_glide_hbond>  (144) 
-0.0302818

>  <r_i_glide_metal>  (144) 
-0

>  <r_i_glide_rewards>  (144) 
-1.77066

>  <r_i_glide_evdw>  (144) 
-23.2551

>  <r_i_glide_ecoul>  (144) 
-2.0494

>  <r_i_glide_erotb>  (144) 
0.599196

>  <r_i_glide_esite>  (144) 
-0.000120293

>  <r_i_glide_emodel>  (144) 
-30.899

>  <r_i_glide_energy>  (144) 
-25.3045

>  <r_i_glide_einternal>  (144) 
0.0522117

>  <r_i_glide_intrahb_reward>  (144) 
-0

>  <i_i_glide_confnum>  (144) 
1

>  <i_i_glide_posenum>  (144) 
2

>  <r_i_glide_eff_state_penalty>  (144) 
0

>  <ligand_id>  (144) 
41

>  <original_smiles>  (144) 
c1cc(C2C3CCN2CC3c2cc[nH]n2)ccn1

>  <smiles>  (144) 
[H]c1nc([H])c([H])c(C2([H])N3C([H])([H])C([H])([H])C2([H])C([H])(c2nn([H])c([H])c2[H])C3([H])[H])c1[H]

$$$$
41:3:0
     RDKit          3D

 34 37  0  0  1  0  0  0  0  0999 V2000
    4.2373   -1.8502    5.1263 C   0  0  0  0  0  0  0  0  0  0  0  0
    4.3373   -2.5987    3.9406 C   0  0  0  0  0  0  0  0  0  0  0  0
    5.0079   -2.0356    2.8326 C   0  0  0  0  0  0  0  0  0  0  0  0
    5.0465   -2.7559    1.4768 C   0  0  2  0  0  0  0  0  0  0  0  0
    4.9750   -1.8401    0.2516 C   0  0  2  0  0  0  0  0  0  0  0  0
    3.5807   -1.2209    0.4493 C   0  0  0  0  0  0  0  0  0  0  0  0
    2.8212   -2.4227    1.0250 C   0  0  0  0  0  0  0  0  0  0  0  0
    3.8273   -3.4893    1.1286 N   0  0  0  0  0  0  0  0  0  0  0  0
    4.1061   -3.9721   -0.2349 C   0  0  0  0  0  0  0  0  0  0  0  0
    4.9530   -2.8614   -0.8891 C   0  0  1  0  0  0  0  0  0  0  0  0
    4.4301   -2.3405   -2.1993 C   0  0  0  0  0  0  0  0  0  0  0  0
    4.3007   -1.0635   -2.6756 C   0  0  0  0  0  0  0  0  0  0  0  0
    3.6850   -1.2200   -3.9511 C   0  0  0  0  0  0  0  0  0  0  0  0
    3.5163   -2.4894   -4.2743 N   0  0  0  0  0  0  0  0  0  0  0  0
    3.9717   -3.1653   -3.2017 N   0  0  0  0  0  0  0  0  0  0  0  0
    5.5747   -0.7516    2.9904 C   0  0  0  0  0  0  0  0  0  0  0  0
    5.4137   -0.0835    4.2156 C   0  0  0  0  0  0  0  0  0  0  0  0
    4.7608   -0.6147    5.2719 N   0  0  0  0  0  0  0  0  0  0  0  0
    3.8893   -4.1723   -3.1343 H   0  0  0  0  0  0  0  0  0  0  0  0
    3.7019   -2.2386    5.9793 H   0  0  0  0  0  0  0  0  0  0  0  0
    3.8650   -3.5695    3.8658 H   0  0  0  0  0  0  0  0  0  0  0  0
    5.9123   -3.4251    1.4560 H   0  0  0  0  0  0  0  0  0  0  0  0
    5.7919   -1.1230    0.1524 H   0  0  0  0  0  0  0  0  0  0  0  0
    3.6105   -0.3928    1.1553 H   0  0  0  0  0  0  0  0  0  0  0  0
    3.0863   -0.8487   -0.4465 H   0  0  0  0  0  0  0  0  0  0  0  0
    2.4462   -2.1782    2.0195 H   0  0  0  0  0  0  0  0  0  0  0  0
    1.9705   -2.7114    0.4058 H   0  0  0  0  0  0  0  0  0  0  0  0
    4.6856   -4.8952   -0.1858 H   0  0  0  0  0  0  0  0  0  0  0  0
    3.1787   -4.1871   -0.7750 H   0  0  0  0  0  0  0  0  0  0  0  0
    5.9605   -3.2415   -1.0503 H   0  0  0  0  0  0  0  0  0  0  0  0
    4.5522   -0.1464   -2.1603 H   0  0  0  0  0  0  0  0  0  0  0  0
    3.3649   -0.4539   -4.6411 H   0  0  0  0  0  0  0  0  0  0  0  0
    6.0948   -0.2616    2.1817 H   0  0  0  0  0  0  0  0  0  0  0  0
    5.8180    0.9116    4.3464 H   0  0  0  0  0  0  0  0  0  0  0  0
  1 18  2  0
  1  2  1  0
  1 20  1  0
  2  3  2  0
  2 21  1  0
  3  4  1  0
  3 16  1  0
  4  8  1  0
  4  5  1  0
  4 22  1  6
  5 10  1  0
  5  6  1  0
  5 23  1  6
  6  7  1  0
  6 24  1  0
  6 25  1  0
  7  8  1  0
  7 26  1  0
  7 27  1  0
  8  9  1  0
  9 10  1  0
  9 28  1  0
  9 29  1  0
 10 30  1  6
 10 11  1  0
 11 15  1  0
 11 12  2  0
 12 13  1  0
 12 31  1  0
 13 32  1  0
 13 14  2  0
 14 15  1  0
 15 19  1  0
 16 17  2  0
 16 33  1  0
 17 18  1  0
 17 34  1  0
M  END
>  <i_m_ct_stereo_status>  (145) 
1

>  <s_m_source_file>  (145) 
/var/tmp/pbs.5076255.sched01/tmp7w47f283/46ruht8ay8.sdf

>  <i_m_source_file_index>  (145) 
17

>  <i_lp_mmshare_version>  (145) 
48012

>  <i_f3d_flags>  (145) 
0

>  <s_epik_input>  (145) 
W2NIXTFbY0hdbltjSF1bY0hdYzFbQ0BIXShbQ0BIXTIzKU4oW0NIMl1bQ0gyXTIpW0NIMl1bQ0BIXTNjNFtjSF1bY0hdW25IXW40

>  <s_epik_cmdline>  (145) 
J2VwaWtfcHl0aG9uJywgJy1waHQnLCAnMi4wJywgJy1waCcsICc3LjAnLCAnLXRuJywgJzgnLCAnLW1hJywgJzIwMCcsICctaW1hZScsICc8aW5maWxlLm1hZT4nLCAnLW9tYWUnLCAnPG91dGZpbGUubWFlPic=

>  <r_lp_tautomer_probability>  (145) 
0.5

>  <r_epik_Ionization_Penalty>  (145) 
2.0661

>  <r_epik_Ionization_Penalty_Charging>  (145) 
0

>  <r_epik_Ionization_Penalty_Neutral>  (145) 
2.0661

>  <r_epik_State_Penalty>  (145) 
2.5958

>  <r_epik_Charging_Adjusted_Penalty>  (145) 
2.5958

>  <i_epik_Tot_Q>  (145) 
0

>  <i_epik_Tot_abs_Q>  (145) 
0

>  <s_lp_Force_Field>  (145) 
OPLS3e

>  <r_lp_Energy>  (145) 
43.2613

>  <b_lp_Chiralities_Consistent>  (145) 
1

>  <s_lp_Variant>  (145) 
41:0-4

>  <s_i_glide_gridfile>  (145) 
pfpi4k_grid

>  <i_i_glide_lignum>  (145) 
17

>  <i_i_glide_rotatable_bonds>  (145) 
2

>  <r_i_docking_score>  (145) 
-4.07582

>  <r_i_glide_ligand_efficiency>  (145) 
-0.226434

>  <r_i_glide_ligand_efficiency_sa>  (145) 
-0.593426

>  <r_i_glide_ligand_efficiency_ln>  (145) 
-1.04767

>  <r_i_glide_gscore>  (145) 
-4.07582

>  <r_i_glide_lipo>  (145) 
-0.484476

>  <r_i_glide_hbond>  (145) 
-0.497291

>  <r_i_glide_metal>  (145) 
-0

>  <r_i_glide_rewards>  (145) 
-1.77066

>  <r_i_glide_evdw>  (145) 
-22.9614

>  <r_i_glide_ecoul>  (145) 
-5.16347

>  <r_i_glide_erotb>  (145) 
0.599196

>  <r_i_glide_esite>  (145) 
0

>  <r_i_glide_emodel>  (145) 
-33.6961

>  <r_i_glide_energy>  (145) 
-28.1249

>  <r_i_glide_einternal>  (145) 
1.70993

>  <r_i_glide_intrahb_reward>  (145) 
-0

>  <i_i_glide_confnum>  (145) 
3

>  <i_i_glide_posenum>  (145) 
17

>  <r_i_glide_eff_state_penalty>  (145) 
0

>  <ligand_id>  (145) 
41

>  <original_smiles>  (145) 
c1cc(C2C3CCN2CC3c2cc[nH]n2)ccn1

>  <smiles>  (145) 
[H]c1nc([H])c([H])c(C2([H])N3C([H])([H])C([H])([H])C2([H])C([H])(c2c([H])c([H])nn2[H])C3([H])[H])c1[H]

$$$$
41:3:1
     RDKit          3D

 34 37  0  0  1  0  0  0  0  0999 V2000
    3.2602   -2.5015   -3.9230 C   0  0  0  0  0  0  0  0  0  0  0  0
    4.1297   -3.1664   -3.0478 C   0  0  0  0  0  0  0  0  0  0  0  0
    4.8957   -2.4082   -2.1436 C   0  0  0  0  0  0  0  0  0  0  0  0
    5.7454   -3.1022   -1.0723 C   0  0  2  0  0  0  0  0  0  0  0  0
    5.1290   -4.3436   -0.4274 C   0  0  2  0  0  0  0  0  0  0  0  0
    3.9142   -3.7226    0.2775 C   0  0  0  0  0  0  0  0  0  0  0  0
    4.5111   -2.3858    0.7243 C   0  0  0  0  0  0  0  0  0  0  0  0
    5.8856   -2.3710    0.1912 N   0  0  0  0  0  0  0  0  0  0  0  0
    6.6618   -3.3175    1.0065 C   0  0  0  0  0  0  0  0  0  0  0  0
    6.2020   -4.7236    0.5927 C   0  0  1  0  0  0  0  0  0  0  0  0
    5.7557   -5.6162    1.7110 C   0  0  0  0  0  0  0  0  0  0  0  0
    4.6874   -6.4848    1.7947 C   0  0  0  0  0  0  0  0  0  0  0  0
    4.7598   -6.9889    3.1239 C   0  0  0  0  0  0  0  0  0  0  0  0
    5.7935   -6.5143    3.7976 N   0  0  0  0  0  0  0  0  0  0  0  0
    6.4101   -5.7067    2.9157 N   0  0  0  0  0  0  0  0  0  0  0  0
    4.7823   -1.0023   -2.2054 C   0  0  0  0  0  0  0  0  0  0  0  0
    3.9037   -0.4334   -3.1447 C   0  0  0  0  0  0  0  0  0  0  0  0
    3.1680   -1.1620   -4.0093 N   0  0  0  0  0  0  0  0  0  0  0  0
    7.2417   -5.1860    3.1689 H   0  0  0  0  0  0  0  0  0  0  0  0
    2.6443   -3.0641   -4.6145 H   0  0  0  0  0  0  0  0  0  0  0  0
    4.1459   -4.2488   -3.0348 H   0  0  0  0  0  0  0  0  0  0  0  0
    6.7359   -3.2929   -1.4862 H   0  0  0  0  0  0  0  0  0  0  0  0
    4.9020   -5.1578   -1.1121 H   0  0  0  0  0  0  0  0  0  0  0  0
    3.0951   -3.5810   -0.4202 H   0  0  0  0  0  0  0  0  0  0  0  0
    3.5132   -4.2693    1.1256 H   0  0  0  0  0  0  0  0  0  0  0  0
    3.9577   -1.5746    0.2778 H   0  0  0  0  0  0  0  0  0  0  0  0
    4.4928   -2.2445    1.8048 H   0  0  0  0  0  0  0  0  0  0  0  0
    7.7117   -3.1840    0.7842 H   0  0  0  0  0  0  0  0  0  0  0  0
    6.5142   -3.0988    2.0608 H   0  0  0  0  0  0  0  0  0  0  0  0
    7.0285   -5.2074    0.0791 H   0  0  0  0  0  0  0  0  0  0  0  0
    3.9481   -6.6670    1.0243 H   0  0  0  0  0  0  0  0  0  0  0  0
    4.0895   -7.6708    3.6253 H   0  0  0  0  0  0  0  0  0  0  0  0
    5.3168   -0.3654   -1.5149 H   0  0  0  0  0  0  0  0  0  0  0  0
    3.7946    0.6398   -3.2111 H   0  0  0  0  0  0  0  0  0  0  0  0
  1 18  2  0
  1  2  1  0
  1 20  1  0
  2  3  2  0
  2 21  1  0
  3  4  1  0
  3 16  1  0
  4  8  1  0
  4  5  1  0
  4 22  1  6
  5 10  1  0
  5  6  1  0
  5 23  1  6
  6  7  1  0
  6 24  1  0
  6 25  1  0
  7  8  1  0
  7 26  1  0
  7 27  1  0
  8  9  1  0
  9 10  1  0
  9 28  1  0
  9 29  1  0
 10 30  1  6
 10 11  1  0
 11 15  1  0
 11 12  2  0
 12 13  1  0
 12 31  1  0
 13 32  1  0
 13 14  2  0
 14 15  1  0
 15 19  1  0
 16 17  2  0
 16 33  1  0
 17 18  1  0
 17 34  1  0
M  END
>  <i_m_ct_stereo_status>  (146) 
1

>  <s_m_source_file>  (146) 
/var/tmp/pbs.5076255.sched01/tmp7w47f283/46ruht8ay8.sdf

>  <i_m_source_file_index>  (146) 
17

>  <i_lp_mmshare_version>  (146) 
48012

>  <i_f3d_flags>  (146) 
0

>  <s_epik_input>  (146) 
W2NIXTFbY0hdbltjSF1bY0hdYzFbQ0BIXShbQ0BIXTIzKU4oW0NIMl1bQ0gyXTIpW0NIMl1bQ0BIXTNjNFtjSF1bY0hdW25IXW40

>  <s_epik_cmdline>  (146) 
J2VwaWtfcHl0aG9uJywgJy1waHQnLCAnMi4wJywgJy1waCcsICc3LjAnLCAnLXRuJywgJzgnLCAnLW1hJywgJzIwMCcsICctaW1hZScsICc8aW5maWxlLm1hZT4nLCAnLW9tYWUnLCAnPG91dGZpbGUubWFlPic=

>  <r_lp_tautomer_probability>  (146) 
0.5

>  <r_epik_Ionization_Penalty>  (146) 
2.0661

>  <r_epik_Ionization_Penalty_Charging>  (146) 
0

>  <r_epik_Ionization_Penalty_Neutral>  (146) 
2.0661

>  <r_epik_State_Penalty>  (146) 
2.5958

>  <r_epik_Charging_Adjusted_Penalty>  (146) 
2.5958

>  <i_epik_Tot_Q>  (146) 
0

>  <i_epik_Tot_abs_Q>  (146) 
0

>  <s_lp_Force_Field>  (146) 
OPLS3e

>  <r_lp_Energy>  (146) 
43.2613

>  <b_lp_Chiralities_Consistent>  (146) 
1

>  <s_lp_Variant>  (146) 
41:0-4

>  <s_i_glide_gridfile>  (146) 
pfpi4k_grid

>  <i_i_glide_lignum>  (146) 
17

>  <i_i_glide_rotatable_bonds>  (146) 
2

>  <r_i_docking_score>  (146) 
-3.4192

>  <r_i_glide_ligand_efficiency>  (146) 
-0.189955

>  <r_i_glide_ligand_efficiency_sa>  (146) 
-0.497824

>  <r_i_glide_ligand_efficiency_ln>  (146) 
-0.878887

>  <r_i_glide_gscore>  (146) 
-3.4192

>  <r_i_glide_lipo>  (146) 
-0.805517

>  <r_i_glide_hbond>  (146) 
0

>  <r_i_glide_metal>  (146) 
-0

>  <r_i_glide_rewards>  (146) 
-1.77066

>  <r_i_glide_evdw>  (146) 
-24.1896

>  <r_i_glide_ecoul>  (146) 
-1.55159

>  <r_i_glide_erotb>  (146) 
0.599196

>  <r_i_glide_esite>  (146) 
0

>  <r_i_glide_emodel>  (146) 
-30.5136

>  <r_i_glide_energy>  (146) 
-25.7412

>  <r_i_glide_einternal>  (146) 
1.26288

>  <r_i_glide_intrahb_reward>  (146) 
-0

>  <i_i_glide_confnum>  (146) 
4

>  <i_i_glide_posenum>  (146) 
7

>  <r_i_glide_eff_state_penalty>  (146) 
0

>  <ligand_id>  (146) 
41

>  <original_smiles>  (146) 
c1cc(C2C3CCN2CC3c2cc[nH]n2)ccn1

>  <smiles>  (146) 
[H]c1nc([H])c([H])c(C2([H])N3C([H])([H])C([H])([H])C2([H])C([H])(c2c([H])c([H])nn2[H])C3([H])[H])c1[H]

$$$$
41:3:2
     RDKit          3D

 34 37  0  0  1  0  0  0  0  0999 V2000
    2.5574    0.0890    4.1722 C   0  0  0  0  0  0  0  0  0  0  0  0
    3.2756    0.0121    2.9666 C   0  0  0  0  0  0  0  0  0  0  0  0
    4.3409   -0.9094    2.8652 C   0  0  0  0  0  0  0  0  0  0  0  0
    5.0958   -1.0974    1.5430 C   0  0  2  0  0  0  0  0  0  0  0  0
    4.2256   -1.1329    0.2854 C   0  0  2  0  0  0  0  0  0  0  0  0
    3.4050   -2.4029    0.5220 C   0  0  0  0  0  0  0  0  0  0  0  0
    4.4604   -3.2854    1.2090 C   0  0  0  0  0  0  0  0  0  0  0  0
    5.6570   -2.4322    1.3140 N   0  0  0  0  0  0  0  0  0  0  0  0
    6.2371   -2.3179   -0.0306 C   0  0  0  0  0  0  0  0  0  0  0  0
    5.2769   -1.3844   -0.7961 C   0  0  1  0  0  0  0  0  0  0  0  0
    4.7402   -1.9296   -2.0870 C   0  0  0  0  0  0  0  0  0  0  0  0
    4.7389   -3.1917   -2.6169 C   0  0  0  0  0  0  0  0  0  0  0  0
    3.9998   -3.0651   -3.8280 C   0  0  0  0  0  0  0  0  0  0  0  0
    3.6099   -1.8240   -4.0573 N   0  0  0  0  0  0  0  0  0  0  0  0
    4.0437   -1.1432   -2.9799 N   0  0  0  0  0  0  0  0  0  0  0  0
    4.6487   -1.6847    4.0070 C   0  0  0  0  0  0  0  0  0  0  0  0
    3.8660   -1.5348    5.1640 C   0  0  0  0  0  0  0  0  0  0  0  0
    2.8304   -0.6752    5.2520 N   0  0  0  0  0  0  0  0  0  0  0  0
    3.8222   -0.1652   -2.8520 H   0  0  0  0  0  0  0  0  0  0  0  0
    1.7220    0.7699    4.2681 H   0  0  0  0  0  0  0  0  0  0  0  0
    2.9856    0.6288    2.1292 H   0  0  0  0  0  0  0  0  0  0  0  0
    5.8811   -0.3375    1.4815 H   0  0  0  0  0  0  0  0  0  0  0  0
    3.6251   -0.2429    0.1003 H   0  0  0  0  0  0  0  0  0  0  0  0
    2.5674   -2.1972    1.1888 H   0  0  0  0  0  0  0  0  0  0  0  0
    2.9965   -2.8499   -0.3855 H   0  0  0  0  0  0  0  0  0  0  0  0
    4.1229   -3.5455    2.2116 H   0  0  0  0  0  0  0  0  0  0  0  0
    4.6576   -4.2174    0.6757 H   0  0  0  0  0  0  0  0  0  0  0  0
    7.2251   -1.8625    0.0278 H   0  0  0  0  0  0  0  0  0  0  0  0
    6.3549   -3.3025   -0.4891 H   0  0  0  0  0  0  0  0  0  0  0  0
    5.7938   -0.4500   -1.0028 H   0  0  0  0  0  0  0  0  0  0  0  0
    5.1614   -4.0917   -2.1896 H   0  0  0  0  0  0  0  0  0  0  0  0
    3.7400   -3.8347   -4.5369 H   0  0  0  0  0  0  0  0  0  0  0  0
    5.4424   -2.4167    3.9816 H   0  0  0  0  0  0  0  0  0  0  0  0
    4.0590   -2.1410    6.0369 H   0  0  0  0  0  0  0  0  0  0  0  0
  1 18  2  0
  1  2  1  0
  1 20  1  0
  2  3  2  0
  2 21  1  0
  3  4  1  0
  3 16  1  0
  4  8  1  0
  4  5  1  0
  4 22  1  6
  5 10  1  0
  5  6  1  0
  5 23  1  6
  6  7  1  0
  6 24  1  0
  6 25  1  0
  7  8  1  0
  7 26  1  0
  7 27  1  0
  8  9  1  0
  9 10  1  0
  9 28  1  0
  9 29  1  0
 10 30  1  6
 10 11  1  0
 11 15  1  0
 11 12  2  0
 12 13  1  0
 12 31  1  0
 13 32  1  0
 13 14  2  0
 14 15  1  0
 15 19  1  0
 16 17  2  0
 16 33  1  0
 17 18  1  0
 17 34  1  0
M  END
>  <i_m_ct_stereo_status>  (147) 
1

>  <s_m_source_file>  (147) 
/var/tmp/pbs.5076255.sched01/tmp7w47f283/46ruht8ay8.sdf

>  <i_m_source_file_index>  (147) 
17

>  <i_lp_mmshare_version>  (147) 
48012

>  <i_f3d_flags>  (147) 
0

>  <s_epik_input>  (147) 
W2NIXTFbY0hdbltjSF1bY0hdYzFbQ0BIXShbQ0BIXTIzKU4oW0NIMl1bQ0gyXTIpW0NIMl1bQ0BIXTNjNFtjSF1bY0hdW25IXW40

>  <s_epik_cmdline>  (147) 
J2VwaWtfcHl0aG9uJywgJy1waHQnLCAnMi4wJywgJy1waCcsICc3LjAnLCAnLXRuJywgJzgnLCAnLW1hJywgJzIwMCcsICctaW1hZScsICc8aW5maWxlLm1hZT4nLCAnLW9tYWUnLCAnPG91dGZpbGUubWFlPic=

>  <r_lp_tautomer_probability>  (147) 
0.5

>  <r_epik_Ionization_Penalty>  (147) 
2.0661

>  <r_epik_Ionization_Penalty_Charging>  (147) 
0

>  <r_epik_Ionization_Penalty_Neutral>  (147) 
2.0661

>  <r_epik_State_Penalty>  (147) 
2.5958

>  <r_epik_Charging_Adjusted_Penalty>  (147) 
2.5958

>  <i_epik_Tot_Q>  (147) 
0

>  <i_epik_Tot_abs_Q>  (147) 
0

>  <s_lp_Force_Field>  (147) 
OPLS3e

>  <r_lp_Energy>  (147) 
43.2613

>  <b_lp_Chiralities_Consistent>  (147) 
1

>  <s_lp_Variant>  (147) 
41:0-4

>  <s_i_glide_gridfile>  (147) 
pfpi4k_grid

>  <i_i_glide_lignum>  (147) 
17

>  <i_i_glide_rotatable_bonds>  (147) 
2

>  <r_i_docking_score>  (147) 
-3.23512

>  <r_i_glide_ligand_efficiency>  (147) 
-0.179729

>  <r_i_glide_ligand_efficiency_sa>  (147) 
-0.471023

>  <r_i_glide_ligand_efficiency_ln>  (147) 
-0.831571

>  <r_i_glide_gscore>  (147) 
-3.23512

>  <r_i_glide_lipo>  (147) 
-0.419899

>  <r_i_glide_hbond>  (147) 
-0.150736

>  <r_i_glide_metal>  (147) 
-0

>  <r_i_glide_rewards>  (147) 
-1.77066

>  <r_i_glide_evdw>  (147) 
-24.6962

>  <r_i_glide_ecoul>  (147) 
-1.72142

>  <r_i_glide_erotb>  (147) 
0.599196

>  <r_i_glide_esite>  (147) 
0

>  <r_i_glide_emodel>  (147) 
-31.6324

>  <r_i_glide_energy>  (147) 
-26.4176

>  <r_i_glide_einternal>  (147) 
0.153008

>  <r_i_glide_intrahb_reward>  (147) 
-0

>  <i_i_glide_confnum>  (147) 
1

>  <i_i_glide_posenum>  (147) 
13

>  <r_i_glide_eff_state_penalty>  (147) 
0

>  <ligand_id>  (147) 
41

>  <original_smiles>  (147) 
c1cc(C2C3CCN2CC3c2cc[nH]n2)ccn1

>  <smiles>  (147) 
[H]c1nc([H])c([H])c(C2([H])N3C([H])([H])C([H])([H])C2([H])C([H])(c2c([H])c([H])nn2[H])C3([H])[H])c1[H]

$$$$
42:0:0
     RDKit          3D

 93100  0  0  1  0  0  0  0  0999 V2000
    5.3935   -0.2031    1.4416 C   0  0  0  0  0  0  0  0  0  0  0  0
    4.9013   -1.5914    1.1833 C   0  0  0  0  0  0  0  0  0  0  0  0
    4.9673   -2.2692    0.0462 C   0  0  0  0  0  0  0  0  0  0  0  0
    4.4607   -3.6733    0.2272 C   0  0  1  0  0  0  0  0  0  0  0  0
    5.6888   -4.5814    0.3462 C   0  0  0  0  0  0  0  0  0  0  0  0
    5.4163   -5.9048    1.0651 C   0  0  1  0  0  0  0  0  0  0  0  0
    6.6618   -6.5717    1.0085 O   0  0  0  0  0  0  0  0  0  0  0  0
    4.7939   -5.6617    2.4981 C   0  0  2  0  0  0  0  0  0  0  0  0
    4.9597   -6.8015    3.6261 C   0  0  2  0  0  0  0  0  0  0  0  0
    6.4959   -6.7437    3.9826 C   0  0  0  0  0  0  0  0  0  0  0  0
    4.6114   -8.2193    3.0123 C   0  0  2  0  0  0  0  0  0  0  0  0
    3.3515   -8.3224    2.0419 C   0  0  0  0  0  0  0  0  0  0  0  0
    2.0854   -7.3845    2.0212 C   0  0  1  0  0  0  0  0  0  0  0  0
    0.9883   -7.5825    3.1155 C   0  0  2  0  0  0  0  0  0  0  0  0
    1.6908   -7.2417    4.2798 O   0  0  0  0  0  0  0  0  0  0  0  0
    1.1333   -7.4724    5.4990 C   0  0  2  0  0  0  0  0  0  0  0  0
    2.1576   -7.0795    6.5655 C   0  0  0  0  0  0  0  0  0  0  0  0
    3.6246   -7.4174    6.1426 C   0  0  2  0  0  0  0  0  0  0  0  0
    4.4252   -7.0923    7.4585 C   0  0  0  0  0  0  0  0  0  0  0  0
    4.2413   -6.3994    5.0080 C   0  0  2  0  0  0  0  0  0  0  0  0
    3.7111   -4.9352    4.9534 C   0  0  0  0  0  0  0  0  0  0  0  0
    2.7704   -4.6315    3.7853 C   0  0  1  0  0  0  0  0  0  0  0  0
    2.2084   -3.3579    4.0196 O   0  0  0  0  0  0  0  0  0  0  0  0
    3.3803   -4.9533    2.3586 C   0  0  2  0  0  0  0  0  0  0  0  0
    2.3157   -5.8804    1.6172 C   0  0  1  0  0  0  0  0  0  0  0  0
    2.4208   -5.8532    0.2120 O   0  0  0  0  0  0  0  0  0  0  0  0
    3.6154   -3.5899    1.5446 C   0  0  2  0  0  0  0  0  0  0  0  0
    2.3677   -3.0805    1.1002 O   0  0  0  0  0  0  0  0  0  0  0  0
    4.2837   -2.3862    2.2883 C   0  0  0  0  0  0  0  0  0  0  0  0
    3.6419   -9.0021    5.9257 C   0  0  1  0  0  0  0  0  0  0  0  0
    3.5333   -9.6235    7.2037 O   0  0  0  0  0  0  0  0  0  0  0  0
    2.4104   -9.6300    5.2224 C   0  0  0  0  0  0  0  0  0  0  0  0
    1.1091   -9.0370    5.5782 N   0  0  2  0  0  0  0  0  0  0  0  0
    0.0213   -9.4575    4.6759 C   0  0  0  0  0  0  0  0  0  0  0  0
    0.1828   -8.9431    3.2059 C   0  0  1  0  0  0  0  0  0  0  0  0
   -1.1972   -8.7881    2.5286 C   0  0  0  0  0  0  0  0  0  0  0  0
    0.7586  -10.0052    2.4763 O   0  0  0  0  0  0  0  0  0  0  0  0
    4.9593   -9.5354    5.3062 C   0  0  0  0  0  0  0  0  0  0  0  0
    5.1376   -9.5489    3.7518 C   0  0  0  0  0  0  0  0  0  0  0  0
    4.5602  -10.8656    3.1499 C   0  0  0  0  0  0  0  0  0  0  0  0
    6.6643   -9.7942    3.5028 C   0  0  0  0  0  0  0  0  0  0  0  0
    4.5637    0.4219    1.7775 H   0  0  0  0  0  0  0  0  0  0  0  0
    5.8209    0.2427    0.5418 H   0  0  0  0  0  0  0  0  0  0  0  0
    6.1505   -0.2246    2.2278 H   0  0  0  0  0  0  0  0  0  0  0  0
    5.3745   -1.9055   -0.8829 H   0  0  0  0  0  0  0  0  0  0  0  0
    3.8809   -3.9412   -0.6568 H   0  0  0  0  0  0  0  0  0  0  0  0
    6.0731   -4.7672   -0.6570 H   0  0  0  0  0  0  0  0  0  0  0  0
    6.4888   -4.0600    0.8773 H   0  0  0  0  0  0  0  0  0  0  0  0
    4.7586   -6.4913    0.4389 H   0  0  0  0  0  0  0  0  0  0  0  0
    7.2804   -6.1248    1.5611 H   0  0  0  0  0  0  0  0  0  0  0  0
    5.4210   -4.8577    2.8750 H   0  0  0  0  0  0  0  0  0  0  0  0
    6.7351   -7.2636    4.9098 H   0  0  0  0  0  0  0  0  0  0  0  0
    6.8453   -5.7215    4.1489 H   0  0  0  0  0  0  0  0  0  0  0  0
    7.1522   -7.1646    3.2288 H   0  0  0  0  0  0  0  0  0  0  0  0
    5.3440   -8.2505    2.2151 H   0  0  0  0  0  0  0  0  0  0  0  0
    3.7409   -8.2542    1.0281 H   0  0  0  0  0  0  0  0  0  0  0  0
    2.9985   -9.3414    2.0062 H   0  0  0  0  0  0  0  0  0  0  0  0
    1.5376   -7.7827    1.1644 H   0  0  0  0  0  0  0  0  0  0  0  0
    0.2344   -6.8030    3.0057 H   0  0  0  0  0  0  0  0  0  0  0  0
    0.1678   -6.9863    5.6360 H   0  0  0  0  0  0  0  0  0  0  0  0
    2.0318   -6.0176    6.7667 H   0  0  0  0  0  0  0  0  0  0  0  0
    1.8756   -7.5616    7.5022 H   0  0  0  0  0  0  0  0  0  0  0  0
    5.4621   -7.4230    7.4102 H   0  0  0  0  0  0  0  0  0  0  0  0
    3.9914   -7.5460    8.3508 H   0  0  0  0  0  0  0  0  0  0  0  0
    4.4323   -6.0221    7.6697 H   0  0  0  0  0  0  0  0  0  0  0  0
    5.1071   -6.0916    5.5834 H   0  0  0  0  0  0  0  0  0  0  0  0
    3.2611   -4.6299    5.8930 H   0  0  0  0  0  0  0  0  0  0  0  0
    4.5622   -4.2548    4.8624 H   0  0  0  0  0  0  0  0  0  0  0  0
    1.8339   -5.1360    3.9123 H   0  0  0  0  0  0  0  0  0  0  0  0
    2.8797   -2.7098    3.8891 H   0  0  0  0  0  0  0  0  0  0  0  0
    1.3538   -5.3885    1.7504 H   0  0  0  0  0  0  0  0  0  0  0  0
    2.6251   -4.9651   -0.0500 H   0  0  0  0  0  0  0  0  0  0  0  0
    2.5136   -2.2721    0.6313 H   0  0  0  0  0  0  0  0  0  0  0  0
    5.0789   -2.6800    2.9721 H   0  0  0  0  0  0  0  0  0  0  0  0
    3.5936   -1.7316    2.8154 H   0  0  0  0  0  0  0  0  0  0  0  0
    3.3490  -10.5452    7.0929 H   0  0  0  0  0  0  0  0  0  0  0  0
    2.5334   -9.4719    4.1684 H   0  0  0  0  0  0  0  0  0  0  0  0
    2.3700  -10.7142    5.3637 H   0  0  0  0  0  0  0  0  0  0  0  0
   -0.1159  -10.5440    4.7116 H   0  0  0  0  0  0  0  0  0  0  0  0
   -0.9000   -9.0457    5.0906 H   0  0  0  0  0  0  0  0  0  0  0  0
   -1.8124   -8.0218    3.0045 H   0  0  0  0  0  0  0  0  0  0  0  0
   -1.7689   -9.7203    2.5443 H   0  0  0  0  0  0  0  0  0  0  0  0
   -1.0805   -8.5011    1.4813 H   0  0  0  0  0  0  0  0  0  0  0  0
    0.5927   -9.8723    1.5426 H   0  0  0  0  0  0  0  0  0  0  0  0
    5.7848   -8.9971    5.7728 H   0  0  0  0  0  0  0  0  0  0  0  0
    5.1147  -10.5623    5.6404 H   0  0  0  0  0  0  0  0  0  0  0  0
    5.0077  -11.7521    3.6022 H   0  0  0  0  0  0  0  0  0  0  0  0
    4.7769  -10.9147    2.0819 H   0  0  0  0  0  0  0  0  0  0  0  0
    3.4939  -11.0216    3.2585 H   0  0  0  0  0  0  0  0  0  0  0  0
    6.9630  -10.7998    3.7975 H   0  0  0  0  0  0  0  0  0  0  0  0
    7.3272   -9.1585    4.0804 H   0  0  0  0  0  0  0  0  0  0  0  0
    6.9377   -9.6928    2.4521 H   0  0  0  0  0  0  0  0  0  0  0  0
    0.8870   -9.3340    6.5218 H   0  0  0  0  0  0  0  0  0  0  0  0
  1  2  1  0
  1 42  1  0
  1 43  1  0
  1 44  1  0
  2 29  1  0
  2  3  2  0
  3  4  1  0
  3 45  1  0
  4 27  1  0
  4  5  1  0
  4 46  1  6
  5  6  1  0
  5 47  1  0
  5 48  1  0
  6  7  1  0
  6  8  1  0
  6 49  1  6
  7 50  1  0
  8 24  1  0
  8  9  1  0
  8 51  1  1
  9 20  1  0
  9 10  1  1
  9 11  1  0
 10 52  1  0
 10 53  1  0
 10 54  1  0
 11 39  1  0
 11 12  1  0
 11 55  1  6
 12 13  1  0
 12 56  1  0
 12 57  1  0
 13 25  1  0
 13 14  1  0
 13 58  1  6
 14 35  1  0
 14 15  1  0
 14 59  1  6
 15 16  1  0
 16 33  1  0
 16 17  1  0
 16 60  1  1
 17 18  1  0
 17 61  1  0
 17 62  1  0
 18 19  1  1
 18 20  1  0
 18 30  1  0
 19 63  1  0
 19 64  1  0
 19 65  1  0
 20 21  1  0
 20 66  1  1
 21 22  1  0
 21 67  1  0
 21 68  1  0
 22 23  1  0
 22 24  1  0
 22 69  1  1
 23 70  1  0
 24 25  1  0
 24 27  1  6
 25 26  1  0
 25 71  1  6
 26 72  1  0
 27 28  1  6
 27 29  1  0
 28 73  1  0
 29 74  1  0
 29 75  1  0
 30 31  1  1
 30 32  1  0
 30 38  1  0
 31 76  1  0
 32 33  1  0
 32 77  1  0
 32 78  1  0
 33 34  1  0
 33 93  1  1
 34 35  1  0
 34 79  1  0
 34 80  1  0
 35 36  1  0
 35 37  1  6
 36 81  1  0
 36 82  1  0
 36 83  1  0
 37 84  1  0
 38 39  1  0
 38 85  1  0
 38 86  1  0
 39 40  1  0
 39 41  1  0
 40 87  1  0
 40 88  1  0
 40 89  1  0
 41 90  1  0
 41 91  1  0
 41 92  1  0
M  CHG  1  33   1
M  END
>  <i_m_ct_stereo_status>  (148) 
1

>  <s_m_source_file>  (148) 
/var/tmp/pbs.5076255.sched01/tmp7w47f283/46ruht8ay8.sdf

>  <i_m_source_file_index>  (148) 
18

>  <i_lp_mmshare_version>  (148) 
48012

>  <i_f3d_flags>  (148) 
0

>  <s_epik_input>  (148) 
W0NIM11DKD1bQ0hdMSlbQ0gyXVtDQEBdMihbT0hdKVtDQEBIXTFbQ0gyXVtDQEBIXShbT0hdKVtDQEBIXShbQ0BdMjM0KVtDQF01KFtDSDNdKVtDQEBIXTZbQ0gyXVtDQEhdKFtDQEBIXTRbT0hdKVtDQEBIXTdPW0NASF04TihbQ0gyXVtDQF03KFtDSDNdKVtPSF0pW0NIMl1bQ0BAXShbT0hdKShbQ0gyXUM2KFtDSDNdKVtDSDNdKVtDQEBdKFtDSDJdOCkoW0NIM10pW0NAQEhdNVtDSDJdW0NASF0zW09IXQ==

>  <s_epik_cmdline>  (148) 
J2VwaWtfcHl0aG9uJywgJy1waHQnLCAnMi4wJywgJy1waCcsICc3LjAnLCAnLXRuJywgJzgnLCAnLW1hJywgJzIwMCcsICctaW1hZScsICc8aW5maWxlLm1hZT4nLCAnLW9tYWUnLCAnPG91dGZpbGUubWFlPic=

>  <r_epik_Ionization_Penalty>  (148) 
0.012402

>  <r_epik_Ionization_Penalty_Charging>  (148) 
0.0123995

>  <r_epik_Ionization_Penalty_Neutral>  (148) 
2.45262e-06

>  <r_epik_State_Penalty>  (148) 
0.0095961

>  <r_epik_Charging_Adjusted_Penalty>  (148) 
0.0219956

>  <i_epik_Tot_Q>  (148) 
1

>  <i_epik_Tot_abs_Q>  (148) 
1

>  <s_epik_Chemistry_Notes>  (148) 
This compound contains an acetal/aminal-like group ( X-CH(R)-Y where X, Y are N, S, or O) that may be acid/base labile, releasing an aldehyde.

>  <s_lp_Force_Field>  (148) 
OPLS3e

>  <r_lp_Energy>  (148) 
182.313

>  <b_lp_Chiralities_Consistent>  (148) 
1

>  <s_lp_Variant>  (148) 
42:0-1

>  <s_i_glide_gridfile>  (148) 
pfpi4k_grid

>  <i_i_glide_lignum>  (148) 
18

>  <i_i_glide_rotatable_bonds>  (148) 
6

>  <r_i_docking_score>  (148) 
-3.01651

>  <r_i_glide_ligand_efficiency>  (148) 
-0.0735733

>  <r_i_glide_ligand_efficiency_sa>  (148) 
-0.253697

>  <r_i_glide_ligand_efficiency_ln>  (148) 
-0.639962

>  <r_i_glide_gscore>  (148) 
-3.01651

>  <r_i_glide_lipo>  (148) 
-0.433182

>  <r_i_glide_hbond>  (148) 
0

>  <r_i_glide_metal>  (148) 
-0

>  <r_i_glide_rewards>  (148) 
0

>  <r_i_glide_evdw>  (148) 
-29.4979

>  <r_i_glide_ecoul>  (148) 
-7.10462

>  <r_i_glide_erotb>  (148) 
0

>  <r_i_glide_esite>  (148) 
-0.0427368

>  <r_i_glide_emodel>  (148) 
-44.9152

>  <r_i_glide_energy>  (148) 
-36.6025

>  <r_i_glide_einternal>  (148) 
1.36646

>  <r_i_glide_intrahb_reward>  (148) 
-0

>  <i_i_glide_confnum>  (148) 
2

>  <i_i_glide_posenum>  (148) 
19

>  <r_i_glide_eff_state_penalty>  (148) 
0

>  <ligand_id>  (148) 
42

>  <original_smiles>  (148) 
CC1=CC2CC(O)C3C4(C)C5CC6C7OC8CC(C)(C4CC(O)C3(C6O)C2(O)C1)C(O)(CN8CC7(C)O)CC5(C)C

>  <smiles>  (148) 
[H]OC1([H])C([H])([H])C2([H])C([H])=C(C([H])([H])[H])C([H])([H])C2(O[H])C23C([H])(O[H])C([H])([H])C4([H])C(C([H])([H])[H])(C5([H])C([H])([H])C([H])(C6([H])OC7([H])C([H])([H])C4(C([H])([H])[H])C(O[H])(C([H])([H])C5(C([H])([H])[H])C([H])([H])[H])C([H])([H])[N+]7([H])C([H])([H])C6(O[H])C([H])([H])[H])C2([H])O[H])C13[H]

$$$$
42:0:1
     RDKit          3D

 93100  0  0  1  0  0  0  0  0999 V2000
    5.4678   -0.4408    2.5417 C   0  0  0  0  0  0  0  0  0  0  0  0
    5.0033   -1.8310    2.1719 C   0  0  0  0  0  0  0  0  0  0  0  0
    5.0075   -2.3977    0.9690 C   0  0  0  0  0  0  0  0  0  0  0  0
    4.5434   -3.8344    1.0318 C   0  0  1  0  0  0  0  0  0  0  0  0
    5.7949   -4.7202    0.9643 C   0  0  0  0  0  0  0  0  0  0  0  0
    5.6036   -6.1144    1.5623 C   0  0  1  0  0  0  0  0  0  0  0  0
    6.8618   -6.7150    1.3692 O   0  0  0  0  0  0  0  0  0  0  0  0
    5.0795   -6.0386    3.0505 C   0  0  2  0  0  0  0  0  0  0  0  0
    5.3566   -7.2825    4.0406 C   0  0  2  0  0  0  0  0  0  0  0  0
    6.9123   -7.2158    4.2980 C   0  0  0  0  0  0  0  0  0  0  0  0
    4.9944   -8.6406    3.3121 C   0  0  2  0  0  0  0  0  0  0  0  0
    3.6755   -8.6859    2.4217 C   0  0  0  0  0  0  0  0  0  0  0  0
    2.3865   -7.7949    2.5876 C   0  0  1  0  0  0  0  0  0  0  0  0
    1.3827   -8.1302    3.7387 C   0  0  2  0  0  0  0  0  0  0  0  0
    2.1551   -7.8866    4.8773 O   0  0  0  0  0  0  0  0  0  0  0  0
    1.6912   -8.2567    6.1016 C   0  0  2  0  0  0  0  0  0  0  0  0
    2.7775   -7.9383    7.1257 C   0  0  0  0  0  0  0  0  0  0  0  0
    4.2191   -8.1901    6.5704 C   0  0  2  0  0  0  0  0  0  0  0  0
    5.1007   -7.9744    7.8535 C   0  0  0  0  0  0  0  0  0  0  0  0
    4.7290   -7.0463    5.5057 C   0  0  2  0  0  0  0  0  0  0  0  0
    4.1619   -5.6008    5.6358 C   0  0  0  0  0  0  0  0  0  0  0  0
    3.1335   -5.2077    4.5714 C   0  0  1  0  0  0  0  0  0  0  0  0
    2.5721   -3.9800    4.9878 O   0  0  0  0  0  0  0  0  0  0  0  0
    3.6421   -5.3664    3.0768 C   0  0  2  0  0  0  0  0  0  0  0  0
    2.5569   -6.2558    2.3035 C   0  0  1  0  0  0  0  0  0  0  0  0
    2.5616   -6.1249    0.8882 O   0  0  0  0  0  0  0  0  0  0  0  0
    3.7897   -3.9130    2.4042 C   0  0  2  0  0  0  0  0  0  0  0  0
    2.4968   -3.3900    2.1323 O   0  0  0  0  0  0  0  0  0  0  0  0
    4.4873   -2.7702    3.2201 C   0  0  0  0  0  0  0  0  0  0  0  0
    4.2580   -9.7442    6.1925 C   0  0  1  0  0  0  0  0  0  0  0  0
    4.3054  -10.4964    7.4036 O   0  0  0  0  0  0  0  0  0  0  0  0
    2.9961  -10.3406    5.5179 C   0  0  0  0  0  0  0  0  0  0  0  0
    1.7022   -9.8245    6.0298 N   0  0  2  0  0  0  0  0  0  0  0  0
    0.5659  -10.1899    5.1619 C   0  0  0  0  0  0  0  0  0  0  0  0
    0.6206   -9.5190    3.7455 C   0  0  1  0  0  0  0  0  0  0  0  0
   -0.7960   -9.3190    3.1531 C   0  0  0  0  0  0  0  0  0  0  0  0
    1.1856  -10.4859    2.8876 O   0  0  0  0  0  0  0  0  0  0  0  0
    5.5367  -10.1703    5.4261 C   0  0  0  0  0  0  0  0  0  0  0  0
    5.6037  -10.0196    3.8728 C   0  0  0  0  0  0  0  0  0  0  0  0
    5.0157  -11.2840    3.1740 C   0  0  0  0  0  0  0  0  0  0  0  0
    7.1128  -10.1948    3.4974 C   0  0  0  0  0  0  0  0  0  0  0  0
    4.6596    0.1241    3.0068 H   0  0  0  0  0  0  0  0  0  0  0  0
    5.8078    0.1034    1.6597 H   0  0  0  0  0  0  0  0  0  0  0  0
    6.2931   -0.4999    3.2536 H   0  0  0  0  0  0  0  0  0  0  0  0
    5.3406   -1.9333    0.0550 H   0  0  0  0  0  0  0  0  0  0  0  0
    3.8964   -4.0397    0.1782 H   0  0  0  0  0  0  0  0  0  0  0  0
    6.1248   -4.8011   -0.0731 H   0  0  0  0  0  0  0  0  0  0  0  0
    6.6227   -4.2396    1.4920 H   0  0  0  0  0  0  0  0  0  0  0  0
    4.9341   -6.6724    0.9214 H   0  0  0  0  0  0  0  0  0  0  0  0
    6.8101   -7.6136    1.6562 H   0  0  0  0  0  0  0  0  0  0  0  0
    5.7147   -5.2593    3.4620 H   0  0  0  0  0  0  0  0  0  0  0  0
    7.2308   -7.8192    5.1476 H   0  0  0  0  0  0  0  0  0  0  0  0
    7.2497   -6.2061    4.5436 H   0  0  0  0  0  0  0  0  0  0  0  0
    7.5322   -7.5329    3.4652 H   0  0  0  0  0  0  0  0  0  0  0  0
    5.6673   -8.5758    2.4672 H   0  0  0  0  0  0  0  0  0  0  0  0
    3.9874   -8.5063    1.3954 H   0  0  0  0  0  0  0  0  0  0  0  0
    3.3438   -9.7039    2.3040 H   0  0  0  0  0  0  0  0  0  0  0  0
    1.7823   -8.1345    1.7436 H   0  0  0  0  0  0  0  0  0  0  0  0
    0.6060   -7.3615    3.7543 H   0  0  0  0  0  0  0  0  0  0  0  0
    0.7230   -7.8177    6.3505 H   0  0  0  0  0  0  0  0  0  0  0  0
    2.6399   -6.9085    7.4404 H   0  0  0  0  0  0  0  0  0  0  0  0
    2.5745   -8.5228    8.0260 H   0  0  0  0  0  0  0  0  0  0  0  0
    6.1400   -8.2701    7.7008 H   0  0  0  0  0  0  0  0  0  0  0  0
    4.7439   -8.5278    8.7239 H   0  0  0  0  0  0  0  0  0  0  0  0
    5.1021   -6.9306    8.1752 H   0  0  0  0  0  0  0  0  0  0  0  0
    5.6278   -6.7684    6.0482 H   0  0  0  0  0  0  0  0  0  0  0  0
    3.7782   -5.4035    6.6312 H   0  0  0  0  0  0  0  0  0  0  0  0
    4.9880   -4.8891    5.5562 H   0  0  0  0  0  0  0  0  0  0  0  0
    2.2155   -5.7474    4.7049 H   0  0  0  0  0  0  0  0  0  0  0  0
    3.2328   -3.3111    4.9222 H   0  0  0  0  0  0  0  0  0  0  0  0
    1.5915   -5.8053    2.5349 H   0  0  0  0  0  0  0  0  0  0  0  0
    3.3782   -6.4509    0.5484 H   0  0  0  0  0  0  0  0  0  0  0  0
    2.6014   -2.5845    1.6501 H   0  0  0  0  0  0  0  0  0  0  0  0
    5.3356   -3.1153    3.8092 H   0  0  0  0  0  0  0  0  0  0  0  0
    3.8225   -2.1996    3.8650 H   0  0  0  0  0  0  0  0  0  0  0  0
    3.6280  -11.1572    7.3993 H   0  0  0  0  0  0  0  0  0  0  0  0
    3.0401  -10.0643    4.4834 H   0  0  0  0  0  0  0  0  0  0  0  0
    2.9919  -11.4295    5.5420 H   0  0  0  0  0  0  0  0  0  0  0  0
    0.4365  -11.2716    5.1153 H   0  0  0  0  0  0  0  0  0  0  0  0
   -0.3179   -9.8133    5.6842 H   0  0  0  0  0  0  0  0  0  0  0  0
   -1.4014   -8.6272    3.7457 H   0  0  0  0  0  0  0  0  0  0  0  0
   -1.3490  -10.2574    3.0994 H   0  0  0  0  0  0  0  0  0  0  0  0
   -0.7487   -8.9226    2.1358 H   0  0  0  0  0  0  0  0  0  0  0  0
    0.6735  -11.2790    2.9481 H   0  0  0  0  0  0  0  0  0  0  0  0
    6.3785   -9.6613    5.8861 H   0  0  0  0  0  0  0  0  0  0  0  0
    5.7350  -11.2212    5.6386 H   0  0  0  0  0  0  0  0  0  0  0  0
    5.5155  -12.2011    3.4931 H   0  0  0  0  0  0  0  0  0  0  0  0
    5.1531  -11.2172    2.0945 H   0  0  0  0  0  0  0  0  0  0  0  0
    3.9621  -11.4834    3.3385 H   0  0  0  0  0  0  0  0  0  0  0  0
    7.4559  -11.2162    3.6643 H   0  0  0  0  0  0  0  0  0  0  0  0
    7.8017   -9.6018    4.0901 H   0  0  0  0  0  0  0  0  0  0  0  0
    7.3106   -9.9808    2.4465 H   0  0  0  0  0  0  0  0  0  0  0  0
    1.5390  -10.2342    6.9372 H   0  0  0  0  0  0  0  0  0  0  0  0
  1  2  1  0
  1 42  1  0
  1 43  1  0
  1 44  1  0
  2 29  1  0
  2  3  2  0
  3  4  1  0
  3 45  1  0
  4 27  1  0
  4  5  1  0
  4 46  1  6
  5  6  1  0
  5 47  1  0
  5 48  1  0
  6  7  1  0
  6  8  1  0
  6 49  1  6
  7 50  1  0
  8 24  1  0
  8  9  1  0
  8 51  1  1
  9 20  1  0
  9 10  1  1
  9 11  1  0
 10 52  1  0
 10 53  1  0
 10 54  1  0
 11 39  1  0
 11 12  1  0
 11 55  1  6
 12 13  1  0
 12 56  1  0
 12 57  1  0
 13 25  1  0
 13 14  1  0
 13 58  1  6
 14 35  1  0
 14 15  1  0
 14 59  1  1
 15 16  1  0
 16 33  1  0
 16 17  1  0
 16 60  1  1
 17 18  1  0
 17 61  1  0
 17 62  1  0
 18 19  1  1
 18 20  1  0
 18 30  1  0
 19 63  1  0
 19 64  1  0
 19 65  1  0
 20 21  1  0
 20 66  1  1
 21 22  1  0
 21 67  1  0
 21 68  1  0
 22 23  1  0
 22 24  1  0
 22 69  1  6
 23 70  1  0
 24 25  1  0
 24 27  1  6
 25 26  1  0
 25 71  1  1
 26 72  1  0
 27 28  1  6
 27 29  1  0
 28 73  1  0
 29 74  1  0
 29 75  1  0
 30 31  1  1
 30 32  1  0
 30 38  1  0
 31 76  1  0
 32 33  1  0
 32 77  1  0
 32 78  1  0
 33 34  1  0
 33 93  1  1
 34 35  1  0
 34 79  1  0
 34 80  1  0
 35 36  1  0
 35 37  1  6
 36 81  1  0
 36 82  1  0
 36 83  1  0
 37 84  1  0
 38 39  1  0
 38 85  1  0
 38 86  1  0
 39 40  1  0
 39 41  1  0
 40 87  1  0
 40 88  1  0
 40 89  1  0
 41 90  1  0
 41 91  1  0
 41 92  1  0
M  CHG  1  33   1
M  END
>  <i_m_ct_stereo_status>  (149) 
1

>  <s_m_source_file>  (149) 
/var/tmp/pbs.5076255.sched01/tmp7w47f283/46ruht8ay8.sdf

>  <i_m_source_file_index>  (149) 
18

>  <i_lp_mmshare_version>  (149) 
48012

>  <i_f3d_flags>  (149) 
0

>  <s_epik_input>  (149) 
W0NIM11DKD1bQ0hdMSlbQ0gyXVtDQEBdMihbT0hdKVtDQEBIXTFbQ0gyXVtDQEBIXShbT0hdKVtDQEBIXShbQ0BdMjM0KVtDQF01KFtDSDNdKVtDQEBIXTZbQ0gyXVtDQEhdKFtDQEBIXTRbT0hdKVtDQEBIXTdPW0NASF04TihbQ0gyXVtDQF03KFtDSDNdKVtPSF0pW0NIMl1bQ0BAXShbT0hdKShbQ0gyXUM2KFtDSDNdKVtDSDNdKVtDQEBdKFtDSDJdOCkoW0NIM10pW0NAQEhdNVtDSDJdW0NASF0zW09IXQ==

>  <s_epik_cmdline>  (149) 
J2VwaWtfcHl0aG9uJywgJy1waHQnLCAnMi4wJywgJy1waCcsICc3LjAnLCAnLXRuJywgJzgnLCAnLW1hJywgJzIwMCcsICctaW1hZScsICc8aW5maWxlLm1hZT4nLCAnLW9tYWUnLCAnPG91dGZpbGUubWFlPic=

>  <r_epik_Ionization_Penalty>  (149) 
0.012402

>  <r_epik_Ionization_Penalty_Charging>  (149) 
0.0123995

>  <r_epik_Ionization_Penalty_Neutral>  (149) 
2.45262e-06

>  <r_epik_State_Penalty>  (149) 
0.0095961

>  <r_epik_Charging_Adjusted_Penalty>  (149) 
0.0219956

>  <i_epik_Tot_Q>  (149) 
1

>  <i_epik_Tot_abs_Q>  (149) 
1

>  <s_epik_Chemistry_Notes>  (149) 
This compound contains an acetal/aminal-like group ( X-CH(R)-Y where X, Y are N, S, or O) that may be acid/base labile, releasing an aldehyde.

>  <s_lp_Force_Field>  (149) 
OPLS3e

>  <r_lp_Energy>  (149) 
182.313

>  <b_lp_Chiralities_Consistent>  (149) 
1

>  <s_lp_Variant>  (149) 
42:0-1

>  <s_i_glide_gridfile>  (149) 
pfpi4k_grid

>  <i_i_glide_lignum>  (149) 
18

>  <i_i_glide_rotatable_bonds>  (149) 
6

>  <r_i_docking_score>  (149) 
-2.88377

>  <r_i_glide_ligand_efficiency>  (149) 
-0.0703358

>  <r_i_glide_ligand_efficiency_sa>  (149) 
-0.242533

>  <r_i_glide_ligand_efficiency_ln>  (149) 
-0.611801

>  <r_i_glide_gscore>  (149) 
-2.88377

>  <r_i_glide_lipo>  (149) 
-0.416825

>  <r_i_glide_hbond>  (149) 
-0.0681642

>  <r_i_glide_metal>  (149) 
-0

>  <r_i_glide_rewards>  (149) 
0

>  <r_i_glide_evdw>  (149) 
-29.8417

>  <r_i_glide_ecoul>  (149) 
-5.40634

>  <r_i_glide_erotb>  (149) 
0

>  <r_i_glide_esite>  (149) 
-0.0957416

>  <r_i_glide_emodel>  (149) 
-43.1491

>  <r_i_glide_energy>  (149) 
-35.248

>  <r_i_glide_einternal>  (149) 
1.70868

>  <r_i_glide_intrahb_reward>  (149) 
-0

>  <i_i_glide_confnum>  (149) 
2

>  <i_i_glide_posenum>  (149) 
35

>  <r_i_glide_eff_state_penalty>  (149) 
0

>  <ligand_id>  (149) 
42

>  <original_smiles>  (149) 
CC1=CC2CC(O)C3C4(C)C5CC6C7OC8CC(C)(C4CC(O)C3(C6O)C2(O)C1)C(O)(CN8CC7(C)O)CC5(C)C

>  <smiles>  (149) 
[H]OC1([H])C([H])([H])C2([H])C([H])=C(C([H])([H])[H])C([H])([H])C2(O[H])C23C([H])(O[H])C([H])([H])C4([H])C(C([H])([H])[H])(C5([H])C([H])([H])C([H])(C6([H])OC7([H])C([H])([H])C4(C([H])([H])[H])C(O[H])(C([H])([H])C5(C([H])([H])[H])C([H])([H])[H])C([H])([H])[N+]7([H])C([H])([H])C6(O[H])C([H])([H])[H])C2([H])O[H])C13[H]

$$$$
42:0:2
     RDKit          3D

 93100  0  0  1  0  0  0  0  0999 V2000
    1.0038  -10.6004    4.4058 C   0  0  0  0  0  0  0  0  0  0  0  0
    0.8974   -9.1965    4.9760 C   0  0  0  0  0  0  0  0  0  0  0  0
    0.6131   -8.8552    6.2186 C   0  0  0  0  0  0  0  0  0  0  0  0
    0.6965   -7.3581    6.4152 C   0  0  1  0  0  0  0  0  0  0  0  0
    2.0373   -7.0916    7.1216 C   0  0  0  0  0  0  0  0  0  0  0  0
    2.5778   -5.6702    6.9187 C   0  0  1  0  0  0  0  0  0  0  0  0
    3.7599   -5.6483    7.6853 O   0  0  0  0  0  0  0  0  0  0  0  0
    2.7033   -5.3260    5.3786 C   0  0  2  0  0  0  0  0  0  0  0  0
    3.7290   -4.1700    4.9188 C   0  0  2  0  0  0  0  0  0  0  0  0
    5.1409   -4.8280    5.1637 C   0  0  0  0  0  0  0  0  0  0  0  0
    3.5786   -2.9036    5.8603 C   0  0  2  0  0  0  0  0  0  0  0  0
    2.1114   -2.4378    6.2504 C   0  0  0  0  0  0  0  0  0  0  0  0
    0.7934   -2.6860    5.4325 C   0  0  1  0  0  0  0  0  0  0  0  0
    0.4917   -1.8105    4.1700 C   0  0  2  0  0  0  0  0  0  0  0  0
    1.5488   -2.1879    3.3280 O   0  0  0  0  0  0  0  0  0  0  0  0
    1.7310   -1.5407    2.1731 C   0  0  2  0  0  0  0  0  0  0  0  0
    2.9937   -2.0874    1.4887 C   0  0  0  0  0  0  0  0  0  0  0  0
    4.0633   -2.5287    2.5314 C   0  0  2  0  0  0  0  0  0  0  0  0
    5.2667   -2.9220    1.5933 C   0  0  0  0  0  0  0  0  0  0  0  0
    3.7057   -3.9253    3.3299 C   0  0  2  0  0  0  0  0  0  0  0  0
    2.8148   -4.9938    2.6327 C   0  0  0  0  0  0  0  0  0  0  0  0
    1.3808   -5.0634    3.1622 C   0  0  1  0  0  0  0  0  0  0  0  0
    0.6628   -5.8821    2.2555 O   0  0  0  0  0  0  0  0  0  0  0  0
    1.2625   -5.3319    4.7163 C   0  0  2  0  0  0  0  0  0  0  0  0
    0.3237   -4.1859    5.3295 C   0  0  1  0  0  0  0  0  0  0  0  0
   -0.2712   -4.4784    6.5844 O   0  0  0  0  0  0  0  0  0  0  0  0
    0.6340   -6.7833    4.9536 C   0  0  2  0  0  0  0  0  0  0  0  0
   -0.7481   -6.7802    4.6290 O   0  0  0  0  0  0  0  0  0  0  0  0
    1.1751   -8.0038    4.1089 C   0  0  0  0  0  0  0  0  0  0  0  0
    4.4372   -1.2114    3.3274 C   0  0  1  0  0  0  0  0  0  0  0  0
    5.2246   -0.3824    2.4866 O   0  0  0  0  0  0  0  0  0  0  0  0
    3.2833   -0.2265    3.6703 C   0  0  0  0  0  0  0  0  0  0  0  0
    2.2344   -0.1115    2.6670 N   0  0  2  0  0  0  0  0  0  0  0  0
    1.0570    0.5619    3.1799 C   0  0  0  0  0  0  0  0  0  0  0  0
    0.3054   -0.2434    4.3058 C   0  0  1  0  0  0  0  0  0  0  0  0
   -1.2061    0.0908    4.3431 C   0  0  0  0  0  0  0  0  0  0  0  0
    0.7597    0.2779    5.5326 O   0  0  0  0  0  0  0  0  0  0  0  0
    5.3363   -1.4551    4.5515 C   0  0  0  0  0  0  0  0  0  0  0  0
    4.7567   -1.8234    5.9351 C   0  0  0  0  0  0  0  0  0  0  0  0
    4.3998   -0.5400    6.7391 C   0  0  0  0  0  0  0  0  0  0  0  0
    5.9684   -2.3368    6.7898 C   0  0  0  0  0  0  0  0  0  0  0  0
    0.3054  -10.7208    3.5753 H   0  0  0  0  0  0  0  0  0  0  0  0
    0.7758  -11.3596    5.1574 H   0  0  0  0  0  0  0  0  0  0  0  0
    2.0105  -10.7817    4.0267 H   0  0  0  0  0  0  0  0  0  0  0  0
    0.3861   -9.5507    7.0193 H   0  0  0  0  0  0  0  0  0  0  0  0
   -0.1314   -7.0426    7.0477 H   0  0  0  0  0  0  0  0  0  0  0  0
    1.9272   -7.2915    8.1874 H   0  0  0  0  0  0  0  0  0  0  0  0
    2.7916   -7.7956    6.7694 H   0  0  0  0  0  0  0  0  0  0  0  0
    1.9311   -4.9799    7.4344 H   0  0  0  0  0  0  0  0  0  0  0  0
    4.3814   -6.2533    7.3281 H   0  0  0  0  0  0  0  0  0  0  0  0
    3.1557   -6.2264    4.9841 H   0  0  0  0  0  0  0  0  0  0  0  0
    5.9558   -4.3103    4.6678 H   0  0  0  0  0  0  0  0  0  0  0  0
    5.2029   -5.8433    4.7626 H   0  0  0  0  0  0  0  0  0  0  0  0
    5.4337   -4.9054    6.2051 H   0  0  0  0  0  0  0  0  0  0  0  0
    3.7993   -3.3618    6.8143 H   0  0  0  0  0  0  0  0  0  0  0  0
    1.9136   -2.8713    7.2254 H   0  0  0  0  0  0  0  0  0  0  0  0
    2.1152   -1.3984    6.5304 H   0  0  0  0  0  0  0  0  0  0  0  0
    0.0477   -2.2555    6.1002 H   0  0  0  0  0  0  0  0  0  0  0  0
   -0.4142   -2.1937    3.6994 H   0  0  0  0  0  0  0  0  0  0  0  0
    0.8692   -1.4975    1.5164 H   0  0  0  0  0  0  0  0  0  0  0  0
    2.6542   -2.9221    0.8797 H   0  0  0  0  0  0  0  0  0  0  0  0
    3.3588   -1.3564    0.7800 H   0  0  0  0  0  0  0  0  0  0  0  0
    6.1979   -3.1045    2.1337 H   0  0  0  0  0  0  0  0  0  0  0  0
    5.4944   -2.1546    0.8433 H   0  0  0  0  0  0  0  0  0  0  0  0
    5.0542   -3.8168    1.0011 H   0  0  0  0  0  0  0  0  0  0  0  0
    4.6077   -4.4630    3.0483 H   0  0  0  0  0  0  0  0  0  0  0  0
    2.7966   -4.8537    1.5524 H   0  0  0  0  0  0  0  0  0  0  0  0
    3.2631   -5.9741    2.7496 H   0  0  0  0  0  0  0  0  0  0  0  0
    0.8356   -4.1735    2.9289 H   0  0  0  0  0  0  0  0  0  0  0  0
    0.9904   -6.7613    2.3291 H   0  0  0  0  0  0  0  0  0  0  0  0
   -0.5583   -4.1615    4.6930 H   0  0  0  0  0  0  0  0  0  0  0  0
    0.4001   -4.6421    7.2164 H   0  0  0  0  0  0  0  0  0  0  0  0
   -1.0746   -7.6542    4.7663 H   0  0  0  0  0  0  0  0  0  0  0  0
    2.2511   -7.9595    3.9571 H   0  0  0  0  0  0  0  0  0  0  0  0
    0.6792   -8.1707    3.1612 H   0  0  0  0  0  0  0  0  0  0  0  0
    5.8518    0.0802    3.0117 H   0  0  0  0  0  0  0  0  0  0  0  0
    2.8480   -0.6400    4.5608 H   0  0  0  0  0  0  0  0  0  0  0  0
    3.6750    0.7434    3.9632 H   0  0  0  0  0  0  0  0  0  0  0  0
    1.2587    1.5849    3.4958 H   0  0  0  0  0  0  0  0  0  0  0  0
    0.3500    0.6730    2.3354 H   0  0  0  0  0  0  0  0  0  0  0  0
   -1.7180   -0.2128    3.4274 H   0  0  0  0  0  0  0  0  0  0  0  0
   -1.4025    1.1574    4.4707 H   0  0  0  0  0  0  0  0  0  0  0  0
   -1.7042   -0.4315    5.1648 H   0  0  0  0  0  0  0  0  0  0  0  0
    0.5948    1.2032    5.5536 H   0  0  0  0  0  0  0  0  0  0  0  0
    5.9506   -2.2793    4.2376 H   0  0  0  0  0  0  0  0  0  0  0  0
    5.9929   -0.5967    4.7086 H   0  0  0  0  0  0  0  0  0  0  0  0
    5.2634    0.1168    6.8570 H   0  0  0  0  0  0  0  0  0  0  0  0
    4.0658   -0.7990    7.7442 H   0  0  0  0  0  0  0  0  0  0  0  0
    3.6362    0.0957    6.3033 H   0  0  0  0  0  0  0  0  0  0  0  0
    6.6655   -1.5341    7.0327 H   0  0  0  0  0  0  0  0  0  0  0  0
    6.6008   -3.0688    6.2978 H   0  0  0  0  0  0  0  0  0  0  0  0
    5.6570   -2.7609    7.7453 H   0  0  0  0  0  0  0  0  0  0  0  0
    2.6050    0.4082    1.8966 H   0  0  0  0  0  0  0  0  0  0  0  0
  1  2  1  0
  1 42  1  0
  1 43  1  0
  1 44  1  0
  2 29  1  0
  2  3  2  0
  3  4  1  0
  3 45  1  0
  4 27  1  0
  4  5  1  0
  4 46  1  1
  5  6  1  0
  5 47  1  0
  5 48  1  0
  6  7  1  0
  6  8  1  0
  6 49  1  1
  7 50  1  0
  8 24  1  0
  8  9  1  0
  8 51  1  6
  9 20  1  0
  9 10  1  1
  9 11  1  0
 10 52  1  0
 10 53  1  0
 10 54  1  0
 11 39  1  0
 11 12  1  0
 11 55  1  1
 12 13  1  0
 12 56  1  0
 12 57  1  0
 13 25  1  0
 13 14  1  0
 13 58  1  1
 14 35  1  0
 14 15  1  0
 14 59  1  6
 15 16  1  0
 16 33  1  0
 16 17  1  0
 16 60  1  6
 17 18  1  0
 17 61  1  0
 17 62  1  0
 18 19  1  6
 18 20  1  0
 18 30  1  0
 19 63  1  0
 19 64  1  0
 19 65  1  0
 20 21  1  0
 20 66  1  6
 21 22  1  0
 21 67  1  0
 21 68  1  0
 22 23  1  0
 22 24  1  0
 22 69  1  1
 23 70  1  0
 24 25  1  0
 24 27  1  6
 25 26  1  0
 25 71  1  6
 26 72  1  0
 27 28  1  6
 27 29  1  0
 28 73  1  0
 29 74  1  0
 29 75  1  0
 30 31  1  6
 30 32  1  0
 30 38  1  0
 31 76  1  0
 32 33  1  0
 32 77  1  0
 32 78  1  0
 33 34  1  0
 33 93  1  6
 34 35  1  0
 34 79  1  0
 34 80  1  0
 35 36  1  0
 35 37  1  1
 36 81  1  0
 36 82  1  0
 36 83  1  0
 37 84  1  0
 38 39  1  0
 38 85  1  0
 38 86  1  0
 39 40  1  0
 39 41  1  0
 40 87  1  0
 40 88  1  0
 40 89  1  0
 41 90  1  0
 41 91  1  0
 41 92  1  0
M  CHG  1  33   1
M  END
>  <i_m_ct_stereo_status>  (150) 
1

>  <s_m_source_file>  (150) 
/var/tmp/pbs.5076255.sched01/tmp7w47f283/46ruht8ay8.sdf

>  <i_m_source_file_index>  (150) 
18

>  <i_lp_mmshare_version>  (150) 
48012

>  <i_f3d_flags>  (150) 
0

>  <s_epik_input>  (150) 
W0NIM11DKD1bQ0hdMSlbQ0gyXVtDQEBdMihbT0hdKVtDQEBIXTFbQ0gyXVtDQEBIXShbT0hdKVtDQEBIXShbQ0BdMjM0KVtDQF01KFtDSDNdKVtDQEBIXTZbQ0gyXVtDQEhdKFtDQEBIXTRbT0hdKVtDQEBIXTdPW0NASF04TihbQ0gyXVtDQF03KFtDSDNdKVtPSF0pW0NIMl1bQ0BAXShbT0hdKShbQ0gyXUM2KFtDSDNdKVtDSDNdKVtDQEBdKFtDSDJdOCkoW0NIM10pW0NAQEhdNVtDSDJdW0NASF0zW09IXQ==

>  <s_epik_cmdline>  (150) 
J2VwaWtfcHl0aG9uJywgJy1waHQnLCAnMi4wJywgJy1waCcsICc3LjAnLCAnLXRuJywgJzgnLCAnLW1hJywgJzIwMCcsICctaW1hZScsICc8aW5maWxlLm1hZT4nLCAnLW9tYWUnLCAnPG91dGZpbGUubWFlPic=

>  <r_epik_Ionization_Penalty>  (150) 
0.012402

>  <r_epik_Ionization_Penalty_Charging>  (150) 
0.0123995

>  <r_epik_Ionization_Penalty_Neutral>  (150) 
2.45262e-06

>  <r_epik_State_Penalty>  (150) 
0.0095961

>  <r_epik_Charging_Adjusted_Penalty>  (150) 
0.0219956

>  <i_epik_Tot_Q>  (150) 
1

>  <i_epik_Tot_abs_Q>  (150) 
1

>  <s_epik_Chemistry_Notes>  (150) 
This compound contains an acetal/aminal-like group ( X-CH(R)-Y where X, Y are N, S, or O) that may be acid/base labile, releasing an aldehyde.

>  <s_lp_Force_Field>  (150) 
OPLS3e

>  <r_lp_Energy>  (150) 
182.313

>  <b_lp_Chiralities_Consistent>  (150) 
1

>  <s_lp_Variant>  (150) 
42:0-1

>  <s_i_glide_gridfile>  (150) 
pfpi4k_grid

>  <i_i_glide_lignum>  (150) 
18

>  <i_i_glide_rotatable_bonds>  (150) 
6

>  <r_i_docking_score>  (150) 
-2.85876

>  <r_i_glide_ligand_efficiency>  (150) 
-0.0697257

>  <r_i_glide_ligand_efficiency_sa>  (150) 
-0.240429

>  <r_i_glide_ligand_efficiency_ln>  (150) 
-0.606494

>  <r_i_glide_gscore>  (150) 
-2.85876

>  <r_i_glide_lipo>  (150) 
-0.164557

>  <r_i_glide_hbond>  (150) 
-0.0467865

>  <r_i_glide_metal>  (150) 
-0

>  <r_i_glide_rewards>  (150) 
0

>  <r_i_glide_evdw>  (150) 
-26.7347

>  <r_i_glide_ecoul>  (150) 
-8.35088

>  <r_i_glide_erotb>  (150) 
0

>  <r_i_glide_esite>  (150) 
-0.058044

>  <r_i_glide_emodel>  (150) 
-42.8979

>  <r_i_glide_energy>  (150) 
-35.0856

>  <r_i_glide_einternal>  (150) 
0.72153

>  <r_i_glide_intrahb_reward>  (150) 
-0

>  <i_i_glide_confnum>  (150) 
1

>  <i_i_glide_posenum>  (150) 
2

>  <r_i_glide_eff_state_penalty>  (150) 
0

>  <ligand_id>  (150) 
42

>  <original_smiles>  (150) 
CC1=CC2CC(O)C3C4(C)C5CC6C7OC8CC(C)(C4CC(O)C3(C6O)C2(O)C1)C(O)(CN8CC7(C)O)CC5(C)C

>  <smiles>  (150) 
[H]OC1([H])C([H])([H])C2([H])C([H])=C(C([H])([H])[H])C([H])([H])C2(O[H])C23C([H])(O[H])C([H])([H])C4([H])C(C([H])([H])[H])(C5([H])C([H])([H])C([H])(C6([H])OC7([H])C([H])([H])C4(C([H])([H])[H])C(O[H])(C([H])([H])C5(C([H])([H])[H])C([H])([H])[H])C([H])([H])[N+]7([H])C([H])([H])C6(O[H])C([H])([H])[H])C2([H])O[H])C13[H]

$$$$
43:0:0
     RDKit          3D

 45 50  0  0  1  0  0  0  0  0999 V2000
    2.4996    0.7359    2.0522 C   0  0  0  0  0  0  0  0  0  0  0  0
    2.5786    1.5186    3.1389 C   0  0  0  0  0  0  0  0  0  0  0  0
    3.5871    1.1886    4.3093 C   0  0  0  0  0  0  0  0  0  0  0  0
    2.9943    1.6305    5.6607 C   0  0  2  0  0  0  0  0  0  0  0  0
    3.3815    1.1405    7.1048 C   0  0  0  0  0  0  0  0  0  0  0  0
    4.4770    0.7224    7.4794 O   0  0  0  0  0  0  0  0  0  0  0  0
    2.1528    1.1865    8.0102 O   0  0  0  0  0  0  0  0  0  0  0  0
    0.8391    1.8788    7.5923 C   0  0  2  0  0  0  0  0  0  0  0  0
   -0.5341    1.2959    6.9183 C   0  0  0  0  0  0  0  0  0  0  0  0
   -1.7333    1.9776    7.2629 C   0  0  0  0  0  0  0  0  0  0  0  0
   -2.4940    2.7013    6.3070 C   0  0  0  0  0  0  0  0  0  0  0  0
   -2.0644    2.8503    4.9635 C   0  0  0  0  0  0  0  0  0  0  0  0
   -2.6954    3.7470    4.1458 O   0  0  0  0  0  0  0  0  0  0  0  0
   -3.1797    3.2487    2.9000 C   0  0  0  0  0  0  0  0  0  0  0  0
   -0.9223    2.1609    4.5226 C   0  0  0  0  0  0  0  0  0  0  0  0
   -0.4052    1.2468    5.4510 C   0  0  0  0  0  0  0  0  0  0  0  0
    0.7005    0.7341    4.8964 O   0  0  0  0  0  0  0  0  0  0  0  0
    1.6176    1.3301    5.6981 C   0  0  2  0  0  0  0  0  0  0  0  0
    1.2803    2.7330    6.4712 C   0  0  1  0  0  0  0  0  0  0  0  0
    2.5228    3.0775    5.6372 C   0  0  2  0  0  0  0  0  0  0  0  0
    2.1710    3.7530    4.3031 C   0  0  1  0  0  0  0  0  0  0  0  0
    3.3921    4.3134    3.8285 O   0  0  0  0  0  0  0  0  0  0  0  0
    3.2547    5.3927    2.9152 C   0  0  0  0  0  0  0  0  0  0  0  0
    1.6029    2.7397    3.2705 C   0  0  2  0  0  0  0  0  0  0  0  0
   -0.0002    2.4520    3.2547 C   0  0  0  0  0  0  0  0  0  0  0  0
    1.7792    0.9480    1.2732 H   0  0  0  0  0  0  0  0  0  0  0  0
    3.1361   -0.1272    1.9309 H   0  0  0  0  0  0  0  0  0  0  0  0
    3.8549    0.1270    4.2892 H   0  0  0  0  0  0  0  0  0  0  0  0
    4.5010    1.7472    4.1048 H   0  0  0  0  0  0  0  0  0  0  0  0
    0.5214    2.5174    8.4176 H   0  0  0  0  0  0  0  0  0  0  0  0
   -1.9501    2.1357    8.3066 H   0  0  0  0  0  0  0  0  0  0  0  0
   -3.3552    3.2740    6.6399 H   0  0  0  0  0  0  0  0  0  0  0  0
   -3.5764    4.0866    2.3205 H   0  0  0  0  0  0  0  0  0  0  0  0
   -3.9868    2.5411    3.0822 H   0  0  0  0  0  0  0  0  0  0  0  0
   -2.4345    2.7573    2.2775 H   0  0  0  0  0  0  0  0  0  0  0  0
    1.5842    0.2999    6.1103 H   0  0  0  0  0  0  0  0  0  0  0  0
    1.7724    3.3829    7.2003 H   0  0  0  0  0  0  0  0  0  0  0  0
    3.2852    3.6628    6.1542 H   0  0  0  0  0  0  0  0  0  0  0  0
    1.4668    4.5676    4.4818 H   0  0  0  0  0  0  0  0  0  0  0  0
    4.2356    5.7434    2.5970 H   0  0  0  0  0  0  0  0  0  0  0  0
    2.7464    6.2402    3.3701 H   0  0  0  0  0  0  0  0  0  0  0  0
    2.7160    5.1127    2.0154 H   0  0  0  0  0  0  0  0  0  0  0  0
    1.7221    3.2222    2.3049 H   0  0  0  0  0  0  0  0  0  0  0  0
   -0.2390    1.7312    2.4764 H   0  0  0  0  0  0  0  0  0  0  0  0
   -0.3794    3.4012    2.8911 H   0  0  0  0  0  0  0  0  0  0  0  0
  1  2  2  0
  1 26  1  0
  1 27  1  0
  2 24  1  0
  2  3  1  0
  3  4  1  0
  3 28  1  0
  3 29  1  0
  4 18  1  0
  4 20  1  0
  4  5  1  1
  5  6  2  0
  5  7  1  0
  7  8  1  0
  8 19  1  0
  8  9  1  0
  8 30  1  1
  9 16  2  0
  9 10  1  0
 10 11  2  0
 10 31  1  0
 11 12  1  0
 11 32  1  0
 12 13  1  0
 12 15  2  0
 13 14  1  0
 14 33  1  0
 14 34  1  0
 14 35  1  0
 15 25  1  0
 15 16  1  0
 16 17  1  0
 17 18  1  0
 18 19  1  0
 18 36  1  1
 19 20  1  0
 19 37  1  6
 20 21  1  0
 20 38  1  1
 21 22  1  0
 21 24  1  0
 21 39  1  1
 22 23  1  0
 23 40  1  0
 23 41  1  0
 23 42  1  0
 24 25  1  0
 24 43  1  6
 25 44  1  0
 25 45  1  0
M  END
>  <i_m_ct_stereo_status>  (151) 
1

>  <s_m_source_file>  (151) 
/var/tmp/pbs.5076255.sched01/tmp7w47f283/46ruht8ay8.sdf

>  <i_m_source_file_index>  (151) 
20

>  <i_lp_mmshare_version>  (151) 
48012

>  <i_f3d_flags>  (151) 
0

>  <s_epik_input>  (151) 
W0NIM11PW0NASF0oW0NASF0xMilbQ0BASF0oQyg9W0NIMl0pW0NIMl0zKVtDSDJdYyhjKFtjSF1bY0hdNClPW0NIM10pYyhPNSljNFtDQEBIXShPQzY9TylbQ0hdMltDQEBIXTVbQ0BdMTM2

>  <s_epik_cmdline>  (151) 
J2VwaWtfcHl0aG9uJywgJy1waHQnLCAnMi4wJywgJy1waCcsICc3LjAnLCAnLXRuJywgJzgnLCAnLW1hJywgJzIwMCcsICctaW1hZScsICc8aW5maWxlLm1hZT4nLCAnLW9tYWUnLCAnPG91dGZpbGUubWFlPic=

>  <r_lp_tautomer_probability>  (151) 
1

>  <r_epik_Ionization_Penalty>  (151) 
2.88534e-12

>  <r_epik_Ionization_Penalty_Charging>  (151) 
0

>  <r_epik_Ionization_Penalty_Neutral>  (151) 
2.88534e-12

>  <r_epik_State_Penalty>  (151) 
-0

>  <r_epik_Charging_Adjusted_Penalty>  (151) 
0

>  <i_epik_Tot_Q>  (151) 
0

>  <i_epik_Tot_abs_Q>  (151) 
0

>  <s_epik_Chemistry_Notes>  (151) 
This compound has an ester and may undergo hydrolysis at high or low pH.

>  <s_lp_Force_Field>  (151) 
OPLS3e

>  <r_lp_Energy>  (151) 
342.702

>  <b_lp_Chiralities_Consistent>  (151) 
1

>  <s_lp_Variant>  (151) 
43:0-1

>  <s_i_glide_gridfile>  (151) 
pfpi4k_grid

>  <i_i_glide_lignum>  (151) 
20

>  <i_i_glide_rotatable_bonds>  (151) 
2

>  <r_i_docking_score>  (151) 
-2.49758

>  <r_i_glide_ligand_efficiency>  (151) 
-0.0999031

>  <r_i_glide_ligand_efficiency_sa>  (151) 
-0.292118

>  <r_i_glide_ligand_efficiency_ln>  (151) 
-0.592001

>  <r_i_glide_gscore>  (151) 
-2.49758

>  <r_i_glide_lipo>  (151) 
-0.20957

>  <r_i_glide_hbond>  (151) 
0

>  <r_i_glide_metal>  (151) 
-0

>  <r_i_glide_rewards>  (151) 
-1.08839

>  <r_i_glide_evdw>  (151) 
-19.0374

>  <r_i_glide_ecoul>  (151) 
-1.65166

>  <r_i_glide_erotb>  (151) 
0

>  <r_i_glide_esite>  (151) 
0

>  <r_i_glide_emodel>  (151) 
-21.1948

>  <r_i_glide_energy>  (151) 
-20.6891

>  <r_i_glide_einternal>  (151) 
5.59075

>  <r_i_glide_intrahb_reward>  (151) 
-0

>  <i_i_glide_confnum>  (151) 
2

>  <i_i_glide_posenum>  (151) 
18

>  <r_i_glide_eff_state_penalty>  (151) 
0

>  <ligand_id>  (151) 
43

>  <original_smiles>  (151) 
C=C1CC23C(=O)OC4c5ccc(OC)c6c5OC2C4C3C(OC)C1C6

>  <smiles>  (151) 
[H]C([H])=C1C([H])([H])C23C(=O)OC4([H])c5c([H])c([H])c(OC([H])([H])[H])c6c5OC2([H])C4([H])C3([H])C([H])(OC([H])([H])[H])C1([H])C6([H])[H]

$$$$
43:0:1
     RDKit          3D

 45 50  0  0  1  0  0  0  0  0999 V2000
   -2.6879    3.4128    2.9024 C   0  0  0  0  0  0  0  0  0  0  0  0
   -1.6485    3.4225    3.7520 C   0  0  0  0  0  0  0  0  0  0  0  0
   -0.6555    4.6546    3.8017 C   0  0  0  0  0  0  0  0  0  0  0  0
    0.7648    4.1767    4.1426 C   0  0  2  0  0  0  0  0  0  0  0  0
    2.1313    4.9130    3.8885 C   0  0  0  0  0  0  0  0  0  0  0  0
    2.3304    6.1265    3.8427 O   0  0  0  0  0  0  0  0  0  0  0  0
    3.2316    3.8830    3.6629 O   0  0  0  0  0  0  0  0  0  0  0  0
    3.0254    2.3758    3.9238 C   0  0  2  0  0  0  0  0  0  0  0  0
    2.6071    1.1313    2.9388 C   0  0  0  0  0  0  0  0  0  0  0  0
    3.1397   -0.1381    3.2642 C   0  0  0  0  0  0  0  0  0  0  0  0
    2.3275   -1.2284    3.6727 C   0  0  0  0  0  0  0  0  0  0  0  0
    0.9263   -1.0780    3.8977 C   0  0  0  0  0  0  0  0  0  0  0  0
    0.1070   -2.0225    4.4784 O   0  0  0  0  0  0  0  0  0  0  0  0
    0.6788   -3.2652    4.8416 C   0  0  0  0  0  0  0  0  0  0  0  0
    0.3216    0.1340    3.5218 C   0  0  0  0  0  0  0  0  0  0  0  0
    1.1450    1.0294    2.8245 C   0  0  0  0  0  0  0  0  0  0  0  0
    0.4116    2.1291    2.6128 O   0  0  0  0  0  0  0  0  0  0  0  0
    1.0468    2.9738    3.4626 C   0  0  2  0  0  0  0  0  0  0  0  0
    1.8236    2.3736    4.7800 C   0  0  1  0  0  0  0  0  0  0  0  0
    0.7929    3.3260    5.4005 C   0  0  2  0  0  0  0  0  0  0  0  0
   -0.4785    2.5838    5.8546 C   0  0  1  0  0  0  0  0  0  0  0  0
   -1.2469    3.4580    6.6862 O   0  0  0  0  0  0  0  0  0  0  0  0
   -0.8901    3.4428    8.0655 C   0  0  0  0  0  0  0  0  0  0  0  0
   -1.3765    2.1664    4.6600 C   0  0  2  0  0  0  0  0  0  0  0  0
   -1.1061    0.7163    3.9347 C   0  0  0  0  0  0  0  0  0  0  0  0
   -3.3393    2.5524    2.8412 H   0  0  0  0  0  0  0  0  0  0  0  0
   -2.8790    4.2435    2.2417 H   0  0  0  0  0  0  0  0  0  0  0  0
   -0.6880    5.2215    2.8691 H   0  0  0  0  0  0  0  0  0  0  0  0
   -1.0004    5.3239    4.5888 H   0  0  0  0  0  0  0  0  0  0  0  0
    3.8804    2.0171    4.5038 H   0  0  0  0  0  0  0  0  0  0  0  0
    4.2066   -0.2148    3.4120 H   0  0  0  0  0  0  0  0  0  0  0  0
    2.8359   -2.1384    3.9650 H   0  0  0  0  0  0  0  0  0  0  0  0
   -0.1006   -3.8848    5.2879 H   0  0  0  0  0  0  0  0  0  0  0  0
    1.4727   -3.1369    5.5801 H   0  0  0  0  0  0  0  0  0  0  0  0
    1.0664   -3.7838    3.9631 H   0  0  0  0  0  0  0  0  0  0  0  0
    1.4865    3.2974    2.4959 H   0  0  0  0  0  0  0  0  0  0  0  0
    2.4488    2.7520    5.5924 H   0  0  0  0  0  0  0  0  0  0  0  0
    1.1728    3.9667    6.2013 H   0  0  0  0  0  0  0  0  0  0  0  0
   -0.2232    1.6871    6.4248 H   0  0  0  0  0  0  0  0  0  0  0  0
   -1.4771    4.1801    8.6163 H   0  0  0  0  0  0  0  0  0  0  0  0
    0.1619    3.6765    8.2327 H   0  0  0  0  0  0  0  0  0  0  0  0
   -1.0983    2.4676    8.5055 H   0  0  0  0  0  0  0  0  0  0  0  0
   -2.3531    2.0074    5.1175 H   0  0  0  0  0  0  0  0  0  0  0  0
   -1.7715    0.6015    3.0803 H   0  0  0  0  0  0  0  0  0  0  0  0
   -1.4574   -0.0048    4.6706 H   0  0  0  0  0  0  0  0  0  0  0  0
  1  2  2  0
  1 26  1  0
  1 27  1  0
  2 24  1  0
  2  3  1  0
  3  4  1  0
  3 28  1  0
  3 29  1  0
  4 18  1  0
  4 20  1  0
  4  5  1  1
  5  6  2  0
  5  7  1  0
  7  8  1  0
  8 19  1  0
  8  9  1  0
  8 30  1  1
  9 16  2  0
  9 10  1  0
 10 11  2  0
 10 31  1  0
 11 12  1  0
 11 32  1  0
 12 13  1  0
 12 15  2  0
 13 14  1  0
 14 33  1  0
 14 34  1  0
 14 35  1  0
 15 25  1  0
 15 16  1  0
 16 17  1  0
 17 18  1  0
 18 19  1  0
 18 36  1  6
 19 20  1  0
 19 37  1  1
 20 21  1  0
 20 38  1  1
 21 22  1  0
 21 24  1  0
 21 39  1  1
 22 23  1  0
 23 40  1  0
 23 41  1  0
 23 42  1  0
 24 25  1  0
 24 43  1  1
 25 44  1  0
 25 45  1  0
M  END
>  <i_m_ct_stereo_status>  (152) 
1

>  <s_m_source_file>  (152) 
/var/tmp/pbs.5076255.sched01/tmp7w47f283/46ruht8ay8.sdf

>  <i_m_source_file_index>  (152) 
20

>  <i_lp_mmshare_version>  (152) 
48012

>  <i_f3d_flags>  (152) 
0

>  <s_epik_input>  (152) 
W0NIM11PW0NASF0oW0NASF0xMilbQ0BASF0oQyg9W0NIMl0pW0NIMl0zKVtDSDJdYyhjKFtjSF1bY0hdNClPW0NIM10pYyhPNSljNFtDQEBIXShPQzY9TylbQ0hdMltDQEBIXTVbQ0BdMTM2

>  <s_epik_cmdline>  (152) 
J2VwaWtfcHl0aG9uJywgJy1waHQnLCAnMi4wJywgJy1waCcsICc3LjAnLCAnLXRuJywgJzgnLCAnLW1hJywgJzIwMCcsICctaW1hZScsICc8aW5maWxlLm1hZT4nLCAnLW9tYWUnLCAnPG91dGZpbGUubWFlPic=

>  <r_lp_tautomer_probability>  (152) 
1

>  <r_epik_Ionization_Penalty>  (152) 
2.88534e-12

>  <r_epik_Ionization_Penalty_Charging>  (152) 
0

>  <r_epik_Ionization_Penalty_Neutral>  (152) 
2.88534e-12

>  <r_epik_State_Penalty>  (152) 
-0

>  <r_epik_Charging_Adjusted_Penalty>  (152) 
0

>  <i_epik_Tot_Q>  (152) 
0

>  <i_epik_Tot_abs_Q>  (152) 
0

>  <s_epik_Chemistry_Notes>  (152) 
This compound has an ester and may undergo hydrolysis at high or low pH.

>  <s_lp_Force_Field>  (152) 
OPLS3e

>  <r_lp_Energy>  (152) 
342.702

>  <b_lp_Chiralities_Consistent>  (152) 
1

>  <s_lp_Variant>  (152) 
43:0-1

>  <s_i_glide_gridfile>  (152) 
pfpi4k_grid

>  <i_i_glide_lignum>  (152) 
20

>  <i_i_glide_rotatable_bonds>  (152) 
2

>  <r_i_docking_score>  (152) 
-2.14878

>  <r_i_glide_ligand_efficiency>  (152) 
-0.0859512

>  <r_i_glide_ligand_efficiency_sa>  (152) 
-0.251323

>  <r_i_glide_ligand_efficiency_ln>  (152) 
-0.509325

>  <r_i_glide_gscore>  (152) 
-2.14878

>  <r_i_glide_lipo>  (152) 
-0.00864742

>  <r_i_glide_hbond>  (152) 
0

>  <r_i_glide_metal>  (152) 
-0

>  <r_i_glide_rewards>  (152) 
-1.08839

>  <r_i_glide_evdw>  (152) 
-22.4452

>  <r_i_glide_ecoul>  (152) 
0.668182

>  <r_i_glide_erotb>  (152) 
0

>  <r_i_glide_esite>  (152) 
-0.0297141

>  <r_i_glide_emodel>  (152) 
-24.2592

>  <r_i_glide_energy>  (152) 
-21.777

>  <r_i_glide_einternal>  (152) 
0.809739

>  <r_i_glide_intrahb_reward>  (152) 
-0

>  <i_i_glide_confnum>  (152) 
1

>  <i_i_glide_posenum>  (152) 
14

>  <r_i_glide_eff_state_penalty>  (152) 
0

>  <ligand_id>  (152) 
43

>  <original_smiles>  (152) 
C=C1CC23C(=O)OC4c5ccc(OC)c6c5OC2C4C3C(OC)C1C6

>  <smiles>  (152) 
[H]C([H])=C1C([H])([H])C23C(=O)OC4([H])c5c([H])c([H])c(OC([H])([H])[H])c6c5OC2([H])C4([H])C3([H])C([H])(OC([H])([H])[H])C1([H])C6([H])[H]

$$$$
43:0:2
     RDKit          3D

 45 50  0  0  1  0  0  0  0  0999 V2000
    3.9290    1.0383    4.5898 C   0  0  0  0  0  0  0  0  0  0  0  0
    3.4465    2.2136    5.0169 C   0  0  0  0  0  0  0  0  0  0  0  0
    3.9412    2.8387    6.3836 C   0  0  0  0  0  0  0  0  0  0  0  0
    2.7981    3.6323    7.0447 C   0  0  2  0  0  0  0  0  0  0  0  0
    2.6437    4.0468    8.5566 C   0  0  0  0  0  0  0  0  0  0  0  0
    3.5448    4.2569    9.3689 O   0  0  0  0  0  0  0  0  0  0  0  0
    1.1612    4.0960    8.9307 O   0  0  0  0  0  0  0  0  0  0  0  0
    0.0446    4.0181    7.8729 C   0  0  2  0  0  0  0  0  0  0  0  0
   -0.8484    2.7616    7.3071 C   0  0  0  0  0  0  0  0  0  0  0  0
   -2.1658    3.0652    6.9006 C   0  0  0  0  0  0  0  0  0  0  0  0
   -2.5861    2.9604    5.5512 C   0  0  0  0  0  0  0  0  0  0  0  0
   -1.6841    2.6397    4.4938 C   0  0  0  0  0  0  0  0  0  0  0  0
   -1.9850    2.7034    3.1513 O   0  0  0  0  0  0  0  0  0  0  0  0
   -3.2537    3.1990    2.7641 C   0  0  0  0  0  0  0  0  0  0  0  0
   -0.3805    2.2409    4.8350 C   0  0  0  0  0  0  0  0  0  0  0  0
   -0.1465    2.0765    6.2093 C   0  0  0  0  0  0  0  0  0  0  0  0
    1.1508    1.7716    6.3399 O   0  0  0  0  0  0  0  0  0  0  0  0
    1.5810    2.9358    6.8929 C   0  0  2  0  0  0  0  0  0  0  0  0
    0.7688    4.3356    6.6234 C   0  0  1  0  0  0  0  0  0  0  0  0
    2.1779    4.6416    6.0962 C   0  0  2  0  0  0  0  0  0  0  0  0
    2.2889    4.4423    4.5796 C   0  0  1  0  0  0  0  0  0  0  0  0
    3.5162    5.0731    4.2102 O   0  0  0  0  0  0  0  0  0  0  0  0
    3.5115    5.6992    2.9337 C   0  0  0  0  0  0  0  0  0  0  0  0
    2.3314    2.9404    4.1758 C   0  0  2  0  0  0  0  0  0  0  0  0
    0.9152    2.1587    3.9083 C   0  0  0  0  0  0  0  0  0  0  0  0
    3.5666    0.6011    3.6698 H   0  0  0  0  0  0  0  0  0  0  0  0
    4.6771    0.4974    5.1513 H   0  0  0  0  0  0  0  0  0  0  0  0
    4.3445    2.0609    7.0369 H   0  0  0  0  0  0  0  0  0  0  0  0
    4.7665    3.5111    6.1481 H   0  0  0  0  0  0  0  0  0  0  0  0
   -0.6718    4.8177    8.0808 H   0  0  0  0  0  0  0  0  0  0  0  0
   -2.8046    3.5962    7.5900 H   0  0  0  0  0  0  0  0  0  0  0  0
   -3.5974    3.2762    5.3271 H   0  0  0  0  0  0  0  0  0  0  0  0
   -3.3350    3.1823    1.6846 H   0  0  0  0  0  0  0  0  0  0  0  0
   -3.3754    4.2307    3.0892 H   0  0  0  0  0  0  0  0  0  0  0  0
   -4.0592    2.5822    3.1605 H   0  0  0  0  0  0  0  0  0  0  0  0
    1.5341    2.2793    7.7880 H   0  0  0  0  0  0  0  0  0  0  0  0
    0.8242    5.3742    6.9605 H   0  0  0  0  0  0  0  0  0  0  0  0
    2.5750    5.6242    6.3694 H   0  0  0  0  0  0  0  0  0  0  0  0
    1.4611    4.9512    4.0814 H   0  0  0  0  0  0  0  0  0  0  0  0
    4.4848    6.1516    2.7372 H   0  0  0  0  0  0  0  0  0  0  0  0
    2.7751    6.4976    2.8937 H   0  0  0  0  0  0  0  0  0  0  0  0
    3.3078    4.9914    2.1332 H   0  0  0  0  0  0  0  0  0  0  0  0
    2.7701    2.9489    3.1764 H   0  0  0  0  0  0  0  0  0  0  0  0
    1.1089    1.1180    3.6680 H   0  0  0  0  0  0  0  0  0  0  0  0
    0.5627    2.5927    2.9738 H   0  0  0  0  0  0  0  0  0  0  0  0
  1  2  2  0
  1 26  1  0
  1 27  1  0
  2 24  1  0
  2  3  1  0
  3  4  1  0
  3 28  1  0
  3 29  1  0
  4 18  1  0
  4 20  1  0
  4  5  1  1
  5  6  2  0
  5  7  1  0
  7  8  1  0
  8 19  1  0
  8  9  1  0
  8 30  1  1
  9 16  2  0
  9 10  1  0
 10 11  2  0
 10 31  1  0
 11 12  1  0
 11 32  1  0
 12 13  1  0
 12 15  2  0
 13 14  1  0
 14 33  1  0
 14 34  1  0
 14 35  1  0
 15 25  1  0
 15 16  1  0
 16 17  1  0
 17 18  1  0
 18 19  1  0
 18 36  1  1
 19 20  1  0
 19 37  1  6
 20 21  1  0
 20 38  1  6
 21 22  1  0
 21 24  1  0
 21 39  1  6
 22 23  1  0
 23 40  1  0
 23 41  1  0
 23 42  1  0
 24 25  1  0
 24 43  1  6
 25 44  1  0
 25 45  1  0
M  END
>  <i_m_ct_stereo_status>  (153) 
1

>  <s_m_source_file>  (153) 
/var/tmp/pbs.5076255.sched01/tmp7w47f283/46ruht8ay8.sdf

>  <i_m_source_file_index>  (153) 
20

>  <i_lp_mmshare_version>  (153) 
48012

>  <i_f3d_flags>  (153) 
0

>  <s_epik_input>  (153) 
W0NIM11PW0NASF0oW0NASF0xMilbQ0BASF0oQyg9W0NIMl0pW0NIMl0zKVtDSDJdYyhjKFtjSF1bY0hdNClPW0NIM10pYyhPNSljNFtDQEBIXShPQzY9TylbQ0hdMltDQEBIXTVbQ0BdMTM2

>  <s_epik_cmdline>  (153) 
J2VwaWtfcHl0aG9uJywgJy1waHQnLCAnMi4wJywgJy1waCcsICc3LjAnLCAnLXRuJywgJzgnLCAnLW1hJywgJzIwMCcsICctaW1hZScsICc8aW5maWxlLm1hZT4nLCAnLW9tYWUnLCAnPG91dGZpbGUubWFlPic=

>  <r_lp_tautomer_probability>  (153) 
1

>  <r_epik_Ionization_Penalty>  (153) 
2.88534e-12

>  <r_epik_Ionization_Penalty_Charging>  (153) 
0

>  <r_epik_Ionization_Penalty_Neutral>  (153) 
2.88534e-12

>  <r_epik_State_Penalty>  (153) 
-0

>  <r_epik_Charging_Adjusted_Penalty>  (153) 
0

>  <i_epik_Tot_Q>  (153) 
0

>  <i_epik_Tot_abs_Q>  (153) 
0

>  <s_epik_Chemistry_Notes>  (153) 
This compound has an ester and may undergo hydrolysis at high or low pH.

>  <s_lp_Force_Field>  (153) 
OPLS3e

>  <r_lp_Energy>  (153) 
342.702

>  <b_lp_Chiralities_Consistent>  (153) 
1

>  <s_lp_Variant>  (153) 
43:0-1

>  <s_i_glide_gridfile>  (153) 
pfpi4k_grid

>  <i_i_glide_lignum>  (153) 
20

>  <i_i_glide_rotatable_bonds>  (153) 
2

>  <r_i_docking_score>  (153) 
-2.05847

>  <r_i_glide_ligand_efficiency>  (153) 
-0.0823389

>  <r_i_glide_ligand_efficiency_sa>  (153) 
-0.24076

>  <r_i_glide_ligand_efficiency_ln>  (153) 
-0.48792

>  <r_i_glide_gscore>  (153) 
-2.05847

>  <r_i_glide_lipo>  (153) 
-0.10601

>  <r_i_glide_hbond>  (153) 
0

>  <r_i_glide_metal>  (153) 
-0

>  <r_i_glide_rewards>  (153) 
-1.08839

>  <r_i_glide_evdw>  (153) 
-17.4236

>  <r_i_glide_ecoul>  (153) 
0.0473671

>  <r_i_glide_erotb>  (153) 
0

>  <r_i_glide_esite>  (153) 
0

>  <r_i_glide_emodel>  (153) 
-19.9067

>  <r_i_glide_energy>  (153) 
-17.3762

>  <r_i_glide_einternal>  (153) 
0.358795

>  <r_i_glide_intrahb_reward>  (153) 
-0

>  <i_i_glide_confnum>  (153) 
2

>  <i_i_glide_posenum>  (153) 
23

>  <r_i_glide_eff_state_penalty>  (153) 
0

>  <ligand_id>  (153) 
43

>  <original_smiles>  (153) 
C=C1CC23C(=O)OC4c5ccc(OC)c6c5OC2C4C3C(OC)C1C6

>  <smiles>  (153) 
[H]C([H])=C1C([H])([H])C23C(=O)OC4([H])c5c([H])c([H])c(OC([H])([H])[H])c6c5OC2([H])C4([H])C3([H])C([H])(OC([H])([H])[H])C1([H])C6([H])[H]

$$$$
44:0:0
     RDKit          3D

 29 31  0  0  1  0  0  0  0  0999 V2000
    1.0081    0.5330    1.6876 N   0  0  0  0  0  0  0  0  0  0  0  0
    2.2636    0.2908    2.1672 C   0  0  0  0  0  0  0  0  0  0  0  0
    2.4946    0.6595    3.4178 N   0  0  0  0  0  0  0  0  0  0  0  0
    3.7381    0.3729    3.7929 C   0  0  0  0  0  0  0  0  0  0  0  0
    4.6851   -0.2374    3.0793 N   0  0  0  0  0  0  0  0  0  0  0  0
    4.3073   -0.5569    1.8338 C   0  0  0  0  0  0  0  0  0  0  0  0
    5.2673   -1.2094    1.0103 N   0  0  0  0  0  0  0  0  0  0  0  0
    6.6015   -1.4103    1.3640 C   0  0  0  0  0  0  0  0  0  0  0  0
    7.2706   -2.0929    0.3807 C   0  0  0  0  0  0  0  0  0  0  0  0
    6.3161   -2.3326   -0.6580 C   0  0  0  0  0  0  0  0  0  0  0  0
    6.3742   -2.9747   -1.9198 C   0  0  0  0  0  0  0  0  0  0  0  0
    5.2704   -3.0380   -2.7052 N   0  0  0  0  0  0  0  0  0  0  0  0
    4.0836   -2.5109   -2.3509 C   0  0  0  0  0  0  0  0  0  0  0  0
    2.9171   -2.6349   -3.2994 C   0  0  0  0  0  0  0  0  0  0  0  0
    3.0010   -1.6737   -4.3148 O   0  0  0  0  0  0  0  0  0  0  0  0
    3.9575   -1.8467   -1.1204 C   0  0  0  0  0  0  0  0  0  0  0  0
    5.0724   -1.7623   -0.2597 C   0  0  0  0  0  0  0  0  0  0  0  0
    3.0968   -0.3046    1.3230 N   0  0  0  0  0  0  0  0  0  0  0  0
    0.3282    1.0007    2.2728 H   0  0  0  0  0  0  0  0  0  0  0  0
    4.0110    0.6562    4.7991 H   0  0  0  0  0  0  0  0  0  0  0  0
    6.9816   -1.0394    2.3061 H   0  0  0  0  0  0  0  0  0  0  0  0
    8.3074   -2.3949    0.3854 H   0  0  0  0  0  0  0  0  0  0  0  0
    7.2641   -3.4441   -2.3143 H   0  0  0  0  0  0  0  0  0  0  0  0
    2.9056   -3.6249   -3.7474 H   0  0  0  0  0  0  0  0  0  0  0  0
    1.9827   -2.5344   -2.7472 H   0  0  0  0  0  0  0  0  0  0  0  0
    2.2675   -1.8022   -4.9137 H   0  0  0  0  0  0  0  0  0  0  0  0
    3.0054   -1.4208   -0.8509 H   0  0  0  0  0  0  0  0  0  0  0  0
    0.7729    0.2294    0.7446 H   0  0  0  0  0  0  0  0  0  0  0  0
    5.3390   -3.5140   -3.6061 H   0  0  0  0  0  0  0  0  0  0  0  0
  1  2  1  0
  1 19  1  0
  1 28  1  0
  2 18  2  0
  2  3  1  0
  3  4  2  0
  4  5  1  0
  4 20  1  0
  5  6  2  0
  6  7  1  0
  6 18  1  0
  7 17  1  0
  7  8  1  0
  8  9  2  0
  8 21  1  0
  9 10  1  0
  9 22  1  0
 10 17  2  0
 10 11  1  0
 11 12  2  0
 11 23  1  0
 12 13  1  0
 12 29  1  0
 13 14  1  0
 13 16  2  0
 14 15  1  0
 14 24  1  0
 14 25  1  0
 15 26  1  0
 16 17  1  0
 16 27  1  0
M  CHG  1  12   1
M  END
>  <i_m_ct_stereo_status>  (154) 
1

>  <s_m_source_file>  (154) 
/var/tmp/pbs.5076255.sched01/tmp7w47f283/46ruht8ay8.sdf

>  <i_m_source_file_index>  (154) 
21

>  <i_lp_mmshare_version>  (154) 
48012

>  <i_f3d_flags>  (154) 
0

>  <s_epik_input>  (154) 
W0hdL049YzEvbltjSF1bbkhdYyhuMSktbihbY0hdW2NIXTIpYyhjMjMpW2NIXWMobltjSF0zKVtDSDJdW09IXQ==

>  <s_epik_cmdline>  (154) 
J2VwaWtfcHl0aG9uJywgJy1waHQnLCAnMi4wJywgJy1waCcsICc3LjAnLCAnLXRuJywgJzgnLCAnLW1hJywgJzIwMCcsICctaW1hZScsICc8aW5maWxlLm1hZT4nLCAnLW9tYWUnLCAnPG91dGZpbGUubWFlPic=

>  <r_lp_tautomer_probability>  (154) 
1

>  <r_epik_Ionization_Penalty>  (154) 
0.0422755

>  <r_epik_Ionization_Penalty_Charging>  (154) 
0.0420742

>  <r_epik_Ionization_Penalty_Neutral>  (154) 
0.000201354

>  <r_epik_State_Penalty>  (154) 
0.0355168

>  <r_epik_Charging_Adjusted_Penalty>  (154) 
0.077591

>  <i_epik_Tot_Q>  (154) 
1

>  <i_epik_Tot_abs_Q>  (154) 
1

>  <s_lp_Force_Field>  (154) 
OPLS3e

>  <r_lp_Energy>  (154) 
27.3566

>  <b_lp_Chiralities_Consistent>  (154) 
1

>  <s_lp_Variant>  (154) 
44:0-1

>  <s_i_glide_gridfile>  (154) 
pfpi4k_grid

>  <i_i_glide_lignum>  (154) 
21

>  <i_i_glide_rotatable_bonds>  (154) 
3

>  <r_i_docking_score>  (154) 
-5.03055

>  <r_i_glide_ligand_efficiency>  (154) 
-0.279475

>  <r_i_glide_ligand_efficiency_sa>  (154) 
-0.732432

>  <r_i_glide_ligand_efficiency_ln>  (154) 
-1.29308

>  <r_i_glide_gscore>  (154) 
-5.03055

>  <r_i_glide_lipo>  (154) 
-0.36097

>  <r_i_glide_hbond>  (154) 
-0.529014

>  <r_i_glide_metal>  (154) 
-0

>  <r_i_glide_rewards>  (154) 
-2.00732

>  <r_i_glide_evdw>  (154) 
-24.4036

>  <r_i_glide_ecoul>  (154) 
-9.27104

>  <r_i_glide_erotb>  (154) 
0.58688

>  <r_i_glide_esite>  (154) 
-0.109287

>  <r_i_glide_emodel>  (154) 
-46.0049

>  <r_i_glide_energy>  (154) 
-33.6746

>  <r_i_glide_einternal>  (154) 
0.531872

>  <r_i_glide_intrahb_reward>  (154) 
-0

>  <i_i_glide_confnum>  (154) 
4

>  <i_i_glide_posenum>  (154) 
2

>  <r_i_glide_eff_state_penalty>  (154) 
0

>  <ligand_id>  (154) 
44

>  <original_smiles>  (154) 
N=c1nc[nH]c(-n2ccc3cnc(CO)cc32)n1

>  <smiles>  (154) 
[H]OC([H])([H])c1c([H])c2c(c([H])c([H])n2-c2nc([H])nc(N([H])[H])n2)c([H])[n+]1[H]

$$$$
44:0:1
     RDKit          3D

 29 31  0  0  1  0  0  0  0  0999 V2000
    3.3885   -0.2789   -4.1267 N   0  0  0  0  0  0  0  0  0  0  0  0
    3.8565   -1.1982   -3.2291 C   0  0  0  0  0  0  0  0  0  0  0  0
    4.0771   -2.4150   -3.7161 N   0  0  0  0  0  0  0  0  0  0  0  0
    4.5877   -3.2314   -2.7971 C   0  0  0  0  0  0  0  0  0  0  0  0
    4.8981   -2.9368   -1.5356 N   0  0  0  0  0  0  0  0  0  0  0  0
    4.6048   -1.6854   -1.1828 C   0  0  0  0  0  0  0  0  0  0  0  0
    4.9284   -1.3068    0.1473 N   0  0  0  0  0  0  0  0  0  0  0  0
    6.1410   -1.6043    0.7676 C   0  0  0  0  0  0  0  0  0  0  0  0
    6.1516   -1.0564    2.0261 C   0  0  0  0  0  0  0  0  0  0  0  0
    4.8768   -0.4528    2.2442 C   0  0  0  0  0  0  0  0  0  0  0  0
    4.2685    0.2416    3.3224 C   0  0  0  0  0  0  0  0  0  0  0  0
    3.0215    0.7616    3.1938 N   0  0  0  0  0  0  0  0  0  0  0  0
    2.2851    0.6162    2.0701 C   0  0  0  0  0  0  0  0  0  0  0  0
    0.8951    1.2151    2.0230 C   0  0  0  0  0  0  0  0  0  0  0  0
    0.8674    2.5428    2.4925 O   0  0  0  0  0  0  0  0  0  0  0  0
    2.8250   -0.0900    0.9825 C   0  0  0  0  0  0  0  0  0  0  0  0
    4.1235   -0.6085    1.0495 C   0  0  0  0  0  0  0  0  0  0  0  0
    4.1065   -0.7511   -2.0011 N   0  0  0  0  0  0  0  0  0  0  0  0
    3.0627   -0.6017   -5.0308 H   0  0  0  0  0  0  0  0  0  0  0  0
    4.8117   -4.2398   -3.1265 H   0  0  0  0  0  0  0  0  0  0  0  0
    6.9041   -2.1643    0.2495 H   0  0  0  0  0  0  0  0  0  0  0  0
    6.9554   -1.0251    2.7335 H   0  0  0  0  0  0  0  0  0  0  0  0
    4.7734    0.4457    4.2592 H   0  0  0  0  0  0  0  0  0  0  0  0
    0.5018    1.1837    1.0089 H   0  0  0  0  0  0  0  0  0  0  0  0
    0.2366    0.5978    2.6302 H   0  0  0  0  0  0  0  0  0  0  0  0
    0.6149    3.1457    1.7860 H   0  0  0  0  0  0  0  0  0  0  0  0
    2.2502   -0.2187    0.0830 H   0  0  0  0  0  0  0  0  0  0  0  0
    3.0818    0.6227   -3.7673 H   0  0  0  0  0  0  0  0  0  0  0  0
    2.6223    1.3115    3.9578 H   0  0  0  0  0  0  0  0  0  0  0  0
  1  2  1  0
  1 19  1  0
  1 28  1  0
  2 18  2  0
  2  3  1  0
  3  4  2  0
  4  5  1  0
  4 20  1  0
  5  6  2  0
  6  7  1  0
  6 18  1  0
  7 17  1  0
  7  8  1  0
  8  9  2  0
  8 21  1  0
  9 10  1  0
  9 22  1  0
 10 17  2  0
 10 11  1  0
 11 12  2  0
 11 23  1  0
 12 13  1  0
 12 29  1  0
 13 14  1  0
 13 16  2  0
 14 15  1  0
 14 24  1  0
 14 25  1  0
 15 26  1  0
 16 17  1  0
 16 27  1  0
M  CHG  1  12   1
M  END
>  <i_m_ct_stereo_status>  (155) 
1

>  <s_m_source_file>  (155) 
/var/tmp/pbs.5076255.sched01/tmp7w47f283/46ruht8ay8.sdf

>  <i_m_source_file_index>  (155) 
21

>  <i_lp_mmshare_version>  (155) 
48012

>  <i_f3d_flags>  (155) 
0

>  <s_epik_input>  (155) 
W0hdL049YzEvbltjSF1bbkhdYyhuMSktbihbY0hdW2NIXTIpYyhjMjMpW2NIXWMobltjSF0zKVtDSDJdW09IXQ==

>  <s_epik_cmdline>  (155) 
J2VwaWtfcHl0aG9uJywgJy1waHQnLCAnMi4wJywgJy1waCcsICc3LjAnLCAnLXRuJywgJzgnLCAnLW1hJywgJzIwMCcsICctaW1hZScsICc8aW5maWxlLm1hZT4nLCAnLW9tYWUnLCAnPG91dGZpbGUubWFlPic=

>  <r_lp_tautomer_probability>  (155) 
1

>  <r_epik_Ionization_Penalty>  (155) 
0.0422755

>  <r_epik_Ionization_Penalty_Charging>  (155) 
0.0420742

>  <r_epik_Ionization_Penalty_Neutral>  (155) 
0.000201354

>  <r_epik_State_Penalty>  (155) 
0.0355168

>  <r_epik_Charging_Adjusted_Penalty>  (155) 
0.077591

>  <i_epik_Tot_Q>  (155) 
1

>  <i_epik_Tot_abs_Q>  (155) 
1

>  <s_lp_Force_Field>  (155) 
OPLS3e

>  <r_lp_Energy>  (155) 
27.3566

>  <b_lp_Chiralities_Consistent>  (155) 
1

>  <s_lp_Variant>  (155) 
44:0-1

>  <s_i_glide_gridfile>  (155) 
pfpi4k_grid

>  <i_i_glide_lignum>  (155) 
21

>  <i_i_glide_rotatable_bonds>  (155) 
3

>  <r_i_docking_score>  (155) 
-4.88566

>  <r_i_glide_ligand_efficiency>  (155) 
-0.271426

>  <r_i_glide_ligand_efficiency_sa>  (155) 
-0.711336

>  <r_i_glide_ligand_efficiency_ln>  (155) 
-1.25583

>  <r_i_glide_gscore>  (155) 
-4.88566

>  <r_i_glide_lipo>  (155) 
-0.44226

>  <r_i_glide_hbond>  (155) 
-0.299374

>  <r_i_glide_metal>  (155) 
-0

>  <r_i_glide_rewards>  (155) 
-2.0035

>  <r_i_glide_evdw>  (155) 
-22.3721

>  <r_i_glide_ecoul>  (155) 
-10.4829

>  <r_i_glide_erotb>  (155) 
0.58688

>  <r_i_glide_esite>  (155) 
-0.0363682

>  <r_i_glide_emodel>  (155) 
-43.9617

>  <r_i_glide_energy>  (155) 
-32.855

>  <r_i_glide_einternal>  (155) 
1.87056

>  <r_i_glide_intrahb_reward>  (155) 
-0

>  <i_i_glide_confnum>  (155) 
4

>  <i_i_glide_posenum>  (155) 
3

>  <r_i_glide_eff_state_penalty>  (155) 
0

>  <ligand_id>  (155) 
44

>  <original_smiles>  (155) 
N=c1nc[nH]c(-n2ccc3cnc(CO)cc32)n1

>  <smiles>  (155) 
[H]OC([H])([H])c1c([H])c2c(c([H])c([H])n2-c2nc([H])nc(N([H])[H])n2)c([H])[n+]1[H]

$$$$
44:0:2
     RDKit          3D

 29 31  0  0  1  0  0  0  0  0999 V2000
    0.9190    0.5583    1.6949 N   0  0  0  0  0  0  0  0  0  0  0  0
    2.1896    0.3054    2.1288 C   0  0  0  0  0  0  0  0  0  0  0  0
    2.4982    0.7527    3.3397 N   0  0  0  0  0  0  0  0  0  0  0  0
    3.7445    0.4385    3.6800 C   0  0  0  0  0  0  0  0  0  0  0  0
    4.6351   -0.2543    2.9690 N   0  0  0  0  0  0  0  0  0  0  0  0
    4.1833   -0.6461    1.7695 C   0  0  0  0  0  0  0  0  0  0  0  0
    5.0717   -1.4088    0.9563 N   0  0  0  0  0  0  0  0  0  0  0  0
    6.2742   -1.9481    1.4042 C   0  0  0  0  0  0  0  0  0  0  0  0
    6.8976   -2.6440    0.4010 C   0  0  0  0  0  0  0  0  0  0  0  0
    6.0503   -2.5436   -0.7444 C   0  0  0  0  0  0  0  0  0  0  0  0
    6.1163   -3.0361   -2.0730 C   0  0  0  0  0  0  0  0  0  0  0  0
    5.1308   -2.7566   -2.9542 N   0  0  0  0  0  0  0  0  0  0  0  0
    4.0551   -2.0053   -2.6492 C   0  0  0  0  0  0  0  0  0  0  0  0
    3.0169   -1.7439   -3.7133 C   0  0  0  0  0  0  0  0  0  0  0  0
    3.1367   -0.4482   -4.2613 O   0  0  0  0  0  0  0  0  0  0  0  0
    3.9203   -1.4810   -1.3543 C   0  0  0  0  0  0  0  0  0  0  0  0
    4.9137   -1.7534   -0.3886 C   0  0  0  0  0  0  0  0  0  0  0  0
    2.9603   -0.3858    1.2969 N   0  0  0  0  0  0  0  0  0  0  0  0
    0.2977    1.1251    2.2559 H   0  0  0  0  0  0  0  0  0  0  0  0
    4.0733    0.7710    4.6556 H   0  0  0  0  0  0  0  0  0  0  0  0
    6.6013   -1.7925    2.4221 H   0  0  0  0  0  0  0  0  0  0  0  0
    7.8367   -3.1746    0.4594 H   0  0  0  0  0  0  0  0  0  0  0  0
    6.9314   -3.6375   -2.4535 H   0  0  0  0  0  0  0  0  0  0  0  0
    3.0988   -2.4849   -4.5072 H   0  0  0  0  0  0  0  0  0  0  0  0
    2.0320   -1.8819   -3.2695 H   0  0  0  0  0  0  0  0  0  0  0  0
    2.7826    0.1852   -3.6482 H   0  0  0  0  0  0  0  0  0  0  0  0
    3.0420   -0.9047   -1.1063 H   0  0  0  0  0  0  0  0  0  0  0  0
    0.6415    0.2561    0.7611 H   0  0  0  0  0  0  0  0  0  0  0  0
    5.2063   -3.1361   -3.9003 H   0  0  0  0  0  0  0  0  0  0  0  0
  1  2  1  0
  1 19  1  0
  1 28  1  0
  2 18  2  0
  2  3  1  0
  3  4  2  0
  4  5  1  0
  4 20  1  0
  5  6  2  0
  6  7  1  0
  6 18  1  0
  7 17  1  0
  7  8  1  0
  8  9  2  0
  8 21  1  0
  9 10  1  0
  9 22  1  0
 10 17  2  0
 10 11  1  0
 11 12  2  0
 11 23  1  0
 12 13  1  0
 12 29  1  0
 13 14  1  0
 13 16  2  0
 14 15  1  0
 14 24  1  0
 14 25  1  0
 15 26  1  0
 16 17  1  0
 16 27  1  0
M  CHG  1  12   1
M  END
>  <i_m_ct_stereo_status>  (156) 
1

>  <s_m_source_file>  (156) 
/var/tmp/pbs.5076255.sched01/tmp7w47f283/46ruht8ay8.sdf

>  <i_m_source_file_index>  (156) 
21

>  <i_lp_mmshare_version>  (156) 
48012

>  <i_f3d_flags>  (156) 
0

>  <s_epik_input>  (156) 
W0hdL049YzEvbltjSF1bbkhdYyhuMSktbihbY0hdW2NIXTIpYyhjMjMpW2NIXWMobltjSF0zKVtDSDJdW09IXQ==

>  <s_epik_cmdline>  (156) 
J2VwaWtfcHl0aG9uJywgJy1waHQnLCAnMi4wJywgJy1waCcsICc3LjAnLCAnLXRuJywgJzgnLCAnLW1hJywgJzIwMCcsICctaW1hZScsICc8aW5maWxlLm1hZT4nLCAnLW9tYWUnLCAnPG91dGZpbGUubWFlPic=

>  <r_lp_tautomer_probability>  (156) 
1

>  <r_epik_Ionization_Penalty>  (156) 
0.0422755

>  <r_epik_Ionization_Penalty_Charging>  (156) 
0.0420742

>  <r_epik_Ionization_Penalty_Neutral>  (156) 
0.000201354

>  <r_epik_State_Penalty>  (156) 
0.0355168

>  <r_epik_Charging_Adjusted_Penalty>  (156) 
0.077591

>  <i_epik_Tot_Q>  (156) 
1

>  <i_epik_Tot_abs_Q>  (156) 
1

>  <s_lp_Force_Field>  (156) 
OPLS3e

>  <r_lp_Energy>  (156) 
27.3566

>  <b_lp_Chiralities_Consistent>  (156) 
1

>  <s_lp_Variant>  (156) 
44:0-1

>  <s_i_glide_gridfile>  (156) 
pfpi4k_grid

>  <i_i_glide_lignum>  (156) 
21

>  <i_i_glide_rotatable_bonds>  (156) 
3

>  <r_i_docking_score>  (156) 
-4.32936

>  <r_i_glide_ligand_efficiency>  (156) 
-0.24052

>  <r_i_glide_ligand_efficiency_sa>  (156) 
-0.630341

>  <r_i_glide_ligand_efficiency_ln>  (156) 
-1.11284

>  <r_i_glide_gscore>  (156) 
-4.32936

>  <r_i_glide_lipo>  (156) 
-0.597479

>  <r_i_glide_hbond>  (156) 
-0.196107

>  <r_i_glide_metal>  (156) 
-0

>  <r_i_glide_rewards>  (156) 
-1.93743

>  <r_i_glide_evdw>  (156) 
-25.6035

>  <r_i_glide_ecoul>  (156) 
-5.2618

>  <r_i_glide_erotb>  (156) 
0.58688

>  <r_i_glide_esite>  (156) 
-0.115785

>  <r_i_glide_emodel>  (156) 
-41.3541

>  <r_i_glide_energy>  (156) 
-30.8653

>  <r_i_glide_einternal>  (156) 
0.631588

>  <r_i_glide_intrahb_reward>  (156) 
-0

>  <i_i_glide_confnum>  (156) 
4

>  <i_i_glide_posenum>  (156) 
22

>  <r_i_glide_eff_state_penalty>  (156) 
0

>  <ligand_id>  (156) 
44

>  <original_smiles>  (156) 
N=c1nc[nH]c(-n2ccc3cnc(CO)cc32)n1

>  <smiles>  (156) 
[H]OC([H])([H])c1c([H])c2c(c([H])c([H])n2-c2nc([H])nc(N([H])[H])n2)c([H])[n+]1[H]

$$$$
44:1:0
     RDKit          3D

 28 30  0  0  1  0  0  0  0  0999 V2000
    1.1238   -2.1392    3.6713 N   0  0  0  0  0  0  0  0  0  0  0  0
    1.9081   -1.5565    2.7214 C   0  0  0  0  0  0  0  0  0  0  0  0
    2.0966   -0.2562    2.8692 N   0  0  0  0  0  0  0  0  0  0  0  0
    2.8673    0.2417    1.9074 C   0  0  0  0  0  0  0  0  0  0  0  0
    3.4377   -0.4146    0.8990 N   0  0  0  0  0  0  0  0  0  0  0  0
    3.1389   -1.7154    0.8705 C   0  0  0  0  0  0  0  0  0  0  0  0
    3.7249   -2.4969   -0.1522 N   0  0  0  0  0  0  0  0  0  0  0  0
    4.3259   -3.7355    0.0721 C   0  0  0  0  0  0  0  0  0  0  0  0
    4.7930   -4.2432   -1.1113 C   0  0  0  0  0  0  0  0  0  0  0  0
    4.4616   -3.2967   -2.1320 C   0  0  0  0  0  0  0  0  0  0  0  0
    4.6260   -3.2609   -3.5382 C   0  0  0  0  0  0  0  0  0  0  0  0
    4.2004   -2.2211   -4.2950 N   0  0  0  0  0  0  0  0  0  0  0  0
    3.6158   -1.1642   -3.7019 C   0  0  0  0  0  0  0  0  0  0  0  0
    3.1696    0.0131   -4.5629 C   0  0  0  0  0  0  0  0  0  0  0  0
    3.4110   -0.1566   -5.9281 O   0  0  0  0  0  0  0  0  0  0  0  0
    3.3917   -1.1205   -2.3226 C   0  0  0  0  0  0  0  0  0  0  0  0
    3.8092   -2.1952   -1.5192 C   0  0  0  0  0  0  0  0  0  0  0  0
    2.3909   -2.3606    1.7789 N   0  0  0  0  0  0  0  0  0  0  0  0
    0.7596   -1.5725    4.4231 H   0  0  0  0  0  0  0  0  0  0  0  0
    3.0780    1.2946    1.9690 H   0  0  0  0  0  0  0  0  0  0  0  0
    4.3707   -4.1604    1.0663 H   0  0  0  0  0  0  0  0  0  0  0  0
    5.2833   -5.1846   -1.2835 H   0  0  0  0  0  0  0  0  0  0  0  0
    5.1149   -4.0611   -4.0704 H   0  0  0  0  0  0  0  0  0  0  0  0
    2.1015    0.1764   -4.4358 H   0  0  0  0  0  0  0  0  0  0  0  0
    3.6761    0.9192   -4.2414 H   0  0  0  0  0  0  0  0  0  0  0  0
    2.8343   -0.8560   -6.2110 H   0  0  0  0  0  0  0  0  0  0  0  0
    2.8153   -0.3110   -1.9347 H   0  0  0  0  0  0  0  0  0  0  0  0
    0.9549   -3.1331    3.6327 H   0  0  0  0  0  0  0  0  0  0  0  0
  1  2  1  0
  1 19  1  0
  1 28  1  0
  2 18  2  0
  2  3  1  0
  3  4  2  0
  4  5  1  0
  4 20  1  0
  5  6  2  0
  6  7  1  0
  6 18  1  0
  7 17  1  0
  7  8  1  0
  8  9  2  0
  8 21  1  0
  9 10  1  0
  9 22  1  0
 10 17  2  0
 10 11  1  0
 11 12  2  0
 11 23  1  0
 12 13  1  0
 13 14  1  0
 13 16  2  0
 14 15  1  0
 14 24  1  0
 14 25  1  0
 15 26  1  0
 16 17  1  0
 16 27  1  0
M  END
>  <i_m_ct_stereo_status>  (157) 
1

>  <s_m_source_file>  (157) 
/var/tmp/pbs.5076255.sched01/tmp7w47f283/46ruht8ay8.sdf

>  <i_m_source_file_index>  (157) 
22

>  <i_lp_mmshare_version>  (157) 
48012

>  <i_f3d_flags>  (157) 
0

>  <s_epik_input>  (157) 
W0hdL049YzEvbltjSF1bbkhdYyhuMSktbihbY0hdW2NIXTIpYyhjMjMpW2NIXWMobltjSF0zKVtDSDJdW09IXQ==

>  <s_epik_cmdline>  (157) 
J2VwaWtfcHl0aG9uJywgJy1waHQnLCAnMi4wJywgJy1waCcsICc3LjAnLCAnLXRuJywgJzgnLCAnLW1hJywgJzIwMCcsICctaW1hZScsICc8aW5maWxlLm1hZT4nLCAnLW9tYWUnLCAnPG91dGZpbGUubWFlPic=

>  <r_lp_tautomer_probability>  (157) 
1

>  <r_epik_Ionization_Penalty>  (157) 
1.58798

>  <r_epik_Ionization_Penalty_Charging>  (157) 
0

>  <r_epik_Ionization_Penalty_Neutral>  (157) 
1.58798

>  <r_epik_State_Penalty>  (157) 
1.68511

>  <r_epik_Charging_Adjusted_Penalty>  (157) 
1.68511

>  <i_epik_Tot_Q>  (157) 
0

>  <i_epik_Tot_abs_Q>  (157) 
0

>  <s_lp_Force_Field>  (157) 
OPLS3e

>  <r_lp_Energy>  (157) 
22.6075

>  <b_lp_Chiralities_Consistent>  (157) 
1

>  <s_lp_Variant>  (157) 
44:0-2

>  <s_i_glide_gridfile>  (157) 
pfpi4k_grid

>  <i_i_glide_lignum>  (157) 
22

>  <i_i_glide_rotatable_bonds>  (157) 
3

>  <r_i_docking_score>  (157) 
-4.96146

>  <r_i_glide_ligand_efficiency>  (157) 
-0.275637

>  <r_i_glide_ligand_efficiency_sa>  (157) 
-0.722372

>  <r_i_glide_ligand_efficiency_ln>  (157) 
-1.27532

>  <r_i_glide_gscore>  (157) 
-4.96146

>  <r_i_glide_lipo>  (157) 
-0.625778

>  <r_i_glide_hbond>  (157) 
-0.630086

>  <r_i_glide_metal>  (157) 
-0

>  <r_i_glide_rewards>  (157) 
-1.77111

>  <r_i_glide_evdw>  (157) 
-21.059

>  <r_i_glide_ecoul>  (157) 
-9.15455

>  <r_i_glide_erotb>  (157) 
0.591057

>  <r_i_glide_esite>  (157) 
-0.0994134

>  <r_i_glide_emodel>  (157) 
-40.1598

>  <r_i_glide_energy>  (157) 
-30.2136

>  <r_i_glide_einternal>  (157) 
2.16957

>  <r_i_glide_intrahb_reward>  (157) 
-0

>  <i_i_glide_confnum>  (157) 
2

>  <i_i_glide_posenum>  (157) 
16

>  <r_i_glide_eff_state_penalty>  (157) 
0

>  <ligand_id>  (157) 
44

>  <original_smiles>  (157) 
N=c1nc[nH]c(-n2ccc3cnc(CO)cc32)n1

>  <smiles>  (157) 
[H]OC([H])([H])c1nc([H])c2c([H])c([H])n(-c3nc([H])nc(N([H])[H])n3)c2c1[H]

$$$$
44:1:1
     RDKit          3D

 28 30  0  0  1  0  0  0  0  0999 V2000
    1.3385    0.7171    1.8103 N   0  0  0  0  0  0  0  0  0  0  0  0
    2.6109    0.4019    2.1906 C   0  0  0  0  0  0  0  0  0  0  0  0
    2.9475    0.6984    3.4370 N   0  0  0  0  0  0  0  0  0  0  0  0
    4.1999    0.3387    3.7096 C   0  0  0  0  0  0  0  0  0  0  0  0
    5.0706   -0.2682    2.8984 N   0  0  0  0  0  0  0  0  0  0  0  0
    4.5883   -0.5279    1.6749 C   0  0  0  0  0  0  0  0  0  0  0  0
    5.4529   -1.2034    0.7606 N   0  0  0  0  0  0  0  0  0  0  0  0
    6.8158   -1.4228    0.9667 C   0  0  0  0  0  0  0  0  0  0  0  0
    7.3712   -2.1145   -0.0760 C   0  0  0  0  0  0  0  0  0  0  0  0
    6.3093   -2.3506   -1.0027 C   0  0  0  0  0  0  0  0  0  0  0  0
    6.2228   -3.0030   -2.2557 C   0  0  0  0  0  0  0  0  0  0  0  0
    5.0693   -3.0504   -2.9569 N   0  0  0  0  0  0  0  0  0  0  0  0
    3.9521   -2.4988   -2.4419 C   0  0  0  0  0  0  0  0  0  0  0  0
    2.6795   -2.6214   -3.2503 C   0  0  0  0  0  0  0  0  0  0  0  0
    2.6135   -3.8389   -3.9321 O   0  0  0  0  0  0  0  0  0  0  0  0
    3.9284   -1.8489   -1.2086 C   0  0  0  0  0  0  0  0  0  0  0  0
    5.1198   -1.7669   -0.4731 C   0  0  0  0  0  0  0  0  0  0  0  0
    3.3573   -0.1954    1.2672 N   0  0  0  0  0  0  0  0  0  0  0  0
    0.7231    1.2007    2.4483 H   0  0  0  0  0  0  0  0  0  0  0  0
    4.5546    0.5613    4.7017 H   0  0  0  0  0  0  0  0  0  0  0  0
    7.2960   -1.0525    1.8574 H   0  0  0  0  0  0  0  0  0  0  0  0
    8.3996   -2.4242   -0.1881 H   0  0  0  0  0  0  0  0  0  0  0  0
    7.0873   -3.4594   -2.7167 H   0  0  0  0  0  0  0  0  0  0  0  0
    1.8096   -2.5408   -2.5996 H   0  0  0  0  0  0  0  0  0  0  0  0
    2.6313   -1.8033   -3.9665 H   0  0  0  0  0  0  0  0  0  0  0  0
    2.6356   -4.5505   -3.2980 H   0  0  0  0  0  0  0  0  0  0  0  0
    3.0075   -1.4247   -0.8405 H   0  0  0  0  0  0  0  0  0  0  0  0
    1.0248    0.4870    0.8724 H   0  0  0  0  0  0  0  0  0  0  0  0
  1  2  1  0
  1 19  1  0
  1 28  1  0
  2 18  2  0
  2  3  1  0
  3  4  2  0
  4  5  1  0
  4 20  1  0
  5  6  2  0
  6  7  1  0
  6 18  1  0
  7 17  1  0
  7  8  1  0
  8  9  2  0
  8 21  1  0
  9 10  1  0
  9 22  1  0
 10 17  2  0
 10 11  1  0
 11 12  2  0
 11 23  1  0
 12 13  1  0
 13 14  1  0
 13 16  2  0
 14 15  1  0
 14 24  1  0
 14 25  1  0
 15 26  1  0
 16 17  1  0
 16 27  1  0
M  END
>  <i_m_ct_stereo_status>  (158) 
1

>  <s_m_source_file>  (158) 
/var/tmp/pbs.5076255.sched01/tmp7w47f283/46ruht8ay8.sdf

>  <i_m_source_file_index>  (158) 
22

>  <i_lp_mmshare_version>  (158) 
48012

>  <i_f3d_flags>  (158) 
0

>  <s_epik_input>  (158) 
W0hdL049YzEvbltjSF1bbkhdYyhuMSktbihbY0hdW2NIXTIpYyhjMjMpW2NIXWMobltjSF0zKVtDSDJdW09IXQ==

>  <s_epik_cmdline>  (158) 
J2VwaWtfcHl0aG9uJywgJy1waHQnLCAnMi4wJywgJy1waCcsICc3LjAnLCAnLXRuJywgJzgnLCAnLW1hJywgJzIwMCcsICctaW1hZScsICc8aW5maWxlLm1hZT4nLCAnLW9tYWUnLCAnPG91dGZpbGUubWFlPic=

>  <r_lp_tautomer_probability>  (158) 
1

>  <r_epik_Ionization_Penalty>  (158) 
1.58798

>  <r_epik_Ionization_Penalty_Charging>  (158) 
0

>  <r_epik_Ionization_Penalty_Neutral>  (158) 
1.58798

>  <r_epik_State_Penalty>  (158) 
1.68511

>  <r_epik_Charging_Adjusted_Penalty>  (158) 
1.68511

>  <i_epik_Tot_Q>  (158) 
0

>  <i_epik_Tot_abs_Q>  (158) 
0

>  <s_lp_Force_Field>  (158) 
OPLS3e

>  <r_lp_Energy>  (158) 
22.6075

>  <b_lp_Chiralities_Consistent>  (158) 
1

>  <s_lp_Variant>  (158) 
44:0-2

>  <s_i_glide_gridfile>  (158) 
pfpi4k_grid

>  <i_i_glide_lignum>  (158) 
22

>  <i_i_glide_rotatable_bonds>  (158) 
3

>  <r_i_docking_score>  (158) 
-4.80187

>  <r_i_glide_ligand_efficiency>  (158) 
-0.26677

>  <r_i_glide_ligand_efficiency_sa>  (158) 
-0.699136

>  <r_i_glide_ligand_efficiency_ln>  (158) 
-1.23429

>  <r_i_glide_gscore>  (158) 
-4.80187

>  <r_i_glide_lipo>  (158) 
-0.260417

>  <r_i_glide_hbond>  (158) 
-0.402722

>  <r_i_glide_metal>  (158) 
-0

>  <r_i_glide_rewards>  (158) 
-2.06165

>  <r_i_glide_evdw>  (158) 
-25.6164

>  <r_i_glide_ecoul>  (158) 
-8.82714

>  <r_i_glide_erotb>  (158) 
0.591057

>  <r_i_glide_esite>  (158) 
-0.0632446

>  <r_i_glide_emodel>  (158) 
-44.4266

>  <r_i_glide_energy>  (158) 
-34.4435

>  <r_i_glide_einternal>  (158) 
1.34998

>  <r_i_glide_intrahb_reward>  (158) 
-0

>  <i_i_glide_confnum>  (158) 
4

>  <i_i_glide_posenum>  (158) 
38

>  <r_i_glide_eff_state_penalty>  (158) 
0

>  <ligand_id>  (158) 
44

>  <original_smiles>  (158) 
N=c1nc[nH]c(-n2ccc3cnc(CO)cc32)n1

>  <smiles>  (158) 
[H]OC([H])([H])c1nc([H])c2c([H])c([H])n(-c3nc([H])nc(N([H])[H])n3)c2c1[H]

$$$$
44:1:2
     RDKit          3D

 28 30  0  0  1  0  0  0  0  0999 V2000
    2.9849    1.0161    2.8041 N   0  0  0  0  0  0  0  0  0  0  0  0
    2.7582   -0.3178    2.6276 C   0  0  0  0  0  0  0  0  0  0  0  0
    1.8911   -0.8658    3.4709 N   0  0  0  0  0  0  0  0  0  0  0  0
    1.7479   -2.1686    3.2559 C   0  0  0  0  0  0  0  0  0  0  0  0
    2.3547   -2.9132    2.3348 N   0  0  0  0  0  0  0  0  0  0  0  0
    3.1857   -2.2190    1.5482 C   0  0  0  0  0  0  0  0  0  0  0  0
    3.8637   -2.9523    0.5444 N   0  0  0  0  0  0  0  0  0  0  0  0
    4.4756   -4.1902    0.7412 C   0  0  0  0  0  0  0  0  0  0  0  0
    5.0183   -4.6312   -0.4379 C   0  0  0  0  0  0  0  0  0  0  0  0
    4.7414   -3.6329   -1.4218 C   0  0  0  0  0  0  0  0  0  0  0  0
    5.0149   -3.4976   -2.8072 C   0  0  0  0  0  0  0  0  0  0  0  0
    4.6091   -2.4183   -3.5180 N   0  0  0  0  0  0  0  0  0  0  0  0
    3.9255   -1.4334   -2.9038 C   0  0  0  0  0  0  0  0  0  0  0  0
    3.4996   -0.2489   -3.7526 C   0  0  0  0  0  0  0  0  0  0  0  0
    3.4127   -0.5238   -5.1269 O   0  0  0  0  0  0  0  0  0  0  0  0
    3.6181   -1.4683   -1.5389 C   0  0  0  0  0  0  0  0  0  0  0  0
    4.0200   -2.5834   -0.7903 C   0  0  0  0  0  0  0  0  0  0  0  0
    3.4503   -0.9102    1.6586 N   0  0  0  0  0  0  0  0  0  0  0  0
    2.4640    1.5240    3.5033 H   0  0  0  0  0  0  0  0  0  0  0  0
    1.0515   -2.6790    3.9030 H   0  0  0  0  0  0  0  0  0  0  0  0
    4.4786   -4.6615    1.7137 H   0  0  0  0  0  0  0  0  0  0  0  0
    5.5479   -5.5517   -0.6158 H   0  0  0  0  0  0  0  0  0  0  0  0
    5.5462   -4.2598   -3.3563 H   0  0  0  0  0  0  0  0  0  0  0  0
    2.5352    0.1251   -3.4134 H   0  0  0  0  0  0  0  0  0  0  0  0
    4.2154    0.5575   -3.6144 H   0  0  0  0  0  0  0  0  0  0  0  0
    2.6781   -1.1012   -5.2749 H   0  0  0  0  0  0  0  0  0  0  0  0
    3.0433   -0.6841   -1.0699 H   0  0  0  0  0  0  0  0  0  0  0  0
    3.6266    1.5035    2.1909 H   0  0  0  0  0  0  0  0  0  0  0  0
  1  2  1  0
  1 19  1  0
  1 28  1  0
  2 18  2  0
  2  3  1  0
  3  4  2  0
  4  5  1  0
  4 20  1  0
  5  6  2  0
  6  7  1  0
  6 18  1  0
  7 17  1  0
  7  8  1  0
  8  9  2  0
  8 21  1  0
  9 10  1  0
  9 22  1  0
 10 17  2  0
 10 11  1  0
 11 12  2  0
 11 23  1  0
 12 13  1  0
 13 14  1  0
 13 16  2  0
 14 15  1  0
 14 24  1  0
 14 25  1  0
 15 26  1  0
 16 17  1  0
 16 27  1  0
M  END
>  <i_m_ct_stereo_status>  (159) 
1

>  <s_m_source_file>  (159) 
/var/tmp/pbs.5076255.sched01/tmp7w47f283/46ruht8ay8.sdf

>  <i_m_source_file_index>  (159) 
22

>  <i_lp_mmshare_version>  (159) 
48012

>  <i_f3d_flags>  (159) 
0

>  <s_epik_input>  (159) 
W0hdL049YzEvbltjSF1bbkhdYyhuMSktbihbY0hdW2NIXTIpYyhjMjMpW2NIXWMobltjSF0zKVtDSDJdW09IXQ==

>  <s_epik_cmdline>  (159) 
J2VwaWtfcHl0aG9uJywgJy1waHQnLCAnMi4wJywgJy1waCcsICc3LjAnLCAnLXRuJywgJzgnLCAnLW1hJywgJzIwMCcsICctaW1hZScsICc8aW5maWxlLm1hZT4nLCAnLW9tYWUnLCAnPG91dGZpbGUubWFlPic=

>  <r_lp_tautomer_probability>  (159) 
1

>  <r_epik_Ionization_Penalty>  (159) 
1.58798

>  <r_epik_Ionization_Penalty_Charging>  (159) 
0

>  <r_epik_Ionization_Penalty_Neutral>  (159) 
1.58798

>  <r_epik_State_Penalty>  (159) 
1.68511

>  <r_epik_Charging_Adjusted_Penalty>  (159) 
1.68511

>  <i_epik_Tot_Q>  (159) 
0

>  <i_epik_Tot_abs_Q>  (159) 
0

>  <s_lp_Force_Field>  (159) 
OPLS3e

>  <r_lp_Energy>  (159) 
22.6075

>  <b_lp_Chiralities_Consistent>  (159) 
1

>  <s_lp_Variant>  (159) 
44:0-2

>  <s_i_glide_gridfile>  (159) 
pfpi4k_grid

>  <i_i_glide_lignum>  (159) 
22

>  <i_i_glide_rotatable_bonds>  (159) 
3

>  <r_i_docking_score>  (159) 
-4.52722

>  <r_i_glide_ligand_efficiency>  (159) 
-0.251512

>  <r_i_glide_ligand_efficiency_sa>  (159) 
-0.659148

>  <r_i_glide_ligand_efficiency_ln>  (159) 
-1.1637

>  <r_i_glide_gscore>  (159) 
-4.52722

>  <r_i_glide_lipo>  (159) 
-0.415751

>  <r_i_glide_hbond>  (159) 
-0.563983

>  <r_i_glide_metal>  (159) 
-0

>  <r_i_glide_rewards>  (159) 
-1.77355

>  <r_i_glide_evdw>  (159) 
-24.7845

>  <r_i_glide_ecoul>  (159) 
-7.31228

>  <r_i_glide_erotb>  (159) 
0.591057

>  <r_i_glide_esite>  (159) 
-0.028922

>  <r_i_glide_emodel>  (159) 
-41.3358

>  <r_i_glide_energy>  (159) 
-32.0968

>  <r_i_glide_einternal>  (159) 
1.80099

>  <r_i_glide_intrahb_reward>  (159) 
-0

>  <i_i_glide_confnum>  (159) 
4

>  <i_i_glide_posenum>  (159) 
37

>  <r_i_glide_eff_state_penalty>  (159) 
0

>  <ligand_id>  (159) 
44

>  <original_smiles>  (159) 
N=c1nc[nH]c(-n2ccc3cnc(CO)cc32)n1

>  <smiles>  (159) 
[H]OC([H])([H])c1nc([H])c2c([H])c([H])n(-c3nc([H])nc(N([H])[H])n3)c2c1[H]

$$$$
45:0:0
     RDKit          3D

 39 45  0  0  1  0  0  0  0  0999 V2000
    3.2457   -1.9107   -3.7225 C   0  0  0  0  0  0  0  0  0  0  0  0
    4.1853   -1.0784   -2.8621 C   0  0  0  0  0  0  0  0  0  0  0  0
    3.7801   -1.4313   -1.4167 C   0  0  2  0  0  0  0  0  0  0  0  0
    4.9950   -1.3341   -0.2565 C   0  0  2  0  0  0  0  0  0  0  0  0
    5.7903   -2.5319   -0.7265 C   0  0  0  0  0  0  0  0  0  0  0  0
    4.9991   -3.3214    0.2093 C   0  0  1  0  0  0  0  0  0  0  0  0
    3.8125   -2.3979    0.8523 C   0  0  2  0  0  0  0  0  0  0  0  0
    4.6171   -1.4410    1.4223 C   0  0  1  0  0  0  0  0  0  0  0  0
    5.1385   -2.3839    2.5971 C   0  0  1  0  0  0  0  0  0  0  0  0
    4.2153   -2.8048    3.7183 C   0  0  0  0  0  0  0  0  0  0  0  0
    4.6140   -3.9101    2.7616 C   0  0  1  0  0  0  0  0  0  0  0  0
    3.6775   -4.5109    1.5974 C   0  0  2  0  0  0  0  0  0  0  0  0
    4.1380   -4.4549    0.0727 C   0  0  1  0  0  0  0  0  0  0  0  0
    2.8011   -3.8768   -0.3968 C   0  0  1  0  0  0  0  0  0  0  0  0
    2.8396   -3.3974    1.0972 C   0  0  2  0  0  0  0  0  0  0  0  0
    2.9085   -2.7419   -1.5161 N   0  0  2  0  0  0  0  0  0  0  0  0
    3.0312   -3.1989   -2.9172 C   0  0  0  0  0  0  0  0  0  0  0  0
    3.6513   -2.1063   -4.7072 H   0  0  0  0  0  0  0  0  0  0  0  0
    2.2958   -1.3888   -3.8515 H   0  0  0  0  0  0  0  0  0  0  0  0
    5.2129   -1.3595   -3.0841 H   0  0  0  0  0  0  0  0  0  0  0  0
    4.0923   -0.0111   -3.0576 H   0  0  0  0  0  0  0  0  0  0  0  0
    3.0585   -0.6603   -1.1766 H   0  0  0  0  0  0  0  0  0  0  0  0
    5.5661   -0.4238   -0.4263 H   0  0  0  0  0  0  0  0  0  0  0  0
    5.7190   -2.8964   -1.7494 H   0  0  0  0  0  0  0  0  0  0  0  0
    6.8379   -2.4624   -0.4249 H   0  0  0  0  0  0  0  0  0  0  0  0
    5.8371   -3.7244    0.7919 H   0  0  0  0  0  0  0  0  0  0  0  0
    2.9875   -1.7085    0.6039 H   0  0  0  0  0  0  0  0  0  0  0  0
    4.0665   -0.5781    1.8255 H   0  0  0  0  0  0  0  0  0  0  0  0
    6.1740   -2.1881    2.8758 H   0  0  0  0  0  0  0  0  0  0  0  0
    4.6757   -2.8289    4.7109 H   0  0  0  0  0  0  0  0  0  0  0  0
    3.1906   -2.4469    3.6927 H   0  0  0  0  0  0  0  0  0  0  0  0
    5.3452   -4.6158    3.1571 H   0  0  0  0  0  0  0  0  0  0  0  0
    3.0941   -5.3943    1.8394 H   0  0  0  0  0  0  0  0  0  0  0  0
    4.5061   -5.3763   -0.3840 H   0  0  0  0  0  0  0  0  0  0  0  0
    2.0490   -4.6501   -0.5723 H   0  0  0  0  0  0  0  0  0  0  0  0
    1.9130   -3.1554    1.6179 H   0  0  0  0  0  0  0  0  0  0  0  0
    2.1449   -3.7479   -3.2445 H   0  0  0  0  0  0  0  0  0  0  0  0
    3.9010   -3.8471   -3.0241 H   0  0  0  0  0  0  0  0  0  0  0  0
    1.9957   -2.3146   -1.4664 H   0  0  0  0  0  0  0  0  0  0  0  0
  1 17  1  0
  1  2  1  0
  1 18  1  0
  1 19  1  0
  2  3  1  0
  2 20  1  0
  2 21  1  0
  3 16  1  0
  3  4  1  0
  3 22  1  1
  4  8  1  0
  4  5  1  0
  4 23  1  1
  5  6  1  0
  5 24  1  0
  5 25  1  0
  6 13  1  0
  6  7  1  0
  6 26  1  1
  7 15  1  0
  7  8  1  0
  7 27  1  6
  8  9  1  0
  8 28  1  1
  9 11  1  0
  9 10  1  0
  9 29  1  1
 10 11  1  0
 10 30  1  0
 10 31  1  0
 11 12  1  0
 11 32  1  1
 12 15  1  0
 12 13  1  0
 12 33  1  1
 13 14  1  0
 13 34  1  6
 14 15  1  0
 14 16  1  0
 14 35  1  6
 15 36  1  1
 16 17  1  0
 16 39  1  6
 17 37  1  0
 17 38  1  0
M  CHG  1  16   1
M  END
>  <i_m_ct_stereo_status>  (160) 
1

>  <s_m_source_file>  (160) 
/var/tmp/pbs.5076255.sched01/tmp7w47f283/46ruht8ay8.sdf

>  <i_m_source_file_index>  (160) 
23

>  <i_lp_mmshare_version>  (160) 
48012

>  <i_f3d_flags>  (160) 
0

>  <s_epik_input>  (160) 
W0NIMl0xW0NIMl1bQ0gyXU4yW0NAQEhdM1tDQEhdNFtDQEhdKFtDQEhdNVtDQEBIXTZbQ0gyXTUpW0NAQEhdM1tDQEBIXShbQ0gyXTcpW0NIXTRbQ0BASF02W0NAQEhdN1tDQEBIXTEy

>  <s_epik_cmdline>  (160) 
J2VwaWtfcHl0aG9uJywgJy1waHQnLCAnMi4wJywgJy1waCcsICc3LjAnLCAnLXRuJywgJzgnLCAnLW1hJywgJzIwMCcsICctaW1hZScsICc8aW5maWxlLm1hZT4nLCAnLW9tYWUnLCAnPG91dGZpbGUubWFlPic=

>  <r_lp_tautomer_probability>  (160) 
1

>  <r_epik_Ionization_Penalty>  (160) 
7.98628e-05

>  <r_epik_Ionization_Penalty_Charging>  (160) 
7.98628e-05

>  <r_epik_Ionization_Penalty_Neutral>  (160) 
0

>  <r_epik_State_Penalty>  (160) 
-0

>  <r_epik_Charging_Adjusted_Penalty>  (160) 
7.98628e-05

>  <i_epik_Tot_Q>  (160) 
1

>  <i_epik_Tot_abs_Q>  (160) 
1

>  <s_lp_Force_Field>  (160) 
OPLS3e

>  <r_lp_Energy>  (160) 
282.408

>  <b_lp_Chiralities_Consistent>  (160) 
1

>  <s_lp_Variant>  (160) 
45:0-1

>  <s_i_glide_gridfile>  (160) 
pfpi4k_grid

>  <i_i_glide_lignum>  (160) 
23

>  <i_i_glide_rotatable_bonds>  (160) 
0

>  <r_i_docking_score>  (160) 
-4.18179

>  <r_i_glide_ligand_efficiency>  (160) 
-0.245987

>  <r_i_glide_ligand_efficiency_sa>  (160) 
-0.632503

>  <r_i_glide_ligand_efficiency_ln>  (160) 
-1.09094

>  <r_i_glide_gscore>  (160) 
-4.18179

>  <r_i_glide_lipo>  (160) 
-0.377477

>  <r_i_glide_hbond>  (160) 
-0.2

>  <r_i_glide_metal>  (160) 
-0

>  <r_i_glide_rewards>  (160) 
-1.85214

>  <r_i_glide_evdw>  (160) 
-20.1052

>  <r_i_glide_ecoul>  (160) 
-4.76128

>  <r_i_glide_erotb>  (160) 
0

>  <r_i_glide_esite>  (160) 
-0.0327187

>  <r_i_glide_emodel>  (160) 
-32.3761

>  <r_i_glide_energy>  (160) 
-24.8665

>  <r_i_glide_einternal>  (160) 
0

>  <r_i_glide_intrahb_reward>  (160) 
-0

>  <i_i_glide_confnum>  (160) 
1

>  <i_i_glide_posenum>  (160) 
2

>  <r_i_glide_eff_state_penalty>  (160) 
0

>  <ligand_id>  (160) 
45

>  <original_smiles>  (160) 
C1CC2C3CC4C5C3C3CC3C3C4C(C53)N2C1

>  <smiles>  (160) 
[H]C1([H])C2([H])C1([H])C1([H])C3([H])C4([H])C([H])([H])C5([H])C2([H])C4([H])C1([H])C3([H])[N+]1([H])C([H])([H])C([H])([H])C([H])([H])C51[H]

$$$$
45:0:1
     RDKit          3D

 39 45  0  0  1  0  0  0  0  0999 V2000
    1.1833   -0.2200    3.7000 C   0  0  0  0  0  0  0  0  0  0  0  0
    1.2359   -1.7261    3.4475 C   0  0  0  0  0  0  0  0  0  0  0  0
    1.9087   -1.8378    2.0619 C   0  0  2  0  0  0  0  0  0  0  0  0
    2.7884   -3.2481    1.7789 C   0  0  2  0  0  0  0  0  0  0  0  0
    3.9311   -2.9338    2.7208 C   0  0  0  0  0  0  0  0  0  0  0  0
    4.6118   -2.3194    1.5900 C   0  0  1  0  0  0  0  0  0  0  0  0
    3.6108   -2.2745    0.3129 C   0  0  2  0  0  0  0  0  0  0  0  0
    3.3717   -3.6190    0.1935 C   0  0  1  0  0  0  0  0  0  0  0  0
    4.8268   -3.9505   -0.3855 C   0  0  1  0  0  0  0  0  0  0  0  0
    5.2034   -3.5170   -1.7932 C   0  0  0  0  0  0  0  0  0  0  0  0
    5.9151   -2.7799   -0.6728 C   0  0  1  0  0  0  0  0  0  0  0  0
    5.5528   -1.2824   -0.1836 C   0  0  2  0  0  0  0  0  0  0  0  0
    5.1139   -1.0052    1.3322 C   0  0  1  0  0  0  0  0  0  0  0  0
    3.8871   -0.1878    0.9061 C   0  0  1  0  0  0  0  0  0  0  0  0
    4.0847   -1.1118   -0.3487 C   0  0  2  0  0  0  0  0  0  0  0  0
    2.5700   -0.4356    1.7649 N   0  0  2  0  0  0  0  0  0  0  0  0
    2.4589    0.3241    3.0277 C   0  0  0  0  0  0  0  0  0  0  0  0
    1.1251    0.0166    4.7681 H   0  0  0  0  0  0  0  0  0  0  0  0
    0.2925    0.1989    3.2172 H   0  0  0  0  0  0  0  0  0  0  0  0
    1.8074   -2.2124    4.2408 H   0  0  0  0  0  0  0  0  0  0  0  0
    0.2423   -2.1828    3.4562 H   0  0  0  0  0  0  0  0  0  0  0  0
    1.0554   -1.8552    1.3821 H   0  0  0  0  0  0  0  0  0  0  0  0
    2.2251   -4.1014    2.1593 H   0  0  0  0  0  0  0  0  0  0  0  0
    3.7978   -2.2547    3.5626 H   0  0  0  0  0  0  0  0  0  0  0  0
    4.4283   -3.8471    3.0597 H   0  0  0  0  0  0  0  0  0  0  0  0
    5.5197   -2.9290    1.6218 H   0  0  0  0  0  0  0  0  0  0  0  0
    2.6094   -1.9663   -0.0118 H   0  0  0  0  0  0  0  0  0  0  0  0
    2.5925   -3.8868   -0.5282 H   0  0  0  0  0  0  0  0  0  0  0  0
    5.2139   -4.9227   -0.0769 H   0  0  0  0  0  0  0  0  0  0  0  0
    5.7920   -4.2373   -2.3607 H   0  0  0  0  0  0  0  0  0  0  0  0
    4.4534   -2.9816   -2.3749 H   0  0  0  0  0  0  0  0  0  0  0  0
    6.9550   -3.0607   -0.5176 H   0  0  0  0  0  0  0  0  0  0  0  0
    6.1195   -0.4684   -0.6336 H   0  0  0  0  0  0  0  0  0  0  0  0
    5.8502   -0.5577    2.0013 H   0  0  0  0  0  0  0  0  0  0  0  0
    4.1220    0.8573    0.7022 H   0  0  0  0  0  0  0  0  0  0  0  0
    3.6912   -0.8103   -1.3237 H   0  0  0  0  0  0  0  0  0  0  0  0
    2.4028    1.4031    2.8646 H   0  0  0  0  0  0  0  0  0  0  0  0
    3.3176    0.1141    3.6741 H   0  0  0  0  0  0  0  0  0  0  0  0
    1.8606   -0.0235    1.1725 H   0  0  0  0  0  0  0  0  0  0  0  0
  1 17  1  0
  1  2  1  0
  1 18  1  0
  1 19  1  0
  2  3  1  0
  2 20  1  0
  2 21  1  0
  3 16  1  0
  3  4  1  0
  3 22  1  6
  4  8  1  0
  4  5  1  0
  4 23  1  1
  5  6  1  0
  5 24  1  0
  5 25  1  0
  6 13  1  0
  6  7  1  0
  6 26  1  6
  7 15  1  0
  7  8  1  0
  7 27  1  1
  8  9  1  0
  8 28  1  6
  9 11  1  0
  9 10  1  0
  9 29  1  6
 10 11  1  0
 10 30  1  0
 10 31  1  0
 11 12  1  0
 11 32  1  6
 12 15  1  0
 12 13  1  0
 12 33  1  6
 13 14  1  0
 13 34  1  1
 14 15  1  0
 14 16  1  0
 14 35  1  6
 15 36  1  6
 16 17  1  0
 16 39  1  6
 17 37  1  0
 17 38  1  0
M  CHG  1  16   1
M  END
>  <i_m_ct_stereo_status>  (161) 
1

>  <s_m_source_file>  (161) 
/var/tmp/pbs.5076255.sched01/tmp7w47f283/46ruht8ay8.sdf

>  <i_m_source_file_index>  (161) 
23

>  <i_lp_mmshare_version>  (161) 
48012

>  <i_f3d_flags>  (161) 
0

>  <s_epik_input>  (161) 
W0NIMl0xW0NIMl1bQ0gyXU4yW0NAQEhdM1tDQEhdNFtDQEhdKFtDQEhdNVtDQEBIXTZbQ0gyXTUpW0NAQEhdM1tDQEBIXShbQ0gyXTcpW0NIXTRbQ0BASF02W0NAQEhdN1tDQEBIXTEy

>  <s_epik_cmdline>  (161) 
J2VwaWtfcHl0aG9uJywgJy1waHQnLCAnMi4wJywgJy1waCcsICc3LjAnLCAnLXRuJywgJzgnLCAnLW1hJywgJzIwMCcsICctaW1hZScsICc8aW5maWxlLm1hZT4nLCAnLW9tYWUnLCAnPG91dGZpbGUubWFlPic=

>  <r_lp_tautomer_probability>  (161) 
1

>  <r_epik_Ionization_Penalty>  (161) 
7.98628e-05

>  <r_epik_Ionization_Penalty_Charging>  (161) 
7.98628e-05

>  <r_epik_Ionization_Penalty_Neutral>  (161) 
0

>  <r_epik_State_Penalty>  (161) 
-0

>  <r_epik_Charging_Adjusted_Penalty>  (161) 
7.98628e-05

>  <i_epik_Tot_Q>  (161) 
1

>  <i_epik_Tot_abs_Q>  (161) 
1

>  <s_lp_Force_Field>  (161) 
OPLS3e

>  <r_lp_Energy>  (161) 
282.408

>  <b_lp_Chiralities_Consistent>  (161) 
1

>  <s_lp_Variant>  (161) 
45:0-1

>  <s_i_glide_gridfile>  (161) 
pfpi4k_grid

>  <i_i_glide_lignum>  (161) 
23

>  <i_i_glide_rotatable_bonds>  (161) 
0

>  <r_i_docking_score>  (161) 
-3.80292

>  <r_i_glide_ligand_efficiency>  (161) 
-0.223701

>  <r_i_glide_ligand_efficiency_sa>  (161) 
-0.575199

>  <r_i_glide_ligand_efficiency_ln>  (161) 
-0.992097

>  <r_i_glide_gscore>  (161) 
-3.80292

>  <r_i_glide_lipo>  (161) 
-0.3154

>  <r_i_glide_hbond>  (161) 
0

>  <r_i_glide_metal>  (161) 
-0

>  <r_i_glide_rewards>  (161) 
-1.85214

>  <r_i_glide_evdw>  (161) 
-18.336

>  <r_i_glide_ecoul>  (161) 
-4.45047

>  <r_i_glide_erotb>  (161) 
0

>  <r_i_glide_esite>  (161) 
-0.05101

>  <r_i_glide_emodel>  (161) 
-29.6425

>  <r_i_glide_energy>  (161) 
-22.7864

>  <r_i_glide_einternal>  (161) 
0

>  <r_i_glide_intrahb_reward>  (161) 
-0

>  <i_i_glide_confnum>  (161) 
2

>  <i_i_glide_posenum>  (161) 
36

>  <r_i_glide_eff_state_penalty>  (161) 
0

>  <ligand_id>  (161) 
45

>  <original_smiles>  (161) 
C1CC2C3CC4C5C3C3CC3C3C4C(C53)N2C1

>  <smiles>  (161) 
[H]C1([H])C2([H])C1([H])C1([H])C3([H])C4([H])C([H])([H])C5([H])C2([H])C4([H])C1([H])C3([H])[N+]1([H])C([H])([H])C([H])([H])C([H])([H])C51[H]

$$$$
45:0:2
     RDKit          3D

 39 45  0  0  1  0  0  0  0  0999 V2000
    2.3420   -0.8669    3.9733 C   0  0  0  0  0  0  0  0  0  0  0  0
    2.4024   -2.3422    3.5786 C   0  0  0  0  0  0  0  0  0  0  0  0
    2.6167   -2.3029    2.0495 C   0  0  2  0  0  0  0  0  0  0  0  0
    3.4603   -3.6030    1.3876 C   0  0  2  0  0  0  0  0  0  0  0  0
    4.8130   -3.2533    1.9666 C   0  0  0  0  0  0  0  0  0  0  0  0
    5.0645   -2.5077    0.7419 C   0  0  1  0  0  0  0  0  0  0  0  0
    3.7084   -2.4611   -0.1632 C   0  0  2  0  0  0  0  0  0  0  0  0
    3.5490   -3.8116   -0.3265 C   0  0  1  0  0  0  0  0  0  0  0  0
    4.7721   -3.9722   -1.3425 C   0  0  1  0  0  0  0  0  0  0  0  0
    4.6698   -3.4220   -2.7564 C   0  0  0  0  0  0  0  0  0  0  0  0
    5.6411   -2.6968   -1.8383 C   0  0  1  0  0  0  0  0  0  0  0  0
    5.3522   -1.2784   -1.1293 C   0  0  2  0  0  0  0  0  0  0  0  0
    5.3892   -1.1447    0.4667 C   0  0  1  0  0  0  0  0  0  0  0  0
    4.0443   -0.4115    0.5131 C   0  0  1  0  0  0  0  0  0  0  0  0
    3.8996   -1.2239   -0.8263 C   0  0  2  0  0  0  0  0  0  0  0  0
    3.0748   -0.8301    1.7008 N   0  0  2  0  0  0  0  0  0  0  0  0
    3.3118   -0.1713    3.0004 C   0  0  0  0  0  0  0  0  0  0  0  0
    2.6021   -0.7105    5.0234 H   0  0  0  0  0  0  0  0  0  0  0  0
    1.3219   -0.4938    3.8240 H   0  0  0  0  0  0  0  0  0  0  0  0
    3.2222   -2.8289    4.1094 H   0  0  0  0  0  0  0  0  0  0  0  0
    1.4918   -2.8819    3.8483 H   0  0  0  0  0  0  0  0  0  0  0  0
    1.5975   -2.3644    1.6626 H   0  0  0  0  0  0  0  0  0  0  0  0
    3.0980   -4.5269    1.8399 H   0  0  0  0  0  0  0  0  0  0  0  0
    4.9042   -2.6442    2.8649 H   0  0  0  0  0  0  0  0  0  0  0  0
    5.4494   -4.1373    2.0537 H   0  0  0  0  0  0  0  0  0  0  0  0
    5.9755   -3.0357    0.4427 H   0  0  0  0  0  0  0  0  0  0  0  0
    2.6297   -2.2323   -0.1374 H   0  0  0  0  0  0  0  0  0  0  0  0
    2.6058   -4.1040   -0.8006 H   0  0  0  0  0  0  0  0  0  0  0  0
    5.2935   -4.9254   -1.2519 H   0  0  0  0  0  0  0  0  0  0  0  0
    5.0998   -4.0570   -3.5305 H   0  0  0  0  0  0  0  0  0  0  0  0
    3.7450   -2.9184   -3.0360 H   0  0  0  0  0  0  0  0  0  0  0  0
    6.6944   -2.8963   -2.0384 H   0  0  0  0  0  0  0  0  0  0  0  0
    5.6885   -0.3897   -1.6613 H   0  0  0  0  0  0  0  0  0  0  0  0
    6.2650   -0.6771    0.9186 H   0  0  0  0  0  0  0  0  0  0  0  0
    4.1597    0.6622    0.3713 H   0  0  0  0  0  0  0  0  0  0  0  0
    3.2060   -0.8931   -1.6028 H   0  0  0  0  0  0  0  0  0  0  0  0
    3.1396    0.9069    2.9589 H   0  0  0  0  0  0  0  0  0  0  0  0
    4.3389   -0.3468    3.3344 H   0  0  0  0  0  0  0  0  0  0  0  0
    2.1982   -0.4292    1.3920 H   0  0  0  0  0  0  0  0  0  0  0  0
  1 17  1  0
  1  2  1  0
  1 18  1  0
  1 19  1  0
  2  3  1  0
  2 20  1  0
  2 21  1  0
  3 16  1  0
  3  4  1  0
  3 22  1  6
  4  8  1  0
  4  5  1  0
  4 23  1  1
  5  6  1  0
  5 24  1  0
  5 25  1  0
  6 13  1  0
  6  7  1  0
  6 26  1  6
  7 15  1  0
  7  8  1  0
  7 27  1  1
  8  9  1  0
  8 28  1  6
  9 11  1  0
  9 10  1  0
  9 29  1  6
 10 11  1  0
 10 30  1  0
 10 31  1  0
 11 12  1  0
 11 32  1  6
 12 15  1  0
 12 13  1  0
 12 33  1  6
 13 14  1  0
 13 34  1  6
 14 15  1  0
 14 16  1  0
 14 35  1  6
 15 36  1  6
 16 17  1  0
 16 39  1  6
 17 37  1  0
 17 38  1  0
M  CHG  1  16   1
M  END
>  <i_m_ct_stereo_status>  (162) 
1

>  <s_m_source_file>  (162) 
/var/tmp/pbs.5076255.sched01/tmp7w47f283/46ruht8ay8.sdf

>  <i_m_source_file_index>  (162) 
23

>  <i_lp_mmshare_version>  (162) 
48012

>  <i_f3d_flags>  (162) 
0

>  <s_epik_input>  (162) 
W0NIMl0xW0NIMl1bQ0gyXU4yW0NAQEhdM1tDQEhdNFtDQEhdKFtDQEhdNVtDQEBIXTZbQ0gyXTUpW0NAQEhdM1tDQEBIXShbQ0gyXTcpW0NIXTRbQ0BASF02W0NAQEhdN1tDQEBIXTEy

>  <s_epik_cmdline>  (162) 
J2VwaWtfcHl0aG9uJywgJy1waHQnLCAnMi4wJywgJy1waCcsICc3LjAnLCAnLXRuJywgJzgnLCAnLW1hJywgJzIwMCcsICctaW1hZScsICc8aW5maWxlLm1hZT4nLCAnLW9tYWUnLCAnPG91dGZpbGUubWFlPic=

>  <r_lp_tautomer_probability>  (162) 
1

>  <r_epik_Ionization_Penalty>  (162) 
7.98628e-05

>  <r_epik_Ionization_Penalty_Charging>  (162) 
7.98628e-05

>  <r_epik_Ionization_Penalty_Neutral>  (162) 
0

>  <r_epik_State_Penalty>  (162) 
-0

>  <r_epik_Charging_Adjusted_Penalty>  (162) 
7.98628e-05

>  <i_epik_Tot_Q>  (162) 
1

>  <i_epik_Tot_abs_Q>  (162) 
1

>  <s_lp_Force_Field>  (162) 
OPLS3e

>  <r_lp_Energy>  (162) 
282.408

>  <b_lp_Chiralities_Consistent>  (162) 
1

>  <s_lp_Variant>  (162) 
45:0-1

>  <s_i_glide_gridfile>  (162) 
pfpi4k_grid

>  <i_i_glide_lignum>  (162) 
23

>  <i_i_glide_rotatable_bonds>  (162) 
0

>  <r_i_docking_score>  (162) 
-3.75862

>  <r_i_glide_ligand_efficiency>  (162) 
-0.221095

>  <r_i_glide_ligand_efficiency_sa>  (162) 
-0.568498

>  <r_i_glide_ligand_efficiency_ln>  (162) 
-0.980541

>  <r_i_glide_gscore>  (162) 
-3.75862

>  <r_i_glide_lipo>  (162) 
-0.34224

>  <r_i_glide_hbond>  (162) 
0

>  <r_i_glide_metal>  (162) 
-0

>  <r_i_glide_rewards>  (162) 
-1.85214

>  <r_i_glide_evdw>  (162) 
-19.2173

>  <r_i_glide_ecoul>  (162) 
-3.83017

>  <r_i_glide_erotb>  (162) 
0

>  <r_i_glide_esite>  (162) 
-0.0288478

>  <r_i_glide_emodel>  (162) 
-29.8214

>  <r_i_glide_energy>  (162) 
-23.0475

>  <r_i_glide_einternal>  (162) 
0

>  <r_i_glide_intrahb_reward>  (162) 
-0

>  <i_i_glide_confnum>  (162) 
1

>  <i_i_glide_posenum>  (162) 
11

>  <r_i_glide_eff_state_penalty>  (162) 
0

>  <ligand_id>  (162) 
45

>  <original_smiles>  (162) 
C1CC2C3CC4C5C3C3CC3C3C4C(C53)N2C1

>  <smiles>  (162) 
[H]C1([H])C2([H])C1([H])C1([H])C3([H])C4([H])C([H])([H])C5([H])C2([H])C4([H])C1([H])C3([H])[N+]1([H])C([H])([H])C([H])([H])C([H])([H])C51[H]

$$$$
46:0:0
     RDKit          3D

 86 91  0  0  1  0  0  0  0  0999 V2000
   -0.4031   -5.2594   11.4903 C   0  0  0  0  0  0  0  0  0  0  0  0
   -0.1182   -4.6666   10.0968 C   0  0  0  0  0  0  0  0  0  0  0  0
   -1.4265   -4.1021    9.5179 C   0  0  0  0  0  0  0  0  0  0  0  0
    0.5828   -5.7036    9.1606 C   0  0  2  0  0  0  0  0  0  0  0  0
    1.9000   -6.2588    9.7650 C   0  0  0  0  0  0  0  0  0  0  0  0
    2.8532   -6.5693    8.5964 C   0  0  0  0  0  0  0  0  0  0  0  0
    1.9770   -6.4056    7.3577 C   0  0  2  0  0  0  0  0  0  0  0  0
    2.6468   -6.2375    5.9631 C   0  0  1  0  0  0  0  0  0  0  0  0
    3.7070   -7.3250    5.6634 C   0  0  0  0  0  0  0  0  0  0  0  0
    4.1764   -7.3577    4.1880 C   0  0  0  0  0  0  0  0  0  0  0  0
    3.9103   -6.0057    3.4828 C   0  0  2  0  0  0  0  0  0  0  0  0
    2.3575   -5.7030    3.4125 C   0  0  2  0  0  0  0  0  0  0  0  0
    1.6382   -6.3990    2.2185 C   0  0  0  0  0  0  0  0  0  0  0  0
    2.3244   -4.1762    3.1253 C   0  0  0  0  0  0  0  0  0  0  0  0
    3.0531   -3.7541    1.8289 C   0  0  0  0  0  0  0  0  0  0  0  0
    4.5525   -4.1731    1.7103 C   0  0  2  0  0  0  0  0  0  0  0  0
    5.3680   -3.0619    2.3523 C   0  0  0  0  0  0  0  0  0  0  0  0
    5.8197   -1.9867    1.6664 C   0  0  0  0  0  0  0  0  0  0  0  0
    5.5699   -1.8137    0.2114 C   0  0  0  0  0  0  0  0  0  0  0  0
    5.8233   -0.7509   -0.3511 O   0  0  0  0  0  0  0  0  0  0  0  0
    4.9947   -2.9821   -0.6335 C   0  0  0  0  0  0  0  0  0  0  0  0
    3.5885   -2.5952   -1.1564 C   0  0  0  0  0  0  0  0  0  0  0  0
    5.9070   -3.1648   -1.8793 C   0  0  0  0  0  0  0  0  0  0  0  0
    5.0370   -4.2758    0.2397 C   0  0  2  0  0  0  0  0  0  0  0  0
    4.4682   -5.6024   -0.2517 C   0  0  0  0  0  0  0  0  0  0  0  0
    4.6151   -6.5369    0.9703 C   0  0  0  0  0  0  0  0  0  0  0  0
    4.8160   -5.6422    2.2352 C   0  0  2  0  0  0  0  0  0  0  0  0
    6.3121   -5.7981    2.6598 C   0  0  0  0  0  0  0  0  0  0  0  0
    1.6049   -6.1249    4.7925 C   0  0  1  0  0  0  0  0  0  0  0  0
    0.8702   -7.5070    4.6508 C   0  0  0  0  0  0  0  0  0  0  0  0
    0.4886   -5.1082    5.2144 C   0  0  0  0  0  0  0  0  0  0  0  0
   -0.0969   -5.3011    6.6396 C   0  0  0  0  0  0  0  0  0  0  0  0
    1.0055   -5.2658    7.7237 C   0  0  1  0  0  0  0  0  0  0  0  0
    1.6869   -3.8669    7.7779 C   0  0  0  0  0  0  0  0  0  0  0  0
   -1.0580   -6.1276   11.4321 H   0  0  0  0  0  0  0  0  0  0  0  0
   -0.8857   -4.5271   12.1386 H   0  0  0  0  0  0  0  0  0  0  0  0
    0.5098   -5.5699   11.9962 H   0  0  0  0  0  0  0  0  0  0  0  0
    0.5569   -3.8247   10.2565 H   0  0  0  0  0  0  0  0  0  0  0  0
   -2.1040   -4.8947    9.2040 H   0  0  0  0  0  0  0  0  0  0  0  0
   -1.2369   -3.4561    8.6641 H   0  0  0  0  0  0  0  0  0  0  0  0
   -1.9505   -3.4966   10.2582 H   0  0  0  0  0  0  0  0  0  0  0  0
   -0.0952   -6.5513    9.0505 H   0  0  0  0  0  0  0  0  0  0  0  0
    2.3754   -5.5341   10.4284 H   0  0  0  0  0  0  0  0  0  0  0  0
    1.6993   -7.1508   10.3620 H   0  0  0  0  0  0  0  0  0  0  0  0
    3.6837   -5.8617    8.5802 H   0  0  0  0  0  0  0  0  0  0  0  0
    3.2722   -7.5744    8.6717 H   0  0  0  0  0  0  0  0  0  0  0  0
    1.4078   -7.3316    7.3322 H   0  0  0  0  0  0  0  0  0  0  0  0
    3.1929   -5.2981    6.0107 H   0  0  0  0  0  0  0  0  0  0  0  0
    4.5692   -7.1242    6.3004 H   0  0  0  0  0  0  0  0  0  0  0  0
    3.3480   -8.3124    5.9549 H   0  0  0  0  0  0  0  0  0  0  0  0
    5.2305   -7.6249    4.1968 H   0  0  0  0  0  0  0  0  0  0  0  0
    3.6779   -8.1572    3.6419 H   0  0  0  0  0  0  0  0  0  0  0  0
    4.3054   -5.2813    4.1923 H   0  0  0  0  0  0  0  0  0  0  0  0
    0.5669   -6.1895    2.2293 H   0  0  0  0  0  0  0  0  0  0  0  0
    1.7743   -7.4810    2.2250 H   0  0  0  0  0  0  0  0  0  0  0  0
    1.9759   -6.0793    1.2402 H   0  0  0  0  0  0  0  0  0  0  0  0
    1.2963   -3.8243    3.0364 H   0  0  0  0  0  0  0  0  0  0  0  0
    2.7632   -3.6346    3.9641 H   0  0  0  0  0  0  0  0  0  0  0  0
    2.4883   -4.0916    0.9641 H   0  0  0  0  0  0  0  0  0  0  0  0
    2.9783   -2.6667    1.7783 H   0  0  0  0  0  0  0  0  0  0  0  0
    5.5695   -3.1526    3.4111 H   0  0  0  0  0  0  0  0  0  0  0  0
    6.3899   -1.2179    2.1591 H   0  0  0  0  0  0  0  0  0  0  0  0
    3.0954   -3.4314   -1.6531 H   0  0  0  0  0  0  0  0  0  0  0  0
    3.6488   -1.7843   -1.8859 H   0  0  0  0  0  0  0  0  0  0  0  0
    2.9295   -2.2308   -0.3716 H   0  0  0  0  0  0  0  0  0  0  0  0
    5.5689   -3.9866   -2.5119 H   0  0  0  0  0  0  0  0  0  0  0  0
    6.9440   -3.3677   -1.5993 H   0  0  0  0  0  0  0  0  0  0  0  0
    5.9204   -2.2694   -2.5051 H   0  0  0  0  0  0  0  0  0  0  0  0
    6.1069   -4.4774    0.2812 H   0  0  0  0  0  0  0  0  0  0  0  0
    3.4204   -5.4847   -0.5251 H   0  0  0  0  0  0  0  0  0  0  0  0
    5.0052   -5.9828   -1.1234 H   0  0  0  0  0  0  0  0  0  0  0  0
    3.7810   -7.2300    1.0421 H   0  0  0  0  0  0  0  0  0  0  0  0
    5.4773   -7.1861    0.8150 H   0  0  0  0  0  0  0  0  0  0  0  0
    7.0159   -5.3935    1.9358 H   0  0  0  0  0  0  0  0  0  0  0  0
    6.5941   -6.8437    2.7687 H   0  0  0  0  0  0  0  0  0  0  0  0
    6.5179   -5.3110    3.6123 H   0  0  0  0  0  0  0  0  0  0  0  0
    0.0348   -7.4641    3.9568 H   0  0  0  0  0  0  0  0  0  0  0  0
    0.4245   -7.8681    5.5726 H   0  0  0  0  0  0  0  0  0  0  0  0
    1.5247   -8.3065    4.3105 H   0  0  0  0  0  0  0  0  0  0  0  0
    0.8559   -4.0870    5.1828 H   0  0  0  0  0  0  0  0  0  0  0  0
   -0.3238   -5.1460    4.4902 H   0  0  0  0  0  0  0  0  0  0  0  0
   -0.8444   -4.5308    6.8135 H   0  0  0  0  0  0  0  0  0  0  0  0
   -0.6365   -6.2448    6.6977 H   0  0  0  0  0  0  0  0  0  0  0  0
    2.1812   -3.5878    6.8493 H   0  0  0  0  0  0  0  0  0  0  0  0
    2.4462   -3.8123    8.5601 H   0  0  0  0  0  0  0  0  0  0  0  0
    0.9581   -3.0828    7.9826 H   0  0  0  0  0  0  0  0  0  0  0  0
  1  2  1  0
  1 35  1  0
  1 36  1  0
  1 37  1  0
  2  3  1  0
  2  4  1  0
  2 38  1  0
  3 39  1  0
  3 40  1  0
  3 41  1  0
  4 33  1  0
  4  5  1  0
  4 42  1  6
  5  6  1  0
  5 43  1  0
  5 44  1  0
  6  7  1  0
  6 45  1  0
  6 46  1  0
  7 33  1  0
  7  8  1  0
  7 47  1  6
  8 29  1  0
  8  9  1  0
  8 48  1  1
  9 10  1  0
  9 49  1  0
  9 50  1  0
 10 11  1  0
 10 51  1  0
 10 52  1  0
 11 27  1  0
 11 12  1  0
 11 53  1  1
 12 13  1  6
 12 14  1  0
 12 29  1  0
 13 54  1  0
 13 55  1  0
 13 56  1  0
 14 15  1  0
 14 57  1  0
 14 58  1  0
 16 15  1  6
 15 59  1  0
 15 60  1  0
 16 24  1  0
 16 27  1  0
 16 17  1  0
 17 18  2  0
 17 61  1  0
 18 19  1  0
 18 62  1  0
 19 20  2  0
 19 21  1  0
 21 22  1  0
 21 23  1  0
 21 24  1  0
 22 63  1  0
 22 64  1  0
 22 65  1  0
 23 66  1  0
 23 67  1  0
 23 68  1  0
 24 25  1  0
 24 69  1  1
 25 26  1  0
 25 70  1  0
 25 71  1  0
 26 27  1  0
 26 72  1  0
 26 73  1  0
 27 28  1  1
 28 74  1  0
 28 75  1  0
 28 76  1  0
 29 30  1  6
 29 31  1  0
 30 77  1  0
 30 78  1  0
 30 79  1  0
 31 32  1  0
 31 80  1  0
 31 81  1  0
 32 33  1  0
 32 82  1  0
 32 83  1  0
 33 34  1  1
 34 84  1  0
 34 85  1  0
 34 86  1  0
M  END
>  <i_m_ct_stereo_status>  (163) 
1

>  <s_m_source_file>  (163) 
/var/tmp/pbs.5076255.sched01/tmp7w47f283/46ruht8ay8.sdf

>  <i_m_source_file_index>  (163) 
24

>  <i_lp_mmshare_version>  (163) 
48012

>  <i_f3d_flags>  (163) 
0

>  <s_epik_input>  (163) 
W0NIM11bQ0hdKFtDSDNdKVtDQEhdKFtDSDJdW0NIMl0xKVtDQF0oW0NIM10pKFtDSDJdW0NIMl0yKVtDQEhdMVtDQEBIXShbQ0gyXVtDSDJdMylbQ0BdMihbQ0gzXSlbQ0BAXShbQ0gzXSkoW0NIMl1bQ0gyXTQpW0NAQEhdM1tDQEBdNShbQ0gzXSlbQ0gyXVtDSDJdW0NASF0oW0NAQF00NTYpQyhbQ0gzXSkoW0NIM10pQyg9TylbQ0hdPVtDSF02

>  <s_epik_cmdline>  (163) 
J2VwaWtfcHl0aG9uJywgJy1waHQnLCAnMi4wJywgJy1waCcsICc3LjAnLCAnLXRuJywgJzgnLCAnLW1hJywgJzIwMCcsICctaW1hZScsICc8aW5maWxlLm1hZT4nLCAnLW9tYWUnLCAnPG91dGZpbGUubWFlPic=

>  <r_lp_tautomer_probability>  (163) 
1

>  <r_epik_Ionization_Penalty>  (163) 
0

>  <r_epik_Ionization_Penalty_Charging>  (163) 
0

>  <r_epik_Ionization_Penalty_Neutral>  (163) 
0

>  <r_epik_State_Penalty>  (163) 
-0

>  <r_epik_Charging_Adjusted_Penalty>  (163) 
0

>  <i_epik_Tot_Q>  (163) 
0

>  <i_epik_Tot_abs_Q>  (163) 
0

>  <s_lp_Force_Field>  (163) 
OPLS3e

>  <r_lp_Energy>  (163) 
117.998

>  <b_lp_Chiralities_Consistent>  (163) 
1

>  <s_lp_Variant>  (163) 
46:0-1

>  <s_i_glide_gridfile>  (163) 
pfpi4k_grid

>  <i_i_glide_lignum>  (163) 
24

>  <i_i_glide_rotatable_bonds>  (163) 
1

>  <r_i_docking_score>  (163) 
-1.93157

>  <r_i_glide_ligand_efficiency>  (163) 
-0.056811

>  <r_i_glide_ligand_efficiency_sa>  (163) 
-0.184046

>  <r_i_glide_ligand_efficiency_ln>  (163) 
-0.426739

>  <r_i_glide_gscore>  (163) 
-1.93157

>  <r_i_glide_lipo>  (163) 
-0.529413

>  <r_i_glide_hbond>  (163) 
-0.0112512

>  <r_i_glide_metal>  (163) 
-0

>  <r_i_glide_rewards>  (163) 
-0.285773

>  <r_i_glide_evdw>  (163) 
-21.5569

>  <r_i_glide_ecoul>  (163) 
-0.181939

>  <r_i_glide_erotb>  (163) 
0

>  <r_i_glide_esite>  (163) 
0

>  <r_i_glide_emodel>  (163) 
-24.2814

>  <r_i_glide_energy>  (163) 
-21.7389

>  <r_i_glide_einternal>  (163) 
0.0260727

>  <r_i_glide_intrahb_reward>  (163) 
-0

>  <i_i_glide_confnum>  (163) 
2

>  <i_i_glide_posenum>  (163) 
1

>  <r_i_glide_eff_state_penalty>  (163) 
0

>  <ligand_id>  (163) 
46

>  <original_smiles>  (163) 
CC(C)C1CCC2C3CCC4C(C)(CCC56C=CC(=O)C(C)(C)C5CCC46C)C3(C)CCC12C

>  <smiles>  (163) 
[H]C1=C([H])C23C([H])([H])C([H])([H])C4(C([H])([H])[H])C([H])(C([H])([H])C([H])([H])C5([H])C6([H])C([H])([H])C([H])([H])C([H])(C([H])(C([H])([H])[H])C([H])([H])[H])C6(C([H])([H])[H])C([H])([H])C([H])([H])C54C([H])([H])[H])C2(C([H])([H])[H])C([H])([H])C([H])([H])C3([H])C(C([H])([H])[H])(C([H])([H])[H])C1=O

$$$$
46:0:1
     RDKit          3D

 86 91  0  0  1  0  0  0  0  0999 V2000
    6.6863   -1.5372    0.1672 C   0  0  0  0  0  0  0  0  0  0  0  0
    6.8965   -2.9709   -0.4083 C   0  0  0  0  0  0  0  0  0  0  0  0
    7.4891   -2.8386   -1.8213 C   0  0  0  0  0  0  0  0  0  0  0  0
    5.6453   -3.9288   -0.3742 C   0  0  2  0  0  0  0  0  0  0  0  0
    4.3175   -3.3068   -0.8909 C   0  0  0  0  0  0  0  0  0  0  0  0
    3.1798   -3.9967   -0.1135 C   0  0  0  0  0  0  0  0  0  0  0  0
    3.8521   -5.1719    0.5823 C   0  0  2  0  0  0  0  0  0  0  0  0
    3.1302   -5.8554    1.7795 C   0  0  1  0  0  0  0  0  0  0  0  0
    1.6646   -6.2354    1.4672 C   0  0  0  0  0  0  0  0  0  0  0  0
    1.0076   -7.1638    2.5106 C   0  0  0  0  0  0  0  0  0  0  0  0
    1.7353   -7.0708    3.8707 C   0  0  2  0  0  0  0  0  0  0  0  0
    3.2278   -7.5852    3.7535 C   0  0  2  0  0  0  0  0  0  0  0  0
    3.3666   -9.1321    3.8354 C   0  0  0  0  0  0  0  0  0  0  0  0
    3.8913   -6.9982    5.0274 C   0  0  0  0  0  0  0  0  0  0  0  0
    3.2354   -7.4533    6.3494 C   0  0  0  0  0  0  0  0  0  0  0  0
    1.7082   -7.1700    6.5009 C   0  0  2  0  0  0  0  0  0  0  0  0
    1.5760   -5.7702    7.1010 C   0  0  0  0  0  0  0  0  0  0  0  0
    1.5456   -5.5291    8.4241 C   0  0  0  0  0  0  0  0  0  0  0  0
    1.6347   -6.6274    9.4336 C   0  0  0  0  0  0  0  0  0  0  0  0
    1.8056   -6.3770   10.6182 O   0  0  0  0  0  0  0  0  0  0  0  0
    1.4867   -8.1081    8.9773 C   0  0  0  0  0  0  0  0  0  0  0  0
    2.8189   -8.8561    9.2457 C   0  0  0  0  0  0  0  0  0  0  0  0
    0.4178   -8.7755    9.8853 C   0  0  0  0  0  0  0  0  0  0  0  0
    1.0072   -8.1306    7.4955 C   0  0  2  0  0  0  0  0  0  0  0  0
    0.8375   -9.4336    6.7185 C   0  0  0  0  0  0  0  0  0  0  0  0
    0.4831   -8.9502    5.2904 C   0  0  0  0  0  0  0  0  0  0  0  0
    0.9016   -7.4481    5.1642 C   0  0  2  0  0  0  0  0  0  0  0  0
   -0.4112   -6.6020    5.1409 C   0  0  0  0  0  0  0  0  0  0  0  0
    3.9257   -7.0837    2.3652 C   0  0  1  0  0  0  0  0  0  0  0  0
    3.9296   -8.2097    1.2745 C   0  0  0  0  0  0  0  0  0  0  0  0
    5.4352   -6.6703    2.5391 C   0  0  0  0  0  0  0  0  0  0  0  0
    6.0786   -5.9213    1.3304 C   0  0  0  0  0  0  0  0  0  0  0  0
    5.2565   -4.6603    0.9523 C   0  0  1  0  0  0  0  0  0  0  0  0
    5.2571   -3.6632    2.1356 C   0  0  0  0  0  0  0  0  0  0  0  0
    5.9347   -0.9898   -0.4094 H   0  0  0  0  0  0  0  0  0  0  0  0
    7.6243   -0.9650    0.1229 H   0  0  0  0  0  0  0  0  0  0  0  0
    6.3714   -1.5248    1.2149 H   0  0  0  0  0  0  0  0  0  0  0  0
    7.6701   -3.4494    0.1877 H   0  0  0  0  0  0  0  0  0  0  0  0
    6.7333   -2.5273   -2.5376 H   0  0  0  0  0  0  0  0  0  0  0  0
    7.9289   -3.7627   -2.1841 H   0  0  0  0  0  0  0  0  0  0  0  0
    8.2966   -2.1110   -1.8402 H   0  0  0  0  0  0  0  0  0  0  0  0
    5.8411   -4.7329   -1.0817 H   0  0  0  0  0  0  0  0  0  0  0  0
    4.2571   -2.2267   -0.7108 H   0  0  0  0  0  0  0  0  0  0  0  0
    4.2197   -3.4780   -1.9720 H   0  0  0  0  0  0  0  0  0  0  0  0
    2.7844   -3.2964    0.6161 H   0  0  0  0  0  0  0  0  0  0  0  0
    2.3657   -4.3030   -0.7686 H   0  0  0  0  0  0  0  0  0  0  0  0
    3.9517   -5.9144   -0.2010 H   0  0  0  0  0  0  0  0  0  0  0  0
    3.0664   -5.1014    2.5709 H   0  0  0  0  0  0  0  0  0  0  0  0
    1.1166   -5.3039    1.4447 H   0  0  0  0  0  0  0  0  0  0  0  0
    1.5857   -6.6663    0.4724 H   0  0  0  0  0  0  0  0  0  0  0  0
   -0.0374   -6.8737    2.5724 H   0  0  0  0  0  0  0  0  0  0  0  0
    1.0075   -8.1926    2.1626 H   0  0  0  0  0  0  0  0  0  0  0  0
    1.8212   -5.9979    4.0355 H   0  0  0  0  0  0  0  0  0  0  0  0
    4.4056   -9.4376    3.7153 H   0  0  0  0  0  0  0  0  0  0  0  0
    2.7679   -9.6446    3.0843 H   0  0  0  0  0  0  0  0  0  0  0  0
    3.0589   -9.5556    4.7800 H   0  0  0  0  0  0  0  0  0  0  0  0
    4.9390   -7.2928    5.0795 H   0  0  0  0  0  0  0  0  0  0  0  0
    3.8786   -5.9080    4.9851 H   0  0  0  0  0  0  0  0  0  0  0  0
    3.4437   -8.5013    6.5200 H   0  0  0  0  0  0  0  0  0  0  0  0
    3.7736   -6.9450    7.1472 H   0  0  0  0  0  0  0  0  0  0  0  0
    1.5290   -4.9410    6.3921 H   0  0  0  0  0  0  0  0  0  0  0  0
    1.4671   -4.5243    8.8038 H   0  0  0  0  0  0  0  0  0  0  0  0
    2.7954   -9.8667    8.8387 H   0  0  0  0  0  0  0  0  0  0  0  0
    3.0066   -8.9513   10.3188 H   0  0  0  0  0  0  0  0  0  0  0  0
    3.6855   -8.3417    8.8368 H   0  0  0  0  0  0  0  0  0  0  0  0
    0.2754   -9.8193    9.6150 H   0  0  0  0  0  0  0  0  0  0  0  0
   -0.5493   -8.2870    9.8023 H   0  0  0  0  0  0  0  0  0  0  0  0
    0.7018   -8.7470   10.9406 H   0  0  0  0  0  0  0  0  0  0  0  0
   -0.0143   -7.7792    7.5899 H   0  0  0  0  0  0  0  0  0  0  0  0
    1.7564  -10.0277    6.7134 H   0  0  0  0  0  0  0  0  0  0  0  0
    0.0544  -10.0775    7.1322 H   0  0  0  0  0  0  0  0  0  0  0  0
    0.9192   -9.5945    4.5335 H   0  0  0  0  0  0  0  0  0  0  0  0
   -0.5898   -9.0642    5.1411 H   0  0  0  0  0  0  0  0  0  0  0  0
   -0.9517   -6.6298    6.0778 H   0  0  0  0  0  0  0  0  0  0  0  0
   -1.1156   -6.9708    4.4013 H   0  0  0  0  0  0  0  0  0  0  0  0
   -0.2219   -5.5545    4.9181 H   0  0  0  0  0  0  0  0  0  0  0  0
    4.5788   -9.0390    1.5444 H   0  0  0  0  0  0  0  0  0  0  0  0
    4.3073   -7.8891    0.3072 H   0  0  0  0  0  0  0  0  0  0  0  0
    2.9445   -8.6272    1.0840 H   0  0  0  0  0  0  0  0  0  0  0  0
    5.5587   -6.0158    3.3977 H   0  0  0  0  0  0  0  0  0  0  0  0
    6.0230   -7.5550    2.7780 H   0  0  0  0  0  0  0  0  0  0  0  0
    7.1063   -5.6482    1.5755 H   0  0  0  0  0  0  0  0  0  0  0  0
    6.1601   -6.6019    0.4830 H   0  0  0  0  0  0  0  0  0  0  0  0
    4.8392   -4.0545    3.0607 H   0  0  0  0  0  0  0  0  0  0  0  0
    4.7056   -2.7624    1.8875 H   0  0  0  0  0  0  0  0  0  0  0  0
    6.2777   -3.3774    2.3735 H   0  0  0  0  0  0  0  0  0  0  0  0
  1  2  1  0
  1 35  1  0
  1 36  1  0
  1 37  1  0
  2  3  1  0
  2  4  1  0
  2 38  1  0
  3 39  1  0
  3 40  1  0
  3 41  1  0
  4 33  1  0
  4  5  1  0
  4 42  1  6
  5  6  1  0
  5 43  1  0
  5 44  1  0
  6  7  1  0
  6 45  1  0
  6 46  1  0
  7 33  1  0
  7  8  1  0
  7 47  1  6
  8 29  1  0
  8  9  1  0
  8 48  1  1
  9 10  1  0
  9 49  1  0
  9 50  1  0
 10 11  1  0
 10 51  1  0
 10 52  1  0
 11 27  1  0
 11 12  1  0
 11 53  1  1
 12 13  1  1
 12 14  1  0
 12 29  1  0
 13 54  1  0
 13 55  1  0
 13 56  1  0
 14 15  1  0
 14 57  1  0
 14 58  1  0
 16 15  1  6
 15 59  1  0
 15 60  1  0
 16 24  1  0
 16 27  1  0
 16 17  1  0
 17 18  2  0
 17 61  1  0
 18 19  1  0
 18 62  1  0
 19 20  2  0
 19 21  1  0
 21 22  1  0
 21 23  1  0
 21 24  1  0
 22 63  1  0
 22 64  1  0
 22 65  1  0
 23 66  1  0
 23 67  1  0
 23 68  1  0
 24 25  1  0
 24 69  1  1
 25 26  1  0
 25 70  1  0
 25 71  1  0
 26 27  1  0
 26 72  1  0
 26 73  1  0
 27 28  1  1
 28 74  1  0
 28 75  1  0
 28 76  1  0
 29 30  1  6
 29 31  1  0
 30 77  1  0
 30 78  1  0
 30 79  1  0
 31 32  1  0
 31 80  1  0
 31 81  1  0
 32 33  1  0
 32 82  1  0
 32 83  1  0
 33 34  1  1
 34 84  1  0
 34 85  1  0
 34 86  1  0
M  END
>  <i_m_ct_stereo_status>  (164) 
1

>  <s_m_source_file>  (164) 
/var/tmp/pbs.5076255.sched01/tmp7w47f283/46ruht8ay8.sdf

>  <i_m_source_file_index>  (164) 
24

>  <i_lp_mmshare_version>  (164) 
48012

>  <i_f3d_flags>  (164) 
0

>  <s_epik_input>  (164) 
W0NIM11bQ0hdKFtDSDNdKVtDQEhdKFtDSDJdW0NIMl0xKVtDQF0oW0NIM10pKFtDSDJdW0NIMl0yKVtDQEhdMVtDQEBIXShbQ0gyXVtDSDJdMylbQ0BdMihbQ0gzXSlbQ0BAXShbQ0gzXSkoW0NIMl1bQ0gyXTQpW0NAQEhdM1tDQEBdNShbQ0gzXSlbQ0gyXVtDSDJdW0NASF0oW0NAQF00NTYpQyhbQ0gzXSkoW0NIM10pQyg9TylbQ0hdPVtDSF02

>  <s_epik_cmdline>  (164) 
J2VwaWtfcHl0aG9uJywgJy1waHQnLCAnMi4wJywgJy1waCcsICc3LjAnLCAnLXRuJywgJzgnLCAnLW1hJywgJzIwMCcsICctaW1hZScsICc8aW5maWxlLm1hZT4nLCAnLW9tYWUnLCAnPG91dGZpbGUubWFlPic=

>  <r_lp_tautomer_probability>  (164) 
1

>  <r_epik_Ionization_Penalty>  (164) 
0

>  <r_epik_Ionization_Penalty_Charging>  (164) 
0

>  <r_epik_Ionization_Penalty_Neutral>  (164) 
0

>  <r_epik_State_Penalty>  (164) 
-0

>  <r_epik_Charging_Adjusted_Penalty>  (164) 
0

>  <i_epik_Tot_Q>  (164) 
0

>  <i_epik_Tot_abs_Q>  (164) 
0

>  <s_lp_Force_Field>  (164) 
OPLS3e

>  <r_lp_Energy>  (164) 
117.998

>  <b_lp_Chiralities_Consistent>  (164) 
1

>  <s_lp_Variant>  (164) 
46:0-1

>  <s_i_glide_gridfile>  (164) 
pfpi4k_grid

>  <i_i_glide_lignum>  (164) 
24

>  <i_i_glide_rotatable_bonds>  (164) 
1

>  <r_i_docking_score>  (164) 
-1.63201

>  <r_i_glide_ligand_efficiency>  (164) 
-0.0480004

>  <r_i_glide_ligand_efficiency_sa>  (164) 
-0.155503

>  <r_i_glide_ligand_efficiency_ln>  (164) 
-0.360558

>  <r_i_glide_gscore>  (164) 
-1.63201

>  <r_i_glide_lipo>  (164) 
-0.352174

>  <r_i_glide_hbond>  (164) 
0

>  <r_i_glide_metal>  (164) 
-0

>  <r_i_glide_rewards>  (164) 
-0.240236

>  <r_i_glide_evdw>  (164) 
-22.1437

>  <r_i_glide_ecoul>  (164) 
0.461567

>  <r_i_glide_erotb>  (164) 
0

>  <r_i_glide_esite>  (164) 
-0.00165426

>  <r_i_glide_emodel>  (164) 
-20.0862

>  <r_i_glide_energy>  (164) 
-21.6821

>  <r_i_glide_einternal>  (164) 
6.63387

>  <r_i_glide_intrahb_reward>  (164) 
-0

>  <i_i_glide_confnum>  (164) 
2

>  <i_i_glide_posenum>  (164) 
34

>  <r_i_glide_eff_state_penalty>  (164) 
0

>  <ligand_id>  (164) 
46

>  <original_smiles>  (164) 
CC(C)C1CCC2C3CCC4C(C)(CCC56C=CC(=O)C(C)(C)C5CCC46C)C3(C)CCC12C

>  <smiles>  (164) 
[H]C1=C([H])C23C([H])([H])C([H])([H])C4(C([H])([H])[H])C([H])(C([H])([H])C([H])([H])C5([H])C6([H])C([H])([H])C([H])([H])C([H])(C([H])(C([H])([H])[H])C([H])([H])[H])C6(C([H])([H])[H])C([H])([H])C([H])([H])C54C([H])([H])[H])C2(C([H])([H])[H])C([H])([H])C([H])([H])C3([H])C(C([H])([H])[H])(C([H])([H])[H])C1=O

$$$$
46:0:2
     RDKit          3D

 86 91  0  0  1  0  0  0  0  0999 V2000
    7.3759   -2.6681   -0.2478 C   0  0  0  0  0  0  0  0  0  0  0  0
    6.0116   -2.4682   -0.9281 C   0  0  0  0  0  0  0  0  0  0  0  0
    5.4576   -1.0338   -0.6792 C   0  0  0  0  0  0  0  0  0  0  0  0
    4.9960   -3.6290   -0.6577 C   0  0  2  0  0  0  0  0  0  0  0  0
    3.5679   -3.4082   -1.2373 C   0  0  0  0  0  0  0  0  0  0  0  0
    2.5841   -4.1253   -0.2985 C   0  0  0  0  0  0  0  0  0  0  0  0
    3.4754   -4.9772    0.6017 C   0  0  2  0  0  0  0  0  0  0  0  0
    2.9052   -5.5325    1.9420 C   0  0  1  0  0  0  0  0  0  0  0  0
    1.5594   -6.2679    1.7685 C   0  0  0  0  0  0  0  0  0  0  0  0
    1.1146   -7.0685    3.0137 C   0  0  0  0  0  0  0  0  0  0  0  0
    1.8058   -6.5463    4.2943 C   0  0  2  0  0  0  0  0  0  0  0  0
    3.3703   -6.7464    4.2148 C   0  0  2  0  0  0  0  0  0  0  0  0
    3.8393   -8.1795    4.6130 C   0  0  0  0  0  0  0  0  0  0  0  0
    3.8937   -5.7830    5.3150 C   0  0  0  0  0  0  0  0  0  0  0  0
    3.3476   -6.0738    6.7304 C   0  0  0  0  0  0  0  0  0  0  0  0
    1.7946   -6.0917    6.8870 C   0  0  2  0  0  0  0  0  0  0  0  0
    1.3667   -4.6671    7.1837 C   0  0  0  0  0  0  0  0  0  0  0  0
    1.2834   -4.1597    8.4410 C   0  0  0  0  0  0  0  0  0  0  0  0
    1.6023   -4.9829    9.6385 C   0  0  0  0  0  0  0  0  0  0  0  0
    1.7265   -4.4511   10.7471 O   0  0  0  0  0  0  0  0  0  0  0  0
    1.7786   -6.5140    9.5204 C   0  0  0  0  0  0  0  0  0  0  0  0
    3.2373   -6.8969    9.8693 C   0  0  0  0  0  0  0  0  0  0  0  0
    0.8648   -7.1895   10.5793 C   0  0  0  0  0  0  0  0  0  0  0  0
    1.3211   -6.9554    8.0879 C   0  0  2  0  0  0  0  0  0  0  0  0
    1.4330   -8.3973    7.6019 C   0  0  0  0  0  0  0  0  0  0  0  0
    0.9867   -8.3058    6.1189 C   0  0  0  0  0  0  0  0  0  0  0  0
    1.0705   -6.8108    5.6773 C   0  0  2  0  0  0  0  0  0  0  0  0
   -0.3952   -6.2884    5.5461 C   0  0  0  0  0  0  0  0  0  0  0  0
    3.9404   -6.4183    2.7257 C   0  0  1  0  0  0  0  0  0  0  0  0
    4.1955   -7.7216    1.8921 C   0  0  0  0  0  0  0  0  0  0  0  0
    5.3246   -5.6804    2.7566 C   0  0  0  0  0  0  0  0  0  0  0  0
    5.7987   -5.0984    1.3984 C   0  0  0  0  0  0  0  0  0  0  0  0
    4.7456   -4.1277    0.8042 C   0  0  1  0  0  0  0  0  0  0  0  0
    4.5031   -2.9212    1.7604 C   0  0  0  0  0  0  0  0  0  0  0  0
    7.2967   -2.6468    0.8415 H   0  0  0  0  0  0  0  0  0  0  0  0
    8.0890   -1.8884   -0.5076 H   0  0  0  0  0  0  0  0  0  0  0  0
    7.8342   -3.6194   -0.5248 H   0  0  0  0  0  0  0  0  0  0  0  0
    6.2240   -2.5284   -2.0012 H   0  0  0  0  0  0  0  0  0  0  0  0
    5.0763   -0.8643    0.3147 H   0  0  0  0  0  0  0  0  0  0  0  0
    4.7044   -0.7555   -1.4175 H   0  0  0  0  0  0  0  0  0  0  0  0
    6.2016   -0.2701   -0.8021 H   0  0  0  0  0  0  0  0  0  0  0  0
    5.3853   -4.4987   -1.1936 H   0  0  0  0  0  0  0  0  0  0  0  0
    3.2698   -2.3621   -1.2726 H   0  0  0  0  0  0  0  0  0  0  0  0
    3.4958   -3.7878   -2.2619 H   0  0  0  0  0  0  0  0  0  0  0  0
    2.0466   -3.3796    0.2879 H   0  0  0  0  0  0  0  0  0  0  0  0
    1.8473   -4.7137   -0.8491 H   0  0  0  0  0  0  0  0  0  0  0  0
    3.7263   -5.8264   -0.0298 H   0  0  0  0  0  0  0  0  0  0  0  0
    2.6802   -4.6684    2.5511 H   0  0  0  0  0  0  0  0  0  0  0  0
    0.8095   -5.4990    1.5719 H   0  0  0  0  0  0  0  0  0  0  0  0
    1.5774   -6.9117    0.8951 H   0  0  0  0  0  0  0  0  0  0  0  0
    0.0350   -7.0022    3.0610 H   0  0  0  0  0  0  0  0  0  0  0  0
    1.3338   -8.1330    2.8863 H   0  0  0  0  0  0  0  0  0  0  0  0
    1.6575   -5.4657    4.2309 H   0  0  0  0  0  0  0  0  0  0  0  0
    4.9228   -8.2785    4.5113 H   0  0  0  0  0  0  0  0  0  0  0  0
    3.3673   -8.9538    4.0095 H   0  0  0  0  0  0  0  0  0  0  0  0
    3.6317   -8.4525    5.6384 H   0  0  0  0  0  0  0  0  0  0  0  0
    4.9792   -5.8317    5.3800 H   0  0  0  0  0  0  0  0  0  0  0  0
    3.6492   -4.7505    5.0498 H   0  0  0  0  0  0  0  0  0  0  0  0
    3.7835   -6.9992    7.1037 H   0  0  0  0  0  0  0  0  0  0  0  0
    3.7684   -5.3085    7.3829 H   0  0  0  0  0  0  0  0  0  0  0  0
    1.1471   -4.0283    6.3373 H   0  0  0  0  0  0  0  0  0  0  0  0
    0.9965   -3.1421    8.6054 H   0  0  0  0  0  0  0  0  0  0  0  0
    3.4410   -7.9505    9.6806 H   0  0  0  0  0  0  0  0  0  0  0  0
    3.4427   -6.7191   10.9298 H   0  0  0  0  0  0  0  0  0  0  0  0
    3.9734   -6.3058    9.3253 H   0  0  0  0  0  0  0  0  0  0  0  0
    0.9241   -8.2749   10.5409 H   0  0  0  0  0  0  0  0  0  0  0  0
   -0.1838   -6.9040   10.4522 H   0  0  0  0  0  0  0  0  0  0  0  0
    1.1442   -6.8942   11.5965 H   0  0  0  0  0  0  0  0  0  0  0  0
    0.2414   -6.8114    8.1530 H   0  0  0  0  0  0  0  0  0  0  0  0
    2.4583   -8.7680    7.6779 H   0  0  0  0  0  0  0  0  0  0  0  0
    0.8054   -9.0841    8.1724 H   0  0  0  0  0  0  0  0  0  0  0  0
    1.5550   -8.9896    5.4942 H   0  0  0  0  0  0  0  0  0  0  0  0
   -0.0387   -8.6770    6.0454 H   0  0  0  0  0  0  0  0  0  0  0  0
   -0.9197   -6.2404    6.4964 H   0  0  0  0  0  0  0  0  0  0  0  0
   -1.0019   -6.9392    4.9177 H   0  0  0  0  0  0  0  0  0  0  0  0
   -0.4377   -5.2893    5.1129 H   0  0  0  0  0  0  0  0  0  0  0  0
    5.0052   -8.3163    2.2981 H   0  0  0  0  0  0  0  0  0  0  0  0
    4.4942   -7.5369    0.8650 H   0  0  0  0  0  0  0  0  0  0  0  0
    3.3197   -8.3671    1.8299 H   0  0  0  0  0  0  0  0  0  0  0  0
    5.3101   -4.8440    3.4433 H   0  0  0  0  0  0  0  0  0  0  0  0
    6.0923   -6.3492    3.1465 H   0  0  0  0  0  0  0  0  0  0  0  0
    6.7547   -4.6079    1.5651 H   0  0  0  0  0  0  0  0  0  0  0  0
    6.0163   -5.9049    0.6940 H   0  0  0  0  0  0  0  0  0  0  0  0
    4.1672   -3.1928    2.7551 H   0  0  0  0  0  0  0  0  0  0  0  0
    3.7515   -2.2399    1.3498 H   0  0  0  0  0  0  0  0  0  0  0  0
    5.4155   -2.3480    1.9091 H   0  0  0  0  0  0  0  0  0  0  0  0
  1  2  1  0
  1 35  1  0
  1 36  1  0
  1 37  1  0
  2  3  1  0
  2  4  1  0
  2 38  1  0
  3 39  1  0
  3 40  1  0
  3 41  1  0
  4 33  1  0
  4  5  1  0
  4 42  1  6
  5  6  1  0
  5 43  1  0
  5 44  1  0
  6  7  1  0
  6 45  1  0
  6 46  1  0
  7 33  1  0
  7  8  1  0
  7 47  1  6
  8 29  1  0
  8  9  1  0
  8 48  1  1
  9 10  1  0
  9 49  1  0
  9 50  1  0
 10 11  1  0
 10 51  1  0
 10 52  1  0
 11 27  1  0
 11 12  1  0
 11 53  1  6
 12 13  1  1
 12 14  1  0
 12 29  1  0
 13 54  1  0
 13 55  1  0
 13 56  1  0
 14 15  1  0
 14 57  1  0
 14 58  1  0
 16 15  1  6
 15 59  1  0
 15 60  1  0
 16 24  1  0
 16 27  1  0
 16 17  1  0
 17 18  2  0
 17 61  1  0
 18 19  1  0
 18 62  1  0
 19 20  2  0
 19 21  1  0
 21 22  1  0
 21 23  1  0
 21 24  1  0
 22 63  1  0
 22 64  1  0
 22 65  1  0
 23 66  1  0
 23 67  1  0
 23 68  1  0
 24 25  1  0
 24 69  1  1
 25 26  1  0
 25 70  1  0
 25 71  1  0
 26 27  1  0
 26 72  1  0
 26 73  1  0
 27 28  1  6
 28 74  1  0
 28 75  1  0
 28 76  1  0
 29 30  1  6
 29 31  1  0
 30 77  1  0
 30 78  1  0
 30 79  1  0
 31 32  1  0
 31 80  1  0
 31 81  1  0
 32 33  1  0
 32 82  1  0
 32 83  1  0
 33 34  1  1
 34 84  1  0
 34 85  1  0
 34 86  1  0
M  END
>  <i_m_ct_stereo_status>  (165) 
1

>  <s_m_source_file>  (165) 
/var/tmp/pbs.5076255.sched01/tmp7w47f283/46ruht8ay8.sdf

>  <i_m_source_file_index>  (165) 
24

>  <i_lp_mmshare_version>  (165) 
48012

>  <i_f3d_flags>  (165) 
0

>  <s_epik_input>  (165) 
W0NIM11bQ0hdKFtDSDNdKVtDQEhdKFtDSDJdW0NIMl0xKVtDQF0oW0NIM10pKFtDSDJdW0NIMl0yKVtDQEhdMVtDQEBIXShbQ0gyXVtDSDJdMylbQ0BdMihbQ0gzXSlbQ0BAXShbQ0gzXSkoW0NIMl1bQ0gyXTQpW0NAQEhdM1tDQEBdNShbQ0gzXSlbQ0gyXVtDSDJdW0NASF0oW0NAQF00NTYpQyhbQ0gzXSkoW0NIM10pQyg9TylbQ0hdPVtDSF02

>  <s_epik_cmdline>  (165) 
J2VwaWtfcHl0aG9uJywgJy1waHQnLCAnMi4wJywgJy1waCcsICc3LjAnLCAnLXRuJywgJzgnLCAnLW1hJywgJzIwMCcsICctaW1hZScsICc8aW5maWxlLm1hZT4nLCAnLW9tYWUnLCAnPG91dGZpbGUubWFlPic=

>  <r_lp_tautomer_probability>  (165) 
1

>  <r_epik_Ionization_Penalty>  (165) 
0

>  <r_epik_Ionization_Penalty_Charging>  (165) 
0

>  <r_epik_Ionization_Penalty_Neutral>  (165) 
0

>  <r_epik_State_Penalty>  (165) 
-0

>  <r_epik_Charging_Adjusted_Penalty>  (165) 
0

>  <i_epik_Tot_Q>  (165) 
0

>  <i_epik_Tot_abs_Q>  (165) 
0

>  <s_lp_Force_Field>  (165) 
OPLS3e

>  <r_lp_Energy>  (165) 
117.998

>  <b_lp_Chiralities_Consistent>  (165) 
1

>  <s_lp_Variant>  (165) 
46:0-1

>  <s_i_glide_gridfile>  (165) 
pfpi4k_grid

>  <i_i_glide_lignum>  (165) 
24

>  <i_i_glide_rotatable_bonds>  (165) 
1

>  <r_i_docking_score>  (165) 
-1.33504

>  <r_i_glide_ligand_efficiency>  (165) 
-0.0392657

>  <r_i_glide_ligand_efficiency_sa>  (165) 
-0.127206

>  <r_i_glide_ligand_efficiency_ln>  (165) 
-0.294947

>  <r_i_glide_gscore>  (165) 
-1.33504

>  <r_i_glide_lipo>  (165) 
-0.252512

>  <r_i_glide_hbond>  (165) 
0

>  <r_i_glide_metal>  (165) 
-0

>  <r_i_glide_rewards>  (165) 
-0.240236

>  <r_i_glide_evdw>  (165) 
-19.6581

>  <r_i_glide_ecoul>  (165) 
0.937456

>  <r_i_glide_erotb>  (165) 
0

>  <r_i_glide_esite>  (165) 
0

>  <r_i_glide_emodel>  (165) 
-17.6231

>  <r_i_glide_energy>  (165) 
-18.7207

>  <r_i_glide_einternal>  (165) 
4.68674

>  <r_i_glide_intrahb_reward>  (165) 
-0

>  <i_i_glide_confnum>  (165) 
2

>  <i_i_glide_posenum>  (165) 
2

>  <r_i_glide_eff_state_penalty>  (165) 
0

>  <ligand_id>  (165) 
46

>  <original_smiles>  (165) 
CC(C)C1CCC2C3CCC4C(C)(CCC56C=CC(=O)C(C)(C)C5CCC46C)C3(C)CCC12C

>  <smiles>  (165) 
[H]C1=C([H])C23C([H])([H])C([H])([H])C4(C([H])([H])[H])C([H])(C([H])([H])C([H])([H])C5([H])C6([H])C([H])([H])C([H])([H])C([H])(C([H])(C([H])([H])[H])C([H])([H])[H])C6(C([H])([H])[H])C([H])([H])C([H])([H])C54C([H])([H])[H])C2(C([H])([H])[H])C([H])([H])C([H])([H])C3([H])C(C([H])([H])[H])(C([H])([H])[H])C1=O

$$$$
47:0:0
     RDKit          3D

 21 23  0  0  1  0  0  0  0  0999 V2000
    7.3334   -2.2603   -1.5078 O   0  0  0  0  0  0  0  0  0  0  0  0
    7.2193   -3.1648   -0.6793 C   0  0  0  0  0  0  0  0  0  0  0  0
    8.2860   -3.6158    0.0201 N   0  0  0  0  0  0  0  0  0  0  0  0
    8.2141   -4.6479    0.9743 C   0  0  0  0  0  0  0  0  0  0  0  0
    7.1232   -5.2833    1.2874 N   0  0  0  0  0  0  0  0  0  0  0  0
    6.0111   -4.8500    0.5919 C   0  0  0  0  0  0  0  0  0  0  0  0
    4.4667   -5.5971    0.8663 S   0  0  0  0  0  0  0  0  0  0  0  0
    3.7235   -4.5573   -0.3045 C   0  0  0  0  0  0  0  0  0  0  0  0
    4.5991   -3.6874   -0.9077 C   0  0  0  0  0  0  0  0  0  0  0  0
    4.1290   -2.7722   -1.9477 C   0  0  0  0  0  0  0  0  0  0  0  0
    3.0483   -2.8633   -2.7867 C   0  0  0  0  0  0  0  0  0  0  0  0
    3.0330   -1.6679   -3.5556 C   0  0  0  0  0  0  0  0  0  0  0  0
    4.0927   -0.9284   -3.1169 C   0  0  0  0  0  0  0  0  0  0  0  0
    4.7689   -1.5844   -2.1344 O   0  0  0  0  0  0  0  0  0  0  0  0
    5.9260   -3.8576   -0.3589 C   0  0  0  0  0  0  0  0  0  0  0  0
    9.1661   -4.8777    1.4576 H   0  0  0  0  0  0  0  0  0  0  0  0
    2.6713   -4.6729   -0.5095 H   0  0  0  0  0  0  0  0  0  0  0  0
    2.3458   -3.6838   -2.8371 H   0  0  0  0  0  0  0  0  0  0  0  0
    2.3264   -1.3744   -4.3198 H   0  0  0  0  0  0  0  0  0  0  0  0
    4.4836    0.0443   -3.3737 H   0  0  0  0  0  0  0  0  0  0  0  0
    9.1759   -3.1711   -0.1591 H   0  0  0  0  0  0  0  0  0  0  0  0
  1  2  2  0
  2 15  1  0
  2  3  1  0
  3  4  1  0
  3 21  1  0
  4  5  2  0
  4 16  1  0
  5  6  1  0
  6 15  2  0
  6  7  1  0
  7  8  1  0
  8  9  2  0
  8 17  1  0
  9 10  1  0
  9 15  1  0
 10 14  1  0
 10 11  2  0
 11 12  1  0
 11 18  1  0
 12 13  2  0
 12 19  1  0
 13 14  1  0
 13 20  1  0
M  END
>  <i_m_ct_stereo_status>  (166) 
1

>  <s_m_source_file>  (166) 
/var/tmp/pbs.5076255.sched01/tmp7w47f283/46ruht8ay8.sdf

>  <i_m_source_file_index>  (166) 
25

>  <i_lp_mmshare_version>  (166) 
48012

>  <i_f3d_flags>  (166) 
0

>  <s_epik_input>  (166) 
W25IXTFbY0hdbmMoPU8pYyhjMTIpYyhbY0hdczIpLWMzW2NIXVtjSF1bY0hdbzM=

>  <s_epik_cmdline>  (166) 
J2VwaWtfcHl0aG9uJywgJy1waHQnLCAnMi4wJywgJy1waCcsICc3LjAnLCAnLXRuJywgJzgnLCAnLW1hJywgJzIwMCcsICctaW1hZScsICc8aW5maWxlLm1hZT4nLCAnLW9tYWUnLCAnPG91dGZpbGUubWFlPic=

>  <r_epik_Ionization_Penalty>  (166) 
0.00129489

>  <r_epik_Ionization_Penalty_Charging>  (166) 
0.00128803

>  <r_epik_Ionization_Penalty_Neutral>  (166) 
6.8643e-06

>  <r_epik_State_Penalty>  (166) 
0.020338

>  <r_epik_Charging_Adjusted_Penalty>  (166) 
0.021626

>  <i_epik_Tot_Q>  (166) 
0

>  <i_epik_Tot_abs_Q>  (166) 
0

>  <s_lp_Force_Field>  (166) 
OPLS3e

>  <r_lp_Energy>  (166) 
27.0609

>  <b_lp_Chiralities_Consistent>  (166) 
1

>  <s_lp_Variant>  (166) 
47:0-1

>  <s_i_glide_gridfile>  (166) 
pfpi4k_grid

>  <i_i_glide_lignum>  (166) 
25

>  <i_i_glide_rotatable_bonds>  (166) 
1

>  <r_i_docking_score>  (166) 
-4.23696

>  <r_i_glide_ligand_efficiency>  (166) 
-0.282464

>  <r_i_glide_ligand_efficiency_sa>  (166) 
-0.696616

>  <r_i_glide_ligand_efficiency_ln>  (166) 
-1.14264

>  <r_i_glide_gscore>  (166) 
-4.23696

>  <r_i_glide_lipo>  (166) 
-0.674613

>  <r_i_glide_hbond>  (166) 
-0.16

>  <r_i_glide_metal>  (166) 
-0

>  <r_i_glide_rewards>  (166) 
-2.07458

>  <r_i_glide_evdw>  (166) 
-24.2768

>  <r_i_glide_ecoul>  (166) 
-3.11138

>  <r_i_glide_erotb>  (166) 
0.352778

>  <r_i_glide_esite>  (166) 
0

>  <r_i_glide_emodel>  (166) 
-34.5929

>  <r_i_glide_energy>  (166) 
-27.3882

>  <r_i_glide_einternal>  (166) 
0.420965

>  <r_i_glide_intrahb_reward>  (166) 
-0

>  <i_i_glide_confnum>  (166) 
4

>  <i_i_glide_posenum>  (166) 
25

>  <r_i_glide_eff_state_penalty>  (166) 
0

>  <ligand_id>  (166) 
47

>  <original_smiles>  (166) 
O=c1nc[nH]c2scc(-c3ccco3)c12

>  <smiles>  (166) 
[H]c1oc(-c2c([H])sc3nc([H])n([H])c(=O)c23)c([H])c1[H]

$$$$
47:0:1
     RDKit          3D

 21 23  0  0  1  0  0  0  0  0999 V2000
    6.6793   -2.2300   -1.5397 O   0  0  0  0  0  0  0  0  0  0  0  0
    6.1848   -3.0828   -0.8072 C   0  0  0  0  0  0  0  0  0  0  0  0
    6.9481   -3.8204    0.0333 N   0  0  0  0  0  0  0  0  0  0  0  0
    6.4285   -4.8193    0.8747 C   0  0  0  0  0  0  0  0  0  0  0  0
    5.1684   -5.1352    0.9471 N   0  0  0  0  0  0  0  0  0  0  0  0
    4.3580   -4.3901    0.1134 C   0  0  0  0  0  0  0  0  0  0  0  0
    2.6373   -4.6480    0.0908 S   0  0  0  0  0  0  0  0  0  0  0  0
    2.4445   -3.4562   -1.1563 C   0  0  0  0  0  0  0  0  0  0  0  0
    3.6173   -2.8357   -1.5153 C   0  0  0  0  0  0  0  0  0  0  0  0
    3.6199   -1.7806   -2.5324 C   0  0  0  0  0  0  0  0  0  0  0  0
    4.3613   -0.6446   -2.7046 C   0  0  0  0  0  0  0  0  0  0  0  0
    3.8380    0.0186   -3.8519 C   0  0  0  0  0  0  0  0  0  0  0  0
    2.8269   -0.7633   -4.3110 C   0  0  0  0  0  0  0  0  0  0  0  0
    2.6677   -1.8575   -3.5126 O   0  0  0  0  0  0  0  0  0  0  0  0
    4.7199   -3.3952   -0.7674 C   0  0  0  0  0  0  0  0  0  0  0  0
    7.1879   -5.3232    1.4781 H   0  0  0  0  0  0  0  0  0  0  0  0
    1.4601   -3.2276   -1.5455 H   0  0  0  0  0  0  0  0  0  0  0  0
    5.1633   -0.3111   -2.0633 H   0  0  0  0  0  0  0  0  0  0  0  0
    4.1520    0.9568   -4.2850 H   0  0  0  0  0  0  0  0  0  0  0  0
    2.1224   -0.6579   -5.1178 H   0  0  0  0  0  0  0  0  0  0  0  0
    7.9430   -3.6572    0.0407 H   0  0  0  0  0  0  0  0  0  0  0  0
  1  2  2  0
  2 15  1  0
  2  3  1  0
  3  4  1  0
  3 21  1  0
  4  5  2  0
  4 16  1  0
  5  6  1  0
  6 15  2  0
  6  7  1  0
  7  8  1  0
  8  9  2  0
  8 17  1  0
  9 10  1  0
  9 15  1  0
 10 14  1  0
 10 11  2  0
 11 12  1  0
 11 18  1  0
 12 13  2  0
 12 19  1  0
 13 14  1  0
 13 20  1  0
M  END
>  <i_m_ct_stereo_status>  (167) 
1

>  <s_m_source_file>  (167) 
/var/tmp/pbs.5076255.sched01/tmp7w47f283/46ruht8ay8.sdf

>  <i_m_source_file_index>  (167) 
25

>  <i_lp_mmshare_version>  (167) 
48012

>  <i_f3d_flags>  (167) 
0

>  <s_epik_input>  (167) 
W25IXTFbY0hdbmMoPU8pYyhjMTIpYyhbY0hdczIpLWMzW2NIXVtjSF1bY0hdbzM=

>  <s_epik_cmdline>  (167) 
J2VwaWtfcHl0aG9uJywgJy1waHQnLCAnMi4wJywgJy1waCcsICc3LjAnLCAnLXRuJywgJzgnLCAnLW1hJywgJzIwMCcsICctaW1hZScsICc8aW5maWxlLm1hZT4nLCAnLW9tYWUnLCAnPG91dGZpbGUubWFlPic=

>  <r_epik_Ionization_Penalty>  (167) 
0.00129489

>  <r_epik_Ionization_Penalty_Charging>  (167) 
0.00128803

>  <r_epik_Ionization_Penalty_Neutral>  (167) 
6.8643e-06

>  <r_epik_State_Penalty>  (167) 
0.020338

>  <r_epik_Charging_Adjusted_Penalty>  (167) 
0.021626

>  <i_epik_Tot_Q>  (167) 
0

>  <i_epik_Tot_abs_Q>  (167) 
0

>  <s_lp_Force_Field>  (167) 
OPLS3e

>  <r_lp_Energy>  (167) 
27.0609

>  <b_lp_Chiralities_Consistent>  (167) 
1

>  <s_lp_Variant>  (167) 
47:0-1

>  <s_i_glide_gridfile>  (167) 
pfpi4k_grid

>  <i_i_glide_lignum>  (167) 
25

>  <i_i_glide_rotatable_bonds>  (167) 
1

>  <r_i_docking_score>  (167) 
-3.61517

>  <r_i_glide_ligand_efficiency>  (167) 
-0.241012

>  <r_i_glide_ligand_efficiency_sa>  (167) 
-0.594386

>  <r_i_glide_ligand_efficiency_ln>  (167) 
-0.974952

>  <r_i_glide_gscore>  (167) 
-3.61517

>  <r_i_glide_lipo>  (167) 
-0.413549

>  <r_i_glide_hbond>  (167) 
-0.16

>  <r_i_glide_metal>  (167) 
-0

>  <r_i_glide_rewards>  (167) 
-2.06415

>  <r_i_glide_evdw>  (167) 
-22.1219

>  <r_i_glide_ecoul>  (167) 
-1.49436

>  <r_i_glide_erotb>  (167) 
0.352778

>  <r_i_glide_esite>  (167) 
0

>  <r_i_glide_emodel>  (167) 
-29.5256

>  <r_i_glide_energy>  (167) 
-23.6163

>  <r_i_glide_einternal>  (167) 
0.765614

>  <r_i_glide_intrahb_reward>  (167) 
-0

>  <i_i_glide_confnum>  (167) 
1

>  <i_i_glide_posenum>  (167) 
14

>  <r_i_glide_eff_state_penalty>  (167) 
0

>  <ligand_id>  (167) 
47

>  <original_smiles>  (167) 
O=c1nc[nH]c2scc(-c3ccco3)c12

>  <smiles>  (167) 
[H]c1oc(-c2c([H])sc3nc([H])n([H])c(=O)c23)c([H])c1[H]

$$$$
47:0:2
     RDKit          3D

 21 23  0  0  1  0  0  0  0  0999 V2000
   -1.9680    3.6978    4.4904 O   0  0  0  0  0  0  0  0  0  0  0  0
   -1.3588    2.6963    4.1249 C   0  0  0  0  0  0  0  0  0  0  0  0
   -1.0025    2.5547    2.8345 N   0  0  0  0  0  0  0  0  0  0  0  0
   -0.2634    1.4773    2.3320 C   0  0  0  0  0  0  0  0  0  0  0  0
    0.1483    0.4784    3.0558 N   0  0  0  0  0  0  0  0  0  0  0  0
   -0.2119    0.5719    4.3901 C   0  0  0  0  0  0  0  0  0  0  0  0
    0.2601   -0.6781    5.5061 S   0  0  0  0  0  0  0  0  0  0  0  0
   -0.4947    0.1676    6.8177 C   0  0  0  0  0  0  0  0  0  0  0  0
   -1.1133    1.3410    6.4461 C   0  0  0  0  0  0  0  0  0  0  0  0
   -1.8064    2.1608    7.4509 C   0  0  0  0  0  0  0  0  0  0  0  0
   -2.6081    3.2705    7.4085 C   0  0  0  0  0  0  0  0  0  0  0  0
   -2.9861    3.5678    8.7459 C   0  0  0  0  0  0  0  0  0  0  0  0
   -2.4004    2.6161    9.5229 C   0  0  0  0  0  0  0  0  0  0  0  0
   -1.6813    1.7510    8.7504 O   0  0  0  0  0  0  0  0  0  0  0  0
   -0.9281    1.5631    5.0236 C   0  0  0  0  0  0  0  0  0  0  0  0
   -0.0657    1.5626    1.2588 H   0  0  0  0  0  0  0  0  0  0  0  0
   -0.4088   -0.2566    7.8087 H   0  0  0  0  0  0  0  0  0  0  0  0
   -2.9335    3.8206    6.5461 H   0  0  0  0  0  0  0  0  0  0  0  0
   -3.6208    4.3734    9.0873 H   0  0  0  0  0  0  0  0  0  0  0  0
   -2.4067    2.4163   10.5893 H   0  0  0  0  0  0  0  0  0  0  0  0
   -1.2064    3.3115    2.1898 H   0  0  0  0  0  0  0  0  0  0  0  0
  1  2  2  0
  2 15  1  0
  2  3  1  0
  3  4  1  0
  3 21  1  0
  4  5  2  0
  4 16  1  0
  5  6  1  0
  6 15  2  0
  6  7  1  0
  7  8  1  0
  8  9  2  0
  8 17  1  0
  9 10  1  0
  9 15  1  0
 10 14  1  0
 10 11  2  0
 11 12  1  0
 11 18  1  0
 12 13  2  0
 12 19  1  0
 13 14  1  0
 13 20  1  0
M  END
>  <i_m_ct_stereo_status>  (168) 
1

>  <s_m_source_file>  (168) 
/var/tmp/pbs.5076255.sched01/tmp7w47f283/46ruht8ay8.sdf

>  <i_m_source_file_index>  (168) 
25

>  <i_lp_mmshare_version>  (168) 
48012

>  <i_f3d_flags>  (168) 
0

>  <s_epik_input>  (168) 
W25IXTFbY0hdbmMoPU8pYyhjMTIpYyhbY0hdczIpLWMzW2NIXVtjSF1bY0hdbzM=

>  <s_epik_cmdline>  (168) 
J2VwaWtfcHl0aG9uJywgJy1waHQnLCAnMi4wJywgJy1waCcsICc3LjAnLCAnLXRuJywgJzgnLCAnLW1hJywgJzIwMCcsICctaW1hZScsICc8aW5maWxlLm1hZT4nLCAnLW9tYWUnLCAnPG91dGZpbGUubWFlPic=

>  <r_epik_Ionization_Penalty>  (168) 
0.00129489

>  <r_epik_Ionization_Penalty_Charging>  (168) 
0.00128803

>  <r_epik_Ionization_Penalty_Neutral>  (168) 
6.8643e-06

>  <r_epik_State_Penalty>  (168) 
0.020338

>  <r_epik_Charging_Adjusted_Penalty>  (168) 
0.021626

>  <i_epik_Tot_Q>  (168) 
0

>  <i_epik_Tot_abs_Q>  (168) 
0

>  <s_lp_Force_Field>  (168) 
OPLS3e

>  <r_lp_Energy>  (168) 
27.0609

>  <b_lp_Chiralities_Consistent>  (168) 
1

>  <s_lp_Variant>  (168) 
47:0-1

>  <s_i_glide_gridfile>  (168) 
pfpi4k_grid

>  <i_i_glide_lignum>  (168) 
25

>  <i_i_glide_rotatable_bonds>  (168) 
1

>  <r_i_docking_score>  (168) 
-3.41159

>  <r_i_glide_ligand_efficiency>  (168) 
-0.227439

>  <r_i_glide_ligand_efficiency_sa>  (168) 
-0.560913

>  <r_i_glide_ligand_efficiency_ln>  (168) 
-0.920049

>  <r_i_glide_gscore>  (168) 
-3.41159

>  <r_i_glide_lipo>  (168) 
-0.174611

>  <r_i_glide_hbond>  (168) 
-0.0659303

>  <r_i_glide_metal>  (168) 
-0

>  <r_i_glide_rewards>  (168) 
-1.92114

>  <r_i_glide_evdw>  (168) 
-19.6004

>  <r_i_glide_ecoul>  (168) 
-3.17666

>  <r_i_glide_erotb>  (168) 
0.352778

>  <r_i_glide_esite>  (168) 
-0.146162

>  <r_i_glide_emodel>  (168) 
-28.6533

>  <r_i_glide_energy>  (168) 
-22.7771

>  <r_i_glide_einternal>  (168) 
0.0379616

>  <r_i_glide_intrahb_reward>  (168) 
-0

>  <i_i_glide_confnum>  (168) 
3

>  <i_i_glide_posenum>  (168) 
7

>  <r_i_glide_eff_state_penalty>  (168) 
0

>  <ligand_id>  (168) 
47

>  <original_smiles>  (168) 
O=c1nc[nH]c2scc(-c3ccco3)c12

>  <smiles>  (168) 
[H]c1oc(-c2c([H])sc3nc([H])n([H])c(=O)c23)c([H])c1[H]

$$$$
47:1:0
     RDKit          3D

 21 23  0  0  1  0  0  0  0  0999 V2000
    0.8324    5.3967    7.1851 O   0  0  0  0  0  0  0  0  0  0  0  0
    0.6646    5.1612    5.9951 C   0  0  0  0  0  0  0  0  0  0  0  0
    1.5779    5.6529    5.0376 N   0  0  0  0  0  0  0  0  0  0  0  0
    1.3793    5.4232    3.7752 C   0  0  0  0  0  0  0  0  0  0  0  0
    0.3014    4.7049    3.2810 N   0  0  0  0  0  0  0  0  0  0  0  0
   -0.6314    4.1739    4.1597 C   0  0  0  0  0  0  0  0  0  0  0  0
   -2.0208    3.2628    3.6881 S   0  0  0  0  0  0  0  0  0  0  0  0
   -2.4819    3.1106    5.3607 C   0  0  0  0  0  0  0  0  0  0  0  0
   -1.6253    3.7183    6.2510 C   0  0  0  0  0  0  0  0  0  0  0  0
   -1.9203    3.6637    7.7019 C   0  0  0  0  0  0  0  0  0  0  0  0
   -1.2712    4.0673    8.8403 C   0  0  0  0  0  0  0  0  0  0  0  0
   -2.0933    3.7190    9.9455 C   0  0  0  0  0  0  0  0  0  0  0  0
   -3.1961    3.1169    9.4165 C   0  0  0  0  0  0  0  0  0  0  0  0
   -3.1067    3.0694    8.0581 O   0  0  0  0  0  0  0  0  0  0  0  0
   -0.5323    4.3490    5.5189 C   0  0  0  0  0  0  0  0  0  0  0  0
    0.2101    4.5407    2.2595 H   0  0  0  0  0  0  0  0  0  0  0  0
    2.0802    5.7962    3.0207 H   0  0  0  0  0  0  0  0  0  0  0  0
   -3.3805    2.5588    5.5994 H   0  0  0  0  0  0  0  0  0  0  0  0
   -0.3145    4.5512    8.9485 H   0  0  0  0  0  0  0  0  0  0  0  0
   -1.8929    3.8797   10.9972 H   0  0  0  0  0  0  0  0  0  0  0  0
   -4.0844    2.6807    9.8567 H   0  0  0  0  0  0  0  0  0  0  0  0
  1  2  2  0
  2 15  1  0
  2  3  1  0
  3  4  2  0
  4  5  1  0
  4 17  1  0
  5 16  1  0
  5  6  1  0
  6 15  2  0
  6  7  1  0
  7  8  1  0
  8  9  2  0
  8 18  1  0
  9 10  1  0
  9 15  1  0
 10 14  1  0
 10 11  2  0
 11 12  1  0
 11 19  1  0
 12 13  2  0
 12 20  1  0
 13 14  1  0
 13 21  1  0
M  END
>  <i_m_ct_stereo_status>  (169) 
1

>  <s_m_source_file>  (169) 
/var/tmp/pbs.5076255.sched01/tmp7w47f283/46ruht8ay8.sdf

>  <i_m_source_file_index>  (169) 
26

>  <i_lp_mmshare_version>  (169) 
48012

>  <i_f3d_flags>  (169) 
0

>  <s_epik_input>  (169) 
W25IXTFbY0hdbmMoPU8pYyhjMTIpYyhbY0hdczIpLWMzW2NIXVtjSF1bY0hdbzM=

>  <s_epik_cmdline>  (169) 
J2VwaWtfcHl0aG9uJywgJy1waHQnLCAnMi4wJywgJy1waCcsICc3LjAnLCAnLXRuJywgJzgnLCAnLW1hJywgJzIwMCcsICctaW1hZScsICc8aW5maWxlLm1hZT4nLCAnLW9tYWUnLCAnPG91dGZpbGUubWFlPic=

>  <r_epik_Ionization_Penalty>  (169) 
0.030348

>  <r_epik_Ionization_Penalty_Charging>  (169) 
0.0303214

>  <r_epik_Ionization_Penalty_Neutral>  (169) 
2.65433e-05

>  <r_epik_State_Penalty>  (169) 
2.0329

>  <r_epik_Charging_Adjusted_Penalty>  (169) 
2.06322

>  <i_epik_Tot_Q>  (169) 
0

>  <i_epik_Tot_abs_Q>  (169) 
0

>  <s_lp_Force_Field>  (169) 
OPLS3e

>  <r_lp_Energy>  (169) 
29.6521

>  <b_lp_Chiralities_Consistent>  (169) 
1

>  <s_lp_Variant>  (169) 
47:0-2

>  <s_i_glide_gridfile>  (169) 
pfpi4k_grid

>  <i_i_glide_lignum>  (169) 
26

>  <i_i_glide_rotatable_bonds>  (169) 
1

>  <r_i_docking_score>  (169) 
-3.90936

>  <r_i_glide_ligand_efficiency>  (169) 
-0.260624

>  <r_i_glide_ligand_efficiency_sa>  (169) 
-0.642755

>  <r_i_glide_ligand_efficiency_ln>  (169) 
-1.05429

>  <r_i_glide_gscore>  (169) 
-3.90936

>  <r_i_glide_lipo>  (169) 
-0.0673889

>  <r_i_glide_hbond>  (169) 
-0.152554

>  <r_i_glide_metal>  (169) 
-0

>  <r_i_glide_rewards>  (169) 
-1.92114

>  <r_i_glide_evdw>  (169) 
-15.8464

>  <r_i_glide_ecoul>  (169) 
-7.84198

>  <r_i_glide_erotb>  (169) 
0.352778

>  <r_i_glide_esite>  (169) 
-0.152442

>  <r_i_glide_emodel>  (169) 
-30.5571

>  <r_i_glide_energy>  (169) 
-23.6884

>  <r_i_glide_einternal>  (169) 
0.0114491

>  <r_i_glide_intrahb_reward>  (169) 
-0

>  <i_i_glide_confnum>  (169) 
1

>  <i_i_glide_posenum>  (169) 
2

>  <r_i_glide_eff_state_penalty>  (169) 
0

>  <ligand_id>  (169) 
47

>  <original_smiles>  (169) 
O=c1nc[nH]c2scc(-c3ccco3)c12

>  <smiles>  (169) 
[H]c1oc(-c2c([H])sc3c2c(=O)nc([H])n3[H])c([H])c1[H]

$$$$
47:1:1
     RDKit          3D

 21 23  0  0  1  0  0  0  0  0999 V2000
   -1.9875    0.5697    5.9702 O   0  0  0  0  0  0  0  0  0  0  0  0
   -1.5866    1.2473    5.0245 C   0  0  0  0  0  0  0  0  0  0  0  0
   -2.0913    2.5456    4.7959 N   0  0  0  0  0  0  0  0  0  0  0  0
   -1.6420    3.2442    3.7909 C   0  0  0  0  0  0  0  0  0  0  0  0
   -0.6760    2.8036    2.9009 N   0  0  0  0  0  0  0  0  0  0  0  0
   -0.1390    1.5429    3.0703 C   0  0  0  0  0  0  0  0  0  0  0  0
    1.0917    0.8775    2.0622 S   0  0  0  0  0  0  0  0  0  0  0  0
    1.0695   -0.5847    3.0021 C   0  0  0  0  0  0  0  0  0  0  0  0
    0.1793   -0.5642    4.0556 C   0  0  0  0  0  0  0  0  0  0  0  0
    0.0733   -1.7373    4.9368 C   0  0  0  0  0  0  0  0  0  0  0  0
    0.8912   -2.8309    5.0439 C   0  0  0  0  0  0  0  0  0  0  0  0
    0.3232   -3.6770    6.0350 C   0  0  0  0  0  0  0  0  0  0  0  0
   -0.8084   -3.0450    6.4598 C   0  0  0  0  0  0  0  0  0  0  0  0
   -0.9827   -1.8685    5.7904 O   0  0  0  0  0  0  0  0  0  0  0  0
   -0.5271    0.7023    4.0801 C   0  0  0  0  0  0  0  0  0  0  0  0
   -0.3285    3.3908    2.1320 H   0  0  0  0  0  0  0  0  0  0  0  0
   -2.0104    4.2528    3.5889 H   0  0  0  0  0  0  0  0  0  0  0  0
    1.7295   -1.3882    2.7110 H   0  0  0  0  0  0  0  0  0  0  0  0
    1.7947   -3.0101    4.4815 H   0  0  0  0  0  0  0  0  0  0  0  0
    0.6935   -4.6289    6.3895 H   0  0  0  0  0  0  0  0  0  0  0  0
   -1.5687   -3.2933    7.1861 H   0  0  0  0  0  0  0  0  0  0  0  0
  1  2  2  0
  2 15  1  0
  2  3  1  0
  3  4  2  0
  4  5  1  0
  4 17  1  0
  5 16  1  0
  5  6  1  0
  6 15  2  0
  6  7  1  0
  7  8  1  0
  8  9  2  0
  8 18  1  0
  9 10  1  0
  9 15  1  0
 10 14  1  0
 10 11  2  0
 11 12  1  0
 11 19  1  0
 12 13  2  0
 12 20  1  0
 13 14  1  0
 13 21  1  0
M  END
>  <i_m_ct_stereo_status>  (170) 
1

>  <s_m_source_file>  (170) 
/var/tmp/pbs.5076255.sched01/tmp7w47f283/46ruht8ay8.sdf

>  <i_m_source_file_index>  (170) 
26

>  <i_lp_mmshare_version>  (170) 
48012

>  <i_f3d_flags>  (170) 
0

>  <s_epik_input>  (170) 
W25IXTFbY0hdbmMoPU8pYyhjMTIpYyhbY0hdczIpLWMzW2NIXVtjSF1bY0hdbzM=

>  <s_epik_cmdline>  (170) 
J2VwaWtfcHl0aG9uJywgJy1waHQnLCAnMi4wJywgJy1waCcsICc3LjAnLCAnLXRuJywgJzgnLCAnLW1hJywgJzIwMCcsICctaW1hZScsICc8aW5maWxlLm1hZT4nLCAnLW9tYWUnLCAnPG91dGZpbGUubWFlPic=

>  <r_epik_Ionization_Penalty>  (170) 
0.030348

>  <r_epik_Ionization_Penalty_Charging>  (170) 
0.0303214

>  <r_epik_Ionization_Penalty_Neutral>  (170) 
2.65433e-05

>  <r_epik_State_Penalty>  (170) 
2.0329

>  <r_epik_Charging_Adjusted_Penalty>  (170) 
2.06322

>  <i_epik_Tot_Q>  (170) 
0

>  <i_epik_Tot_abs_Q>  (170) 
0

>  <s_lp_Force_Field>  (170) 
OPLS3e

>  <r_lp_Energy>  (170) 
29.6521

>  <b_lp_Chiralities_Consistent>  (170) 
1

>  <s_lp_Variant>  (170) 
47:0-2

>  <s_i_glide_gridfile>  (170) 
pfpi4k_grid

>  <i_i_glide_lignum>  (170) 
26

>  <i_i_glide_rotatable_bonds>  (170) 
1

>  <r_i_docking_score>  (170) 
-3.5801

>  <r_i_glide_ligand_efficiency>  (170) 
-0.238673

>  <r_i_glide_ligand_efficiency_sa>  (170) 
-0.588618

>  <r_i_glide_ligand_efficiency_ln>  (170) 
-0.965493

>  <r_i_glide_gscore>  (170) 
-3.5801

>  <r_i_glide_lipo>  (170) 
-0.0032083

>  <r_i_glide_hbond>  (170) 
-0.222564

>  <r_i_glide_metal>  (170) 
-0

>  <r_i_glide_rewards>  (170) 
-1.92114

>  <r_i_glide_evdw>  (170) 
-18.505

>  <r_i_glide_ecoul>  (170) 
-4.75995

>  <r_i_glide_erotb>  (170) 
0.352778

>  <r_i_glide_esite>  (170) 
-0.14672

>  <r_i_glide_emodel>  (170) 
-29.5343

>  <r_i_glide_energy>  (170) 
-23.2649

>  <r_i_glide_einternal>  (170) 
0.113256

>  <r_i_glide_intrahb_reward>  (170) 
-0

>  <i_i_glide_confnum>  (170) 
2

>  <i_i_glide_posenum>  (170) 
6

>  <r_i_glide_eff_state_penalty>  (170) 
0

>  <ligand_id>  (170) 
47

>  <original_smiles>  (170) 
O=c1nc[nH]c2scc(-c3ccco3)c12

>  <smiles>  (170) 
[H]c1oc(-c2c([H])sc3c2c(=O)nc([H])n3[H])c([H])c1[H]

$$$$
47:1:2
     RDKit          3D

 21 23  0  0  1  0  0  0  0  0999 V2000
    2.2677   -4.0890   -0.5428 O   0  0  0  0  0  0  0  0  0  0  0  0
    3.2404   -4.4976    0.0927 C   0  0  0  0  0  0  0  0  0  0  0  0
    3.0991   -5.4224    1.1548 N   0  0  0  0  0  0  0  0  0  0  0  0
    4.1579   -5.8142    1.8119 C   0  0  0  0  0  0  0  0  0  0  0  0
    5.4445   -5.3810    1.5419 N   0  0  0  0  0  0  0  0  0  0  0  0
    5.6598   -4.4803    0.5189 C   0  0  0  0  0  0  0  0  0  0  0  0
    7.2023   -3.8327    0.0810 S   0  0  0  0  0  0  0  0  0  0  0  0
    6.4485   -2.9025   -1.1828 C   0  0  0  0  0  0  0  0  0  0  0  0
    5.0828   -3.0662   -1.2573 C   0  0  0  0  0  0  0  0  0  0  0  0
    4.3033   -2.3349   -2.2580 C   0  0  0  0  0  0  0  0  0  0  0  0
    3.3120   -2.6991   -3.1296 C   0  0  0  0  0  0  0  0  0  0  0  0
    3.0169   -1.5400   -3.9038 C   0  0  0  0  0  0  0  0  0  0  0  0
    3.8354   -0.5540   -3.4456 C   0  0  0  0  0  0  0  0  0  0  0  0
    4.6369   -1.0275   -2.4524 O   0  0  0  0  0  0  0  0  0  0  0  0
    4.6335   -3.9992   -0.2479 C   0  0  0  0  0  0  0  0  0  0  0  0
    6.2445   -5.7033    2.0699 H   0  0  0  0  0  0  0  0  0  0  0  0
    4.0856   -6.5283    2.6401 H   0  0  0  0  0  0  0  0  0  0  0  0
    7.0660   -2.2922   -1.8218 H   0  0  0  0  0  0  0  0  0  0  0  0
    2.8609   -3.6774   -3.2137 H   0  0  0  0  0  0  0  0  0  0  0  0
    2.2877   -1.4256   -4.6971 H   0  0  0  0  0  0  0  0  0  0  0  0
    3.9793    0.4870   -3.7043 H   0  0  0  0  0  0  0  0  0  0  0  0
  1  2  2  0
  2 15  1  0
  2  3  1  0
  3  4  2  0
  4  5  1  0
  4 17  1  0
  5 16  1  0
  5  6  1  0
  6 15  2  0
  6  7  1  0
  7  8  1  0
  8  9  2  0
  8 18  1  0
  9 10  1  0
  9 15  1  0
 10 14  1  0
 10 11  2  0
 11 12  1  0
 11 19  1  0
 12 13  2  0
 12 20  1  0
 13 14  1  0
 13 21  1  0
M  END
>  <i_m_ct_stereo_status>  (171) 
1

>  <s_m_source_file>  (171) 
/var/tmp/pbs.5076255.sched01/tmp7w47f283/46ruht8ay8.sdf

>  <i_m_source_file_index>  (171) 
26

>  <i_lp_mmshare_version>  (171) 
48012

>  <i_f3d_flags>  (171) 
0

>  <s_epik_input>  (171) 
W25IXTFbY0hdbmMoPU8pYyhjMTIpYyhbY0hdczIpLWMzW2NIXVtjSF1bY0hdbzM=

>  <s_epik_cmdline>  (171) 
J2VwaWtfcHl0aG9uJywgJy1waHQnLCAnMi4wJywgJy1waCcsICc3LjAnLCAnLXRuJywgJzgnLCAnLW1hJywgJzIwMCcsICctaW1hZScsICc8aW5maWxlLm1hZT4nLCAnLW9tYWUnLCAnPG91dGZpbGUubWFlPic=

>  <r_epik_Ionization_Penalty>  (171) 
0.030348

>  <r_epik_Ionization_Penalty_Charging>  (171) 
0.0303214

>  <r_epik_Ionization_Penalty_Neutral>  (171) 
2.65433e-05

>  <r_epik_State_Penalty>  (171) 
2.0329

>  <r_epik_Charging_Adjusted_Penalty>  (171) 
2.06322

>  <i_epik_Tot_Q>  (171) 
0

>  <i_epik_Tot_abs_Q>  (171) 
0

>  <s_lp_Force_Field>  (171) 
OPLS3e

>  <r_lp_Energy>  (171) 
29.6521

>  <b_lp_Chiralities_Consistent>  (171) 
1

>  <s_lp_Variant>  (171) 
47:0-2

>  <s_i_glide_gridfile>  (171) 
pfpi4k_grid

>  <i_i_glide_lignum>  (171) 
26

>  <i_i_glide_rotatable_bonds>  (171) 
1

>  <r_i_docking_score>  (171) 
-3.57339

>  <r_i_glide_ligand_efficiency>  (171) 
-0.238226

>  <r_i_glide_ligand_efficiency_sa>  (171) 
-0.587515

>  <r_i_glide_ligand_efficiency_ln>  (171) 
-0.963683

>  <r_i_glide_gscore>  (171) 
-3.57339

>  <r_i_glide_lipo>  (171) 
-0.724012

>  <r_i_glide_hbond>  (171) 
0

>  <r_i_glide_metal>  (171) 
-0

>  <r_i_glide_rewards>  (171) 
-1.95592

>  <r_i_glide_evdw>  (171) 
-23.7621

>  <r_i_glide_ecoul>  (171) 
-0.387493

>  <r_i_glide_erotb>  (171) 
0.352778

>  <r_i_glide_esite>  (171) 
0

>  <r_i_glide_emodel>  (171) 
-29.7421

>  <r_i_glide_energy>  (171) 
-24.1496

>  <r_i_glide_einternal>  (171) 
1.34622

>  <r_i_glide_intrahb_reward>  (171) 
-0

>  <i_i_glide_confnum>  (171) 
1

>  <i_i_glide_posenum>  (171) 
4

>  <r_i_glide_eff_state_penalty>  (171) 
0

>  <ligand_id>  (171) 
47

>  <original_smiles>  (171) 
O=c1nc[nH]c2scc(-c3ccco3)c12

>  <smiles>  (171) 
[H]c1oc(-c2c([H])sc3c2c(=O)nc([H])n3[H])c([H])c1[H]

$$$$
48:0:0
     RDKit          3D

 35 37  0  0  1  0  0  0  0  0999 V2000
    1.9842   -3.3608   -2.8131 C   0  0  0  0  0  0  0  0  0  0  0  0
    3.3137   -3.0609   -2.2797 N   0  0  0  0  0  0  0  0  0  0  0  0
    3.3937   -2.8656   -0.8318 C   0  0  0  0  0  0  0  0  0  0  0  0
    4.8211   -3.1302   -0.2549 C   0  0  1  0  0  0  0  0  0  0  0  0
    4.9838   -2.4119    1.0920 C   0  0  0  0  0  0  0  0  0  0  0  0
    4.0847   -3.0270    2.1400 C   0  0  0  0  0  0  0  0  0  0  0  0
    3.5112   -2.2185    3.1344 C   0  0  0  0  0  0  0  0  0  0  0  0
    2.6823   -2.8213    4.0928 C   0  0  0  0  0  0  0  0  0  0  0  0
    2.4749   -4.2104    4.0112 C   0  0  0  0  0  0  0  0  0  0  0  0
    3.0018   -4.9903    3.0475 N   0  0  0  0  0  0  0  0  0  0  0  0
    3.7936   -4.4146    2.1143 C   0  0  0  0  0  0  0  0  0  0  0  0
    4.2859   -5.2196    1.0549 N   0  0  0  0  0  0  0  0  0  0  0  0
    4.1618   -6.6731    1.0415 C   0  0  0  0  0  0  0  0  0  0  0  0
    5.1031   -4.6262    0.0008 C   0  0  0  0  0  0  0  0  0  0  0  0
    5.8819   -2.6533   -1.2667 C   0  0  0  0  0  0  0  0  0  0  0  0
    7.0310   -2.3726   -0.9071 O   0  0  0  0  0  0  0  0  0  0  0  0
    5.5474   -2.5911   -2.5570 N   0  0  0  0  0  0  0  0  0  0  0  0
    4.3344   -2.7801   -3.1113 C   0  0  0  0  0  0  0  0  0  0  0  0
    4.1955   -2.7133   -4.3159 O   0  0  0  0  0  0  0  0  0  0  0  0
    2.0123   -3.7661   -3.8280 H   0  0  0  0  0  0  0  0  0  0  0  0
    1.4129   -2.4385   -2.8508 H   0  0  0  0  0  0  0  0  0  0  0  0
    1.4458   -4.0896   -2.2043 H   0  0  0  0  0  0  0  0  0  0  0  0
    3.0720   -1.8414   -0.6268 H   0  0  0  0  0  0  0  0  0  0  0  0
    2.6475   -3.4921   -0.3443 H   0  0  0  0  0  0  0  0  0  0  0  0
    6.0065   -2.5191    1.4559 H   0  0  0  0  0  0  0  0  0  0  0  0
    4.7854   -1.3443    0.9951 H   0  0  0  0  0  0  0  0  0  0  0  0
    3.6866   -1.1560    3.1547 H   0  0  0  0  0  0  0  0  0  0  0  0
    2.2165   -2.2373    4.8666 H   0  0  0  0  0  0  0  0  0  0  0  0
    1.8525   -4.7073    4.7374 H   0  0  0  0  0  0  0  0  0  0  0  0
    3.7419   -7.1109    1.9487 H   0  0  0  0  0  0  0  0  0  0  0  0
    5.1432   -7.1229    0.8764 H   0  0  0  0  0  0  0  0  0  0  0  0
    3.5408   -6.9561    0.1932 H   0  0  0  0  0  0  0  0  0  0  0  0
    4.9049   -5.1710   -0.9206 H   0  0  0  0  0  0  0  0  0  0  0  0
    6.1602   -4.7874    0.2462 H   0  0  0  0  0  0  0  0  0  0  0  0
    6.2984   -2.3726   -3.1956 H   0  0  0  0  0  0  0  0  0  0  0  0
  1  2  1  0
  1 20  1  0
  1 21  1  0
  1 22  1  0
  2 18  1  0
  2  3  1  0
  4  3  1  6
  3 23  1  0
  3 24  1  0
  4 14  1  0
  4  5  1  0
  4 15  1  0
  5  6  1  0
  5 25  1  0
  5 26  1  0
  6 11  2  0
  6  7  1  0
  7  8  2  0
  7 27  1  0
  8  9  1  0
  8 28  1  0
  9 10  2  0
  9 29  1  0
 10 11  1  0
 11 12  1  0
 12 13  1  0
 12 14  1  0
 13 30  1  0
 13 31  1  0
 13 32  1  0
 14 33  1  0
 14 34  1  0
 15 16  2  0
 15 17  1  0
 17 18  1  0
 17 35  1  0
 18 19  2  0
M  END
>  <i_m_ct_stereo_status>  (172) 
1

>  <s_m_source_file>  (172) 
/var/tmp/pbs.5076255.sched01/tmp7w47f283/46ruht8ay8.sdf

>  <i_m_source_file_index>  (172) 
27

>  <i_lp_mmshare_version>  (172) 
48012

>  <i_f3d_flags>  (172) 
0

>  <s_epik_input>  (172) 
Tz1DMVtOSF1DKD1PKU4oW0NIM10pW0NIMl1bQ0BdMTJbQ0gyXWMzYyhOKFtDSDNdKVtDSDJdMiluW2NIXVtjSF1bY0hdMw==

>  <s_epik_cmdline>  (172) 
J2VwaWtfcHl0aG9uJywgJy1waHQnLCAnMi4wJywgJy1waCcsICc3LjAnLCAnLXRuJywgJzgnLCAnLW1hJywgJzIwMCcsICctaW1hZScsICc8aW5maWxlLm1hZT4nLCAnLW9tYWUnLCAnPG91dGZpbGUubWFlPic=

>  <r_lp_tautomer_probability>  (172) 
1

>  <r_epik_Ionization_Penalty>  (172) 
0.0933355

>  <r_epik_Ionization_Penalty_Charging>  (172) 
0

>  <r_epik_Ionization_Penalty_Neutral>  (172) 
0.0933355

>  <r_epik_State_Penalty>  (172) 
0.083499

>  <r_epik_Charging_Adjusted_Penalty>  (172) 
0.083499

>  <i_epik_Tot_Q>  (172) 
0

>  <i_epik_Tot_abs_Q>  (172) 
0

>  <s_lp_Force_Field>  (172) 
OPLS3e

>  <r_lp_Energy>  (172) 
51.6938

>  <b_lp_Chiralities_Consistent>  (172) 
1

>  <s_lp_Variant>  (172) 
48:0-1

>  <s_i_glide_gridfile>  (172) 
pfpi4k_grid

>  <i_i_glide_lignum>  (172) 
27

>  <i_i_glide_rotatable_bonds>  (172) 
0

>  <r_i_docking_score>  (172) 
-4.60639

>  <r_i_glide_ligand_efficiency>  (172) 
-0.242441

>  <r_i_glide_ligand_efficiency_sa>  (172) 
-0.646931

>  <r_i_glide_ligand_efficiency_ln>  (172) 
-1.16782

>  <r_i_glide_gscore>  (172) 
-4.60639

>  <r_i_glide_lipo>  (172) 
-0.464161

>  <r_i_glide_hbond>  (172) 
-0.432849

>  <r_i_glide_metal>  (172) 
-0

>  <r_i_glide_rewards>  (172) 
-1.84141

>  <r_i_glide_evdw>  (172) 
-21.4757

>  <r_i_glide_ecoul>  (172) 
-5.05668

>  <r_i_glide_erotb>  (172) 
0

>  <r_i_glide_esite>  (172) 
-0.0356771

>  <r_i_glide_emodel>  (172) 
-35.5733

>  <r_i_glide_energy>  (172) 
-26.5324

>  <r_i_glide_einternal>  (172) 
0

>  <r_i_glide_intrahb_reward>  (172) 
-0

>  <i_i_glide_confnum>  (172) 
2

>  <i_i_glide_posenum>  (172) 
9

>  <r_i_glide_eff_state_penalty>  (172) 
0

>  <ligand_id>  (172) 
48

>  <original_smiles>  (172) 
CN1CC2(Cc3cccnc3N(C)C2)C(=O)NC1=O

>  <smiles>  (172) 
[H]c1nc2c(c([H])c1[H])C([H])([H])C1(C(=O)N([H])C(=O)N(C([H])([H])[H])C1([H])[H])C([H])([H])N2C([H])([H])[H]

$$$$
48:0:1
     RDKit          3D

 35 37  0  0  1  0  0  0  0  0999 V2000
    2.1968   -3.4014   -3.2262 C   0  0  0  0  0  0  0  0  0  0  0  0
    3.4880   -3.0550   -2.6297 N   0  0  0  0  0  0  0  0  0  0  0  0
    3.4279   -2.1843   -1.4468 C   0  0  0  0  0  0  0  0  0  0  0  0
    4.6794   -2.2969   -0.5207 C   0  0  1  0  0  0  0  0  0  0  0  0
    4.8076   -1.0331    0.3483 C   0  0  0  0  0  0  0  0  0  0  0  0
    3.6751   -0.9481    1.3476 C   0  0  0  0  0  0  0  0  0  0  0  0
    3.1512    0.3062    1.7155 C   0  0  0  0  0  0  0  0  0  0  0  0
    2.1061    0.3525    2.6409 C   0  0  0  0  0  0  0  0  0  0  0  0
    1.6264   -0.8565    3.1665 C   0  0  0  0  0  0  0  0  0  0  0  0
    2.1105   -2.0704    2.8100 N   0  0  0  0  0  0  0  0  0  0  0  0
    3.1102   -2.1245    1.8985 C   0  0  0  0  0  0  0  0  0  0  0  0
    3.5591   -3.3934    1.4621 N   0  0  0  0  0  0  0  0  0  0  0  0
    3.1388   -4.6385    2.0915 C   0  0  0  0  0  0  0  0  0  0  0  0
    4.6077   -3.4951    0.4502 C   0  0  0  0  0  0  0  0  0  0  0  0
    5.9356   -2.5096   -1.3876 C   0  0  0  0  0  0  0  0  0  0  0  0
    7.0587   -2.2417   -0.9538 O   0  0  0  0  0  0  0  0  0  0  0  0
    5.7955   -3.0315   -2.6151 N   0  0  0  0  0  0  0  0  0  0  0  0
    4.6511   -3.3644   -3.2386 C   0  0  0  0  0  0  0  0  0  0  0  0
    4.7037   -3.9365   -4.3241 O   0  0  0  0  0  0  0  0  0  0  0  0
    2.2484   -4.2497   -3.9062 H   0  0  0  0  0  0  0  0  0  0  0  0
    1.7965   -2.5627   -3.7947 H   0  0  0  0  0  0  0  0  0  0  0  0
    1.4617   -3.6686   -2.4642 H   0  0  0  0  0  0  0  0  0  0  0  0
    3.2888   -1.1576   -1.7954 H   0  0  0  0  0  0  0  0  0  0  0  0
    2.5275   -2.4107   -0.8812 H   0  0  0  0  0  0  0  0  0  0  0  0
    5.7328   -1.0612    0.9273 H   0  0  0  0  0  0  0  0  0  0  0  0
    4.8363   -0.1349   -0.2699 H   0  0  0  0  0  0  0  0  0  0  0  0
    3.5392    1.2164    1.2887 H   0  0  0  0  0  0  0  0  0  0  0  0
    1.6721    1.2954    2.9375 H   0  0  0  0  0  0  0  0  0  0  0  0
    0.8270   -0.8608    3.8910 H   0  0  0  0  0  0  0  0  0  0  0  0
    2.5298   -4.5186    2.9909 H   0  0  0  0  0  0  0  0  0  0  0  0
    4.0185   -5.2186    2.3671 H   0  0  0  0  0  0  0  0  0  0  0  0
    2.5797   -5.2334    1.3710 H   0  0  0  0  0  0  0  0  0  0  0  0
    4.4226   -4.3854   -0.1329 H   0  0  0  0  0  0  0  0  0  0  0  0
    5.5660   -3.6367    0.9629 H   0  0  0  0  0  0  0  0  0  0  0  0
    6.6545   -3.2292   -3.1139 H   0  0  0  0  0  0  0  0  0  0  0  0
  1  2  1  0
  1 20  1  0
  1 21  1  0
  1 22  1  0
  2 18  1  0
  2  3  1  0
  4  3  1  6
  3 23  1  0
  3 24  1  0
  4 14  1  0
  4  5  1  0
  4 15  1  0
  5  6  1  0
  5 25  1  0
  5 26  1  0
  6 11  2  0
  6  7  1  0
  7  8  2  0
  7 27  1  0
  8  9  1  0
  8 28  1  0
  9 10  2  0
  9 29  1  0
 10 11  1  0
 11 12  1  0
 12 13  1  0
 12 14  1  0
 13 30  1  0
 13 31  1  0
 13 32  1  0
 14 33  1  0
 14 34  1  0
 15 16  2  0
 15 17  1  0
 17 18  1  0
 17 35  1  0
 18 19  2  0
M  END
>  <i_m_ct_stereo_status>  (173) 
1

>  <s_m_source_file>  (173) 
/var/tmp/pbs.5076255.sched01/tmp7w47f283/46ruht8ay8.sdf

>  <i_m_source_file_index>  (173) 
27

>  <i_lp_mmshare_version>  (173) 
48012

>  <i_f3d_flags>  (173) 
0

>  <s_epik_input>  (173) 
Tz1DMVtOSF1DKD1PKU4oW0NIM10pW0NIMl1bQ0BdMTJbQ0gyXWMzYyhOKFtDSDNdKVtDSDJdMiluW2NIXVtjSF1bY0hdMw==

>  <s_epik_cmdline>  (173) 
J2VwaWtfcHl0aG9uJywgJy1waHQnLCAnMi4wJywgJy1waCcsICc3LjAnLCAnLXRuJywgJzgnLCAnLW1hJywgJzIwMCcsICctaW1hZScsICc8aW5maWxlLm1hZT4nLCAnLW9tYWUnLCAnPG91dGZpbGUubWFlPic=

>  <r_lp_tautomer_probability>  (173) 
1

>  <r_epik_Ionization_Penalty>  (173) 
0.0933355

>  <r_epik_Ionization_Penalty_Charging>  (173) 
0

>  <r_epik_Ionization_Penalty_Neutral>  (173) 
0.0933355

>  <r_epik_State_Penalty>  (173) 
0.083499

>  <r_epik_Charging_Adjusted_Penalty>  (173) 
0.083499

>  <i_epik_Tot_Q>  (173) 
0

>  <i_epik_Tot_abs_Q>  (173) 
0

>  <s_lp_Force_Field>  (173) 
OPLS3e

>  <r_lp_Energy>  (173) 
51.6938

>  <b_lp_Chiralities_Consistent>  (173) 
1

>  <s_lp_Variant>  (173) 
48:0-1

>  <s_i_glide_gridfile>  (173) 
pfpi4k_grid

>  <i_i_glide_lignum>  (173) 
27

>  <i_i_glide_rotatable_bonds>  (173) 
0

>  <r_i_docking_score>  (173) 
-4.5111

>  <r_i_glide_ligand_efficiency>  (173) 
-0.237426

>  <r_i_glide_ligand_efficiency_sa>  (173) 
-0.633549

>  <r_i_glide_ligand_efficiency_ln>  (173) 
-1.14366

>  <r_i_glide_gscore>  (173) 
-4.5111

>  <r_i_glide_lipo>  (173) 
-0.403708

>  <r_i_glide_hbond>  (173) 
-0.254385

>  <r_i_glide_metal>  (173) 
-0

>  <r_i_glide_rewards>  (173) 
-1.88876

>  <r_i_glide_evdw>  (173) 
-26.5893

>  <r_i_glide_ecoul>  (173) 
-3.85671

>  <r_i_glide_erotb>  (173) 
0

>  <r_i_glide_esite>  (173) 
-0.056282

>  <r_i_glide_emodel>  (173) 
-39.3217

>  <r_i_glide_energy>  (173) 
-30.446

>  <r_i_glide_einternal>  (173) 
0

>  <r_i_glide_intrahb_reward>  (173) 
-0

>  <i_i_glide_confnum>  (173) 
2

>  <i_i_glide_posenum>  (173) 
12

>  <r_i_glide_eff_state_penalty>  (173) 
0

>  <ligand_id>  (173) 
48

>  <original_smiles>  (173) 
CN1CC2(Cc3cccnc3N(C)C2)C(=O)NC1=O

>  <smiles>  (173) 
[H]c1nc2c(c([H])c1[H])C([H])([H])C1(C(=O)N([H])C(=O)N(C([H])([H])[H])C1([H])[H])C([H])([H])N2C([H])([H])[H]

$$$$
48:0:2
     RDKit          3D

 35 37  0  0  1  0  0  0  0  0999 V2000
    2.1287   -3.2972   -3.0310 C   0  0  0  0  0  0  0  0  0  0  0  0
    3.2101   -2.7624   -2.2117 N   0  0  0  0  0  0  0  0  0  0  0  0
    3.0650   -2.9673   -0.7609 C   0  0  0  0  0  0  0  0  0  0  0  0
    4.4028   -2.9077    0.0303 C   0  0  1  0  0  0  0  0  0  0  0  0
    4.1436   -2.5290    1.5051 C   0  0  0  0  0  0  0  0  0  0  0  0
    3.3797   -3.6245    2.2194 C   0  0  0  0  0  0  0  0  0  0  0  0
    2.4560   -3.3029    3.2284 C   0  0  0  0  0  0  0  0  0  0  0  0
    1.7709   -4.3434    3.8679 C   0  0  0  0  0  0  0  0  0  0  0  0
    2.0465   -5.6633    3.4779 C   0  0  0  0  0  0  0  0  0  0  0  0
    2.9152   -5.9783    2.4890 N   0  0  0  0  0  0  0  0  0  0  0  0
    3.5736   -4.9830    1.8557 C   0  0  0  0  0  0  0  0  0  0  0  0
    4.4263   -5.3098    0.7783 N   0  0  0  0  0  0  0  0  0  0  0  0
    4.7841   -6.6831    0.4580 C   0  0  0  0  0  0  0  0  0  0  0  0
    5.1303   -4.2610    0.0461 C   0  0  0  0  0  0  0  0  0  0  0  0
    5.3480   -1.8879   -0.6390 C   0  0  0  0  0  0  0  0  0  0  0  0
    6.3157   -1.4266   -0.0328 O   0  0  0  0  0  0  0  0  0  0  0  0
    5.1444   -1.5561   -1.9255 N   0  0  0  0  0  0  0  0  0  0  0  0
    4.1735   -1.9805   -2.7493 C   0  0  0  0  0  0  0  0  0  0  0  0
    4.2100   -1.6738   -3.9462 O   0  0  0  0  0  0  0  0  0  0  0  0
    2.3911   -3.4358   -4.0836 H   0  0  0  0  0  0  0  0  0  0  0  0
    1.2604   -2.6485   -2.9865 H   0  0  0  0  0  0  0  0  0  0  0  0
    1.8022   -4.2582   -2.6482 H   0  0  0  0  0  0  0  0  0  0  0  0
    2.4111   -2.2028   -0.3612 H   0  0  0  0  0  0  0  0  0  0  0  0
    2.5177   -3.8864   -0.5569 H   0  0  0  0  0  0  0  0  0  0  0  0
    5.0909   -2.4132    2.0404 H   0  0  0  0  0  0  0  0  0  0  0  0
    3.6089   -1.5773    1.5909 H   0  0  0  0  0  0  0  0  0  0  0  0
    2.2697   -2.2729    3.4971 H   0  0  0  0  0  0  0  0  0  0  0  0
    1.0476   -4.1411    4.6410 H   0  0  0  0  0  0  0  0  0  0  0  0
    1.5503   -6.4968    3.9518 H   0  0  0  0  0  0  0  0  0  0  0  0
    4.4285   -7.4393    1.1598 H   0  0  0  0  0  0  0  0  0  0  0  0
    5.8695   -6.7482    0.4364 H   0  0  0  0  0  0  0  0  0  0  0  0
    4.4157   -6.9320   -0.5377 H   0  0  0  0  0  0  0  0  0  0  0  0
    5.2267   -4.5860   -0.9818 H   0  0  0  0  0  0  0  0  0  0  0  0
    6.1394   -4.1642    0.4511 H   0  0  0  0  0  0  0  0  0  0  0  0
    5.8294   -0.9565   -2.3554 H   0  0  0  0  0  0  0  0  0  0  0  0
  1  2  1  0
  1 20  1  0
  1 21  1  0
  1 22  1  0
  2 18  1  0
  2  3  1  0
  4  3  1  6
  3 23  1  0
  3 24  1  0
  4 14  1  0
  4  5  1  0
  4 15  1  0
  5  6  1  0
  5 25  1  0
  5 26  1  0
  6 11  2  0
  6  7  1  0
  7  8  2  0
  7 27  1  0
  8  9  1  0
  8 28  1  0
  9 10  2  0
  9 29  1  0
 10 11  1  0
 11 12  1  0
 12 13  1  0
 12 14  1  0
 13 30  1  0
 13 31  1  0
 13 32  1  0
 14 33  1  0
 14 34  1  0
 15 16  2  0
 15 17  1  0
 17 18  1  0
 17 35  1  0
 18 19  2  0
M  END
>  <i_m_ct_stereo_status>  (174) 
1

>  <s_m_source_file>  (174) 
/var/tmp/pbs.5076255.sched01/tmp7w47f283/46ruht8ay8.sdf

>  <i_m_source_file_index>  (174) 
27

>  <i_lp_mmshare_version>  (174) 
48012

>  <i_f3d_flags>  (174) 
0

>  <s_epik_input>  (174) 
Tz1DMVtOSF1DKD1PKU4oW0NIM10pW0NIMl1bQ0BdMTJbQ0gyXWMzYyhOKFtDSDNdKVtDSDJdMiluW2NIXVtjSF1bY0hdMw==

>  <s_epik_cmdline>  (174) 
J2VwaWtfcHl0aG9uJywgJy1waHQnLCAnMi4wJywgJy1waCcsICc3LjAnLCAnLXRuJywgJzgnLCAnLW1hJywgJzIwMCcsICctaW1hZScsICc8aW5maWxlLm1hZT4nLCAnLW9tYWUnLCAnPG91dGZpbGUubWFlPic=

>  <r_lp_tautomer_probability>  (174) 
1

>  <r_epik_Ionization_Penalty>  (174) 
0.0933355

>  <r_epik_Ionization_Penalty_Charging>  (174) 
0

>  <r_epik_Ionization_Penalty_Neutral>  (174) 
0.0933355

>  <r_epik_State_Penalty>  (174) 
0.083499

>  <r_epik_Charging_Adjusted_Penalty>  (174) 
0.083499

>  <i_epik_Tot_Q>  (174) 
0

>  <i_epik_Tot_abs_Q>  (174) 
0

>  <s_lp_Force_Field>  (174) 
OPLS3e

>  <r_lp_Energy>  (174) 
51.6938

>  <b_lp_Chiralities_Consistent>  (174) 
1

>  <s_lp_Variant>  (174) 
48:0-1

>  <s_i_glide_gridfile>  (174) 
pfpi4k_grid

>  <i_i_glide_lignum>  (174) 
27

>  <i_i_glide_rotatable_bonds>  (174) 
0

>  <r_i_docking_score>  (174) 
-3.91846

>  <r_i_glide_ligand_efficiency>  (174) 
-0.206235

>  <r_i_glide_ligand_efficiency_sa>  (174) 
-0.550317

>  <r_i_glide_ligand_efficiency_ln>  (174) 
-0.993413

>  <r_i_glide_gscore>  (174) 
-3.91846

>  <r_i_glide_lipo>  (174) 
-0.454042

>  <r_i_glide_hbond>  (174) 
-0.118212

>  <r_i_glide_metal>  (174) 
-0

>  <r_i_glide_rewards>  (174) 
-1.76465

>  <r_i_glide_evdw>  (174) 
-22.5867

>  <r_i_glide_ecoul>  (174) 
-2.37073

>  <r_i_glide_erotb>  (174) 
0

>  <r_i_glide_esite>  (174) 
-0.0966102

>  <r_i_glide_emodel>  (174) 
-32.6218

>  <r_i_glide_energy>  (174) 
-24.9574

>  <r_i_glide_einternal>  (174) 
0

>  <r_i_glide_intrahb_reward>  (174) 
-0

>  <i_i_glide_confnum>  (174) 
4

>  <i_i_glide_posenum>  (174) 
18

>  <r_i_glide_eff_state_penalty>  (174) 
0

>  <ligand_id>  (174) 
48

>  <original_smiles>  (174) 
CN1CC2(Cc3cccnc3N(C)C2)C(=O)NC1=O

>  <smiles>  (174) 
[H]c1nc2c(c([H])c1[H])C([H])([H])C1(C(=O)N([H])C(=O)N(C([H])([H])[H])C1([H])[H])C([H])([H])N2C([H])([H])[H]

$$$$
48:1:0
     RDKit          3D

 36 38  0  0  1  0  0  0  0  0999 V2000
    0.9141   -8.6080    2.6929 C   0  0  0  0  0  0  0  0  0  0  0  0
    1.6210   -7.3257    2.7710 N   0  0  0  0  0  0  0  0  0  0  0  0
    2.8977   -7.2616    2.0410 C   0  0  0  0  0  0  0  0  0  0  0  0
    3.3219   -5.8202    1.6515 C   0  0  1  0  0  0  0  0  0  0  0  0
    4.8453   -5.7763    1.3605 C   0  0  0  0  0  0  0  0  0  0  0  0
    5.2789   -4.4672    0.7299 C   0  0  0  0  0  0  0  0  0  0  0  0
    6.5564   -3.9371    0.9976 C   0  0  0  0  0  0  0  0  0  0  0  0
    6.9095   -2.6927    0.4480 C   0  0  0  0  0  0  0  0  0  0  0  0
    5.9803   -2.0033   -0.3529 C   0  0  0  0  0  0  0  0  0  0  0  0
    4.7735   -2.5473   -0.5846 N   0  0  0  0  0  0  0  0  0  0  0  0
    4.3686   -3.7319   -0.0679 C   0  0  0  0  0  0  0  0  0  0  0  0
    3.0360   -4.1631   -0.2677 N   0  0  0  0  0  0  0  0  0  0  0  0
    2.1713   -3.5260   -1.2638 C   0  0  0  0  0  0  0  0  0  0  0  0
    2.5872   -5.4114    0.3551 C   0  0  0  0  0  0  0  0  0  0  0  0
    2.9233   -4.8513    2.7965 C   0  0  0  0  0  0  0  0  0  0  0  0
    3.4544   -3.7489    2.9144 O   0  0  0  0  0  0  0  0  0  0  0  0
    1.9202   -5.2012    3.6206 N   0  0  0  0  0  0  0  0  0  0  0  0
    1.2321   -6.3578    3.6381 C   0  0  0  0  0  0  0  0  0  0  0  0
    0.2654   -6.4778    4.3909 O   0  0  0  0  0  0  0  0  0  0  0  0
   -0.1250   -8.5424    3.0092 H   0  0  0  0  0  0  0  0  0  0  0  0
    1.3972   -9.3499    3.3262 H   0  0  0  0  0  0  0  0  0  0  0  0
    0.9061   -9.0163    1.6821 H   0  0  0  0  0  0  0  0  0  0  0  0
    3.6649   -7.7273    2.6560 H   0  0  0  0  0  0  0  0  0  0  0  0
    2.8478   -7.8915    1.1487 H   0  0  0  0  0  0  0  0  0  0  0  0
    5.4133   -5.9565    2.2729 H   0  0  0  0  0  0  0  0  0  0  0  0
    5.1226   -6.5724    0.6631 H   0  0  0  0  0  0  0  0  0  0  0  0
    7.2390   -4.4630    1.6498 H   0  0  0  0  0  0  0  0  0  0  0  0
    7.8711   -2.2517    0.6663 H   0  0  0  0  0  0  0  0  0  0  0  0
    6.1493   -1.0327   -0.7876 H   0  0  0  0  0  0  0  0  0  0  0  0
    2.5354   -2.5800   -1.6621 H   0  0  0  0  0  0  0  0  0  0  0  0
    1.2035   -3.3229   -0.8171 H   0  0  0  0  0  0  0  0  0  0  0  0
    1.9991   -4.2095   -2.0942 H   0  0  0  0  0  0  0  0  0  0  0  0
    2.6656   -6.2193   -0.3692 H   0  0  0  0  0  0  0  0  0  0  0  0
    1.5295   -5.3077    0.5797 H   0  0  0  0  0  0  0  0  0  0  0  0
    1.6382   -4.4976    4.2927 H   0  0  0  0  0  0  0  0  0  0  0  0
    4.1015   -2.0108   -1.1253 H   0  0  0  0  0  0  0  0  0  0  0  0
  1  2  1  0
  1 20  1  0
  1 21  1  0
  1 22  1  0
  2 18  1  0
  2  3  1  0
  4  3  1  1
  3 23  1  0
  3 24  1  0
  4 14  1  0
  4  5  1  0
  4 15  1  0
  5  6  1  0
  5 25  1  0
  5 26  1  0
  6 11  2  0
  6  7  1  0
  7  8  2  0
  7 27  1  0
  8  9  1  0
  8 28  1  0
  9 10  2  0
  9 29  1  0
 10 11  1  0
 10 36  1  0
 11 12  1  0
 12 13  1  0
 12 14  1  0
 13 30  1  0
 13 31  1  0
 13 32  1  0
 14 33  1  0
 14 34  1  0
 15 16  2  0
 15 17  1  0
 17 18  1  0
 17 35  1  0
 18 19  2  0
M  CHG  1  10   1
M  END
>  <i_m_ct_stereo_status>  (175) 
1

>  <s_m_source_file>  (175) 
/var/tmp/pbs.5076255.sched01/tmp7w47f283/46ruht8ay8.sdf

>  <i_m_source_file_index>  (175) 
28

>  <i_lp_mmshare_version>  (175) 
48012

>  <i_f3d_flags>  (175) 
0

>  <s_epik_input>  (175) 
Tz1DMVtOSF1DKD1PKU4oW0NIM10pW0NIMl1bQ0BdMTJbQ0gyXWMzYyhOKFtDSDNdKVtDSDJdMiluW2NIXVtjSF1bY0hdMw==

>  <s_epik_cmdline>  (175) 
J2VwaWtfcHl0aG9uJywgJy1waHQnLCAnMi4wJywgJy1waCcsICc3LjAnLCAnLXRuJywgJzgnLCAnLW1hJywgJzIwMCcsICctaW1hZScsICc8aW5maWxlLm1hZT4nLCAnLW9tYWUnLCAnPG91dGZpbGUubWFlPic=

>  <r_lp_tautomer_probability>  (175) 
0.999994

>  <r_epik_Ionization_Penalty>  (175) 
1.14182

>  <r_epik_Ionization_Penalty_Charging>  (175) 
1.14164

>  <r_epik_Ionization_Penalty_Neutral>  (175) 
0.00017709

>  <r_epik_State_Penalty>  (175) 
1.20223

>  <r_epik_Charging_Adjusted_Penalty>  (175) 
2.34387

>  <i_epik_Tot_Q>  (175) 
1

>  <i_epik_Tot_abs_Q>  (175) 
1

>  <s_lp_Force_Field>  (175) 
OPLS3e

>  <r_lp_Energy>  (175) 
44.7681

>  <b_lp_Chiralities_Consistent>  (175) 
1

>  <s_lp_Variant>  (175) 
48:0-2

>  <s_i_glide_gridfile>  (175) 
pfpi4k_grid

>  <i_i_glide_lignum>  (175) 
28

>  <i_i_glide_rotatable_bonds>  (175) 
0

>  <r_i_docking_score>  (175) 
-3.1387

>  <r_i_glide_ligand_efficiency>  (175) 
-0.165195

>  <r_i_glide_ligand_efficiency_sa>  (175) 
-0.440806

>  <r_i_glide_ligand_efficiency_ln>  (175) 
-0.795728

>  <r_i_glide_gscore>  (175) 
-3.1387

>  <r_i_glide_lipo>  (175) 
-0.371264

>  <r_i_glide_hbond>  (175) 
0

>  <r_i_glide_metal>  (175) 
-0

>  <r_i_glide_rewards>  (175) 
-1.6275

>  <r_i_glide_evdw>  (175) 
-16.5387

>  <r_i_glide_ecoul>  (175) 
-1.56911

>  <r_i_glide_erotb>  (175) 
0

>  <r_i_glide_esite>  (175) 
-0.0776358

>  <r_i_glide_emodel>  (175) 
-21.714

>  <r_i_glide_energy>  (175) 
-18.1078

>  <r_i_glide_einternal>  (175) 
0

>  <r_i_glide_intrahb_reward>  (175) 
-0

>  <i_i_glide_confnum>  (175) 
2

>  <i_i_glide_posenum>  (175) 
2

>  <r_i_glide_eff_state_penalty>  (175) 
0

>  <ligand_id>  (175) 
48

>  <original_smiles>  (175) 
CN1CC2(Cc3cccnc3N(C)C2)C(=O)NC1=O

>  <smiles>  (175) 
[H]c1c([H])c([H])[n+]([H])c2c1C([H])([H])C1(C(=O)N([H])C(=O)N(C([H])([H])[H])C1([H])[H])C([H])([H])N2C([H])([H])[H]

$$$$
48:1:1
     RDKit          3D

 36 38  0  0  1  0  0  0  0  0999 V2000
    4.5126   -3.8417    6.4394 C   0  0  0  0  0  0  0  0  0  0  0  0
    3.8867   -3.4912    5.1642 N   0  0  0  0  0  0  0  0  0  0  0  0
    4.7938   -2.9208    4.1534 C   0  0  0  0  0  0  0  0  0  0  0  0
    4.2964   -3.1029    2.6968 C   0  0  1  0  0  0  0  0  0  0  0  0
    4.9662   -2.0617    1.7623 C   0  0  0  0  0  0  0  0  0  0  0  0
    4.7068   -2.3393    0.2891 C   0  0  0  0  0  0  0  0  0  0  0  0
    4.5901   -1.2775   -0.6289 C   0  0  0  0  0  0  0  0  0  0  0  0
    4.3101   -1.5455   -1.9783 C   0  0  0  0  0  0  0  0  0  0  0  0
    4.1303   -2.8776   -2.3820 C   0  0  0  0  0  0  0  0  0  0  0  0
    4.2213   -3.8605   -1.4665 N   0  0  0  0  0  0  0  0  0  0  0  0
    4.4827   -3.6639   -0.1520 C   0  0  0  0  0  0  0  0  0  0  0  0
    4.4444   -4.7490    0.7613 N   0  0  0  0  0  0  0  0  0  0  0  0
    4.4166   -6.1414    0.3191 C   0  0  0  0  0  0  0  0  0  0  0  0
    4.6776   -4.5153    2.1873 C   0  0  0  0  0  0  0  0  0  0  0  0
    2.7561   -2.9548    2.6779 C   0  0  0  0  0  0  0  0  0  0  0  0
    2.1803   -2.6646    1.6378 O   0  0  0  0  0  0  0  0  0  0  0  0
    2.0552   -3.2000    3.7975 N   0  0  0  0  0  0  0  0  0  0  0  0
    2.5361   -3.4923    5.0189 C   0  0  0  0  0  0  0  0  0  0  0  0
    1.7597   -3.7720    5.9306 O   0  0  0  0  0  0  0  0  0  0  0  0
    3.8910   -4.4975    7.0453 H   0  0  0  0  0  0  0  0  0  0  0  0
    4.7089   -2.9431    7.0216 H   0  0  0  0  0  0  0  0  0  0  0  0
    5.4643   -4.3554    6.3016 H   0  0  0  0  0  0  0  0  0  0  0  0
    4.9207   -1.8599    4.3714 H   0  0  0  0  0  0  0  0  0  0  0  0
    5.7942   -3.3502    4.2538 H   0  0  0  0  0  0  0  0  0  0  0  0
    4.6348   -1.0537    2.0139 H   0  0  0  0  0  0  0  0  0  0  0  0
    6.0492   -2.0758    1.9019 H   0  0  0  0  0  0  0  0  0  0  0  0
    4.6837   -0.2614   -0.2845 H   0  0  0  0  0  0  0  0  0  0  0  0
    4.1832   -0.7385   -2.6895 H   0  0  0  0  0  0  0  0  0  0  0  0
    3.8820   -3.1922   -3.3870 H   0  0  0  0  0  0  0  0  0  0  0  0
    4.2182   -6.2728   -0.7364 H   0  0  0  0  0  0  0  0  0  0  0  0
    3.6476   -6.6922    0.8628 H   0  0  0  0  0  0  0  0  0  0  0  0
    5.3768   -6.6102    0.5330 H   0  0  0  0  0  0  0  0  0  0  0  0
    5.7235   -4.7436    2.4047 H   0  0  0  0  0  0  0  0  0  0  0  0
    4.0871   -5.2452    2.7384 H   0  0  0  0  0  0  0  0  0  0  0  0
    1.0479   -3.1762    3.7084 H   0  0  0  0  0  0  0  0  0  0  0  0
    4.0034   -4.8074   -1.7840 H   0  0  0  0  0  0  0  0  0  0  0  0
  1  2  1  0
  1 20  1  0
  1 21  1  0
  1 22  1  0
  2 18  1  0
  2  3  1  0
  4  3  1  1
  3 23  1  0
  3 24  1  0
  4 14  1  0
  4  5  1  0
  4 15  1  0
  5  6  1  0
  5 25  1  0
  5 26  1  0
  6 11  2  0
  6  7  1  0
  7  8  2  0
  7 27  1  0
  8  9  1  0
  8 28  1  0
  9 10  2  0
  9 29  1  0
 10 11  1  0
 10 36  1  0
 11 12  1  0
 12 13  1  0
 12 14  1  0
 13 30  1  0
 13 31  1  0
 13 32  1  0
 14 33  1  0
 14 34  1  0
 15 16  2  0
 15 17  1  0
 17 18  1  0
 17 35  1  0
 18 19  2  0
M  CHG  1  10   1
M  END
>  <i_m_ct_stereo_status>  (176) 
1

>  <s_m_source_file>  (176) 
/var/tmp/pbs.5076255.sched01/tmp7w47f283/46ruht8ay8.sdf

>  <i_m_source_file_index>  (176) 
28

>  <i_lp_mmshare_version>  (176) 
48012

>  <i_f3d_flags>  (176) 
0

>  <s_epik_input>  (176) 
Tz1DMVtOSF1DKD1PKU4oW0NIM10pW0NIMl1bQ0BdMTJbQ0gyXWMzYyhOKFtDSDNdKVtDSDJdMiluW2NIXVtjSF1bY0hdMw==

>  <s_epik_cmdline>  (176) 
J2VwaWtfcHl0aG9uJywgJy1waHQnLCAnMi4wJywgJy1waCcsICc3LjAnLCAnLXRuJywgJzgnLCAnLW1hJywgJzIwMCcsICctaW1hZScsICc8aW5maWxlLm1hZT4nLCAnLW9tYWUnLCAnPG91dGZpbGUubWFlPic=

>  <r_lp_tautomer_probability>  (176) 
0.999994

>  <r_epik_Ionization_Penalty>  (176) 
1.14182

>  <r_epik_Ionization_Penalty_Charging>  (176) 
1.14164

>  <r_epik_Ionization_Penalty_Neutral>  (176) 
0.00017709

>  <r_epik_State_Penalty>  (176) 
1.20223

>  <r_epik_Charging_Adjusted_Penalty>  (176) 
2.34387

>  <i_epik_Tot_Q>  (176) 
1

>  <i_epik_Tot_abs_Q>  (176) 
1

>  <s_lp_Force_Field>  (176) 
OPLS3e

>  <r_lp_Energy>  (176) 
44.7681

>  <b_lp_Chiralities_Consistent>  (176) 
1

>  <s_lp_Variant>  (176) 
48:0-2

>  <s_i_glide_gridfile>  (176) 
pfpi4k_grid

>  <i_i_glide_lignum>  (176) 
28

>  <i_i_glide_rotatable_bonds>  (176) 
0

>  <r_i_docking_score>  (176) 
-3.12661

>  <r_i_glide_ligand_efficiency>  (176) 
-0.164559

>  <r_i_glide_ligand_efficiency_sa>  (176) 
-0.439109

>  <r_i_glide_ligand_efficiency_ln>  (176) 
-0.792664

>  <r_i_glide_gscore>  (176) 
-3.12661

>  <r_i_glide_lipo>  (176) 
-0.253566

>  <r_i_glide_hbond>  (176) 
0

>  <r_i_glide_metal>  (176) 
-0

>  <r_i_glide_rewards>  (176) 
-1.68084

>  <r_i_glide_evdw>  (176) 
-16.1531

>  <r_i_glide_ecoul>  (176) 
-2.31674

>  <r_i_glide_erotb>  (176) 
0

>  <r_i_glide_esite>  (176) 
-0.0370471

>  <r_i_glide_emodel>  (176) 
-22.039

>  <r_i_glide_energy>  (176) 
-18.4698

>  <r_i_glide_einternal>  (176) 
0

>  <r_i_glide_intrahb_reward>  (176) 
-0

>  <i_i_glide_confnum>  (176) 
2

>  <i_i_glide_posenum>  (176) 
1

>  <r_i_glide_eff_state_penalty>  (176) 
0

>  <ligand_id>  (176) 
48

>  <original_smiles>  (176) 
CN1CC2(Cc3cccnc3N(C)C2)C(=O)NC1=O

>  <smiles>  (176) 
[H]c1c([H])c([H])[n+]([H])c2c1C([H])([H])C1(C(=O)N([H])C(=O)N(C([H])([H])[H])C1([H])[H])C([H])([H])N2C([H])([H])[H]

$$$$
48:1:2
     RDKit          3D

 36 38  0  0  1  0  0  0  0  0999 V2000
    6.0449   -8.5764    3.9388 C   0  0  0  0  0  0  0  0  0  0  0  0
    5.7711   -7.1808    3.5897 N   0  0  0  0  0  0  0  0  0  0  0  0
    6.1979   -6.7694    2.2443 C   0  0  0  0  0  0  0  0  0  0  0  0
    5.4126   -5.5508    1.6878 C   0  0  1  0  0  0  0  0  0  0  0  0
    6.2288   -4.8667    0.5621 C   0  0  0  0  0  0  0  0  0  0  0  0
    5.4209   -3.8278   -0.1932 C   0  0  0  0  0  0  0  0  0  0  0  0
    6.0472   -2.6855   -0.7248 C   0  0  0  0  0  0  0  0  0  0  0  0
    5.2688   -1.7128   -1.3740 C   0  0  0  0  0  0  0  0  0  0  0  0
    3.8810   -1.8984   -1.4813 C   0  0  0  0  0  0  0  0  0  0  0  0
    3.3193   -3.0011   -0.9537 N   0  0  0  0  0  0  0  0  0  0  0  0
    4.0149   -3.9642   -0.2988 C   0  0  0  0  0  0  0  0  0  0  0  0
    3.3278   -5.0285    0.3289 N   0  0  0  0  0  0  0  0  0  0  0  0
    1.9183   -5.2995    0.0689 C   0  0  0  0  0  0  0  0  0  0  0  0
    4.0801   -6.0394    1.0695 C   0  0  0  0  0  0  0  0  0  0  0  0
    5.1199   -4.5680    2.8542 C   0  0  0  0  0  0  0  0  0  0  0  0
    4.8686   -3.3818    2.6425 O   0  0  0  0  0  0  0  0  0  0  0  0
    5.0907   -5.0391    4.1116 N   0  0  0  0  0  0  0  0  0  0  0  0
    5.3620   -6.2907    4.5268 C   0  0  0  0  0  0  0  0  0  0  0  0
    5.2033   -6.5855    5.7099 O   0  0  0  0  0  0  0  0  0  0  0  0
    5.4850   -8.9105    4.8101 H   0  0  0  0  0  0  0  0  0  0  0  0
    7.1011   -8.7148    4.1588 H   0  0  0  0  0  0  0  0  0  0  0  0
    5.7941   -9.2632    3.1310 H   0  0  0  0  0  0  0  0  0  0  0  0
    7.2647   -6.5491    2.2781 H   0  0  0  0  0  0  0  0  0  0  0  0
    6.1126   -7.6090    1.5504 H   0  0  0  0  0  0  0  0  0  0  0  0
    7.1388   -4.4180    0.9610 H   0  0  0  0  0  0  0  0  0  0  0  0
    6.5461   -5.6189   -0.1625 H   0  0  0  0  0  0  0  0  0  0  0  0
    7.1111   -2.5507   -0.6003 H   0  0  0  0  0  0  0  0  0  0  0  0
    5.7016   -0.8054   -1.7624 H   0  0  0  0  0  0  0  0  0  0  0  0
    3.2051   -1.1946   -1.9438 H   0  0  0  0  0  0  0  0  0  0  0  0
    1.4130   -4.5144   -0.4838 H   0  0  0  0  0  0  0  0  0  0  0  0
    1.4047   -5.4536    1.0191 H   0  0  0  0  0  0  0  0  0  0  0  0
    1.8197   -6.2190   -0.5056 H   0  0  0  0  0  0  0  0  0  0  0  0
    4.2390   -6.8968    0.4085 H   0  0  0  0  0  0  0  0  0  0  0  0
    3.4469   -6.3938    1.8812 H   0  0  0  0  0  0  0  0  0  0  0  0
    4.8050   -4.3805    4.8255 H   0  0  0  0  0  0  0  0  0  0  0  0
    2.3049   -3.0743   -1.0112 H   0  0  0  0  0  0  0  0  0  0  0  0
  1  2  1  0
  1 20  1  0
  1 21  1  0
  1 22  1  0
  2 18  1  0
  2  3  1  0
  4  3  1  1
  3 23  1  0
  3 24  1  0
  4 14  1  0
  4  5  1  0
  4 15  1  0
  5  6  1  0
  5 25  1  0
  5 26  1  0
  6 11  2  0
  6  7  1  0
  7  8  2  0
  7 27  1  0
  8  9  1  0
  8 28  1  0
  9 10  2  0
  9 29  1  0
 10 11  1  0
 10 36  1  0
 11 12  1  0
 12 13  1  0
 12 14  1  0
 13 30  1  0
 13 31  1  0
 13 32  1  0
 14 33  1  0
 14 34  1  0
 15 16  2  0
 15 17  1  0
 17 18  1  0
 17 35  1  0
 18 19  2  0
M  CHG  1  10   1
M  END
>  <i_m_ct_stereo_status>  (177) 
1

>  <s_m_source_file>  (177) 
/var/tmp/pbs.5076255.sched01/tmp7w47f283/46ruht8ay8.sdf

>  <i_m_source_file_index>  (177) 
28

>  <i_lp_mmshare_version>  (177) 
48012

>  <i_f3d_flags>  (177) 
0

>  <s_epik_input>  (177) 
Tz1DMVtOSF1DKD1PKU4oW0NIM10pW0NIMl1bQ0BdMTJbQ0gyXWMzYyhOKFtDSDNdKVtDSDJdMiluW2NIXVtjSF1bY0hdMw==

>  <s_epik_cmdline>  (177) 
J2VwaWtfcHl0aG9uJywgJy1waHQnLCAnMi4wJywgJy1waCcsICc3LjAnLCAnLXRuJywgJzgnLCAnLW1hJywgJzIwMCcsICctaW1hZScsICc8aW5maWxlLm1hZT4nLCAnLW9tYWUnLCAnPG91dGZpbGUubWFlPic=

>  <r_lp_tautomer_probability>  (177) 
0.999994

>  <r_epik_Ionization_Penalty>  (177) 
1.14182

>  <r_epik_Ionization_Penalty_Charging>  (177) 
1.14164

>  <r_epik_Ionization_Penalty_Neutral>  (177) 
0.00017709

>  <r_epik_State_Penalty>  (177) 
1.20223

>  <r_epik_Charging_Adjusted_Penalty>  (177) 
2.34387

>  <i_epik_Tot_Q>  (177) 
1

>  <i_epik_Tot_abs_Q>  (177) 
1

>  <s_lp_Force_Field>  (177) 
OPLS3e

>  <r_lp_Energy>  (177) 
44.7681

>  <b_lp_Chiralities_Consistent>  (177) 
1

>  <s_lp_Variant>  (177) 
48:0-2

>  <s_i_glide_gridfile>  (177) 
pfpi4k_grid

>  <i_i_glide_lignum>  (177) 
28

>  <i_i_glide_rotatable_bonds>  (177) 
0

>  <r_i_docking_score>  (177) 
-2.5178

>  <r_i_glide_ligand_efficiency>  (177) 
-0.132516

>  <r_i_glide_ligand_efficiency_sa>  (177) 
-0.353605

>  <r_i_glide_ligand_efficiency_ln>  (177) 
-0.638315

>  <r_i_glide_gscore>  (177) 
-2.5178

>  <r_i_glide_lipo>  (177) 
-0.319163

>  <r_i_glide_hbond>  (177) 
0

>  <r_i_glide_metal>  (177) 
-0

>  <r_i_glide_rewards>  (177) 
-1.64924

>  <r_i_glide_evdw>  (177) 
-15.5398

>  <r_i_glide_ecoul>  (177) 
1.689

>  <r_i_glide_erotb>  (177) 
0

>  <r_i_glide_esite>  (177) 
-0.0257598

>  <r_i_glide_emodel>  (177) 
-16.6922

>  <r_i_glide_energy>  (177) 
-13.8508

>  <r_i_glide_einternal>  (177) 
0

>  <r_i_glide_intrahb_reward>  (177) 
-0

>  <i_i_glide_confnum>  (177) 
4

>  <i_i_glide_posenum>  (177) 
11

>  <r_i_glide_eff_state_penalty>  (177) 
0

>  <ligand_id>  (177) 
48

>  <original_smiles>  (177) 
CN1CC2(Cc3cccnc3N(C)C2)C(=O)NC1=O

>  <smiles>  (177) 
[H]c1c([H])c([H])[n+]([H])c2c1C([H])([H])C1(C(=O)N([H])C(=O)N(C([H])([H])[H])C1([H])[H])C([H])([H])N2C([H])([H])[H]

$$$$
49:0:0
     RDKit          3D

 70 78  0  0  1  0  0  0  0  0999 V2000
    1.7110   -5.6791    3.7728 C   0  0  0  0  0  0  0  0  0  0  0  0
    2.6826   -4.4779    3.8210 C   0  0  1  0  0  0  0  0  0  0  0  0
    3.8160   -4.6868    4.9338 C   0  0  0  0  0  0  0  0  0  0  0  0
    5.2686   -4.8529    4.2622 C   0  0  1  0  0  0  0  0  0  0  0  0
    6.0747   -5.8124    4.9206 O   0  0  0  0  0  0  0  0  0  0  0  0
    4.9660   -5.1439    2.7608 C   0  0  2  0  0  0  0  0  0  0  0  0
    4.7970   -6.6990    2.4541 C   0  0  1  0  0  0  0  0  0  0  0  0
    3.5017   -7.1385    2.1017 O   0  0  0  0  0  0  0  0  0  0  0  0
    5.6536   -6.9489    1.3952 O   0  0  0  0  0  0  0  0  0  0  0  0
    5.4521   -5.8991    0.4722 C   0  0  0  0  0  0  0  0  0  0  0  0
    5.5935   -4.6809    1.3558 C   0  0  1  0  0  0  0  0  0  0  0  0
    5.0957   -3.2914    0.6549 C   0  0  2  0  0  0  0  0  0  0  0  0
    6.0053   -2.3954    1.5514 C   0  0  0  0  0  0  0  0  0  0  0  0
    5.2704   -1.8670    2.6955 C   0  0  0  0  0  0  0  0  0  0  0  0
    3.9895   -2.6221    3.0448 C   0  0  2  0  0  0  0  0  0  0  0  0
    3.7452   -1.8437    4.4250 C   0  0  0  0  0  0  0  0  0  0  0  0
    3.7770   -4.2621    2.8837 C   0  0  2  0  0  0  0  0  0  0  0  0
    2.9050   -2.3879    2.0653 C   0  0  2  0  0  0  0  0  0  0  0  0
    1.9363   -3.2407    3.0526 C   0  0  0  0  0  0  0  0  0  0  0  0
    3.4674   -2.9265    0.6017 C   0  0  2  0  0  0  0  0  0  0  0  0
    2.4294   -4.0045    0.1023 C   0  0  0  0  0  0  0  0  0  0  0  0
    3.4378   -1.9562   -0.6681 C   0  0  2  0  0  0  0  0  0  0  0  0
    3.4871   -2.6433   -2.1116 C   0  0  2  0  0  0  0  0  0  0  0  0
    2.2180   -3.2435   -2.7680 C   0  0  0  0  0  0  0  0  0  0  0  0
    4.7256   -3.5460   -1.9279 C   0  0  0  0  0  0  0  0  0  0  0  0
    5.5108   -2.7973   -0.7977 C   0  0  2  0  0  0  0  0  0  0  0  0
    7.0215   -2.8309   -1.1472 C   0  0  0  0  0  0  0  0  0  0  0  0
    4.8067   -1.3691   -0.8685 C   0  0  2  0  0  0  0  0  0  0  0  0
    5.0858   -0.2845    0.0040 O   0  0  0  0  0  0  0  0  0  0  0  0
    4.8280   -0.7458   -2.2351 C   0  0  2  0  0  0  0  0  0  0  0  0
    3.5979   -0.2543   -2.8151 O   0  0  0  0  0  0  0  0  0  0  0  0
    3.9769   -1.5915   -3.0560 C   0  0  2  0  0  0  0  0  0  0  0  0
    0.8373   -5.4735    4.3880 H   0  0  0  0  0  0  0  0  0  0  0  0
    2.1472   -6.6025    4.1498 H   0  0  0  0  0  0  0  0  0  0  0  0
    1.3432   -5.8670    2.7640 H   0  0  0  0  0  0  0  0  0  0  0  0
    3.8052   -3.9639    5.7449 H   0  0  0  0  0  0  0  0  0  0  0  0
    3.5981   -5.6148    5.4575 H   0  0  0  0  0  0  0  0  0  0  0  0
    5.8211   -3.9229    4.3699 H   0  0  0  0  0  0  0  0  0  0  0  0
    5.6178   -6.6372    4.9355 H   0  0  0  0  0  0  0  0  0  0  0  0
    5.1184   -7.3431    3.2667 H   0  0  0  0  0  0  0  0  0  0  0  0
    3.5235   -8.0835    2.0412 H   0  0  0  0  0  0  0  0  0  0  0  0
    6.2212   -5.9022   -0.2986 H   0  0  0  0  0  0  0  0  0  0  0  0
    4.4764   -5.9899    0.0021 H   0  0  0  0  0  0  0  0  0  0  0  0
    6.6759   -4.7274    1.4744 H   0  0  0  0  0  0  0  0  0  0  0  0
    6.8986   -2.8654    1.9431 H   0  0  0  0  0  0  0  0  0  0  0  0
    6.5527   -1.5810    1.1010 H   0  0  0  0  0  0  0  0  0  0  0  0
    5.9679   -1.8480    3.5261 H   0  0  0  0  0  0  0  0  0  0  0  0
    5.0305   -0.8181    2.5084 H   0  0  0  0  0  0  0  0  0  0  0  0
    2.9008   -2.1247    5.0474 H   0  0  0  0  0  0  0  0  0  0  0  0
    3.6079   -0.7755    4.2366 H   0  0  0  0  0  0  0  0  0  0  0  0
    4.5965   -1.9293    5.1041 H   0  0  0  0  0  0  0  0  0  0  0  0
    3.3524   -4.7293    2.0369 H   0  0  0  0  0  0  0  0  0  0  0  0
    2.6212   -1.3356    2.0143 H   0  0  0  0  0  0  0  0  0  0  0  0
    1.0850   -3.6020    2.4844 H   0  0  0  0  0  0  0  0  0  0  0  0
    1.4204   -2.6016    3.7677 H   0  0  0  0  0  0  0  0  0  0  0  0
    1.6100   -3.4881   -0.3919 H   0  0  0  0  0  0  0  0  0  0  0  0
    1.8667   -4.5905    0.8146 H   0  0  0  0  0  0  0  0  0  0  0  0
    2.8308   -4.7596   -0.5597 H   0  0  0  0  0  0  0  0  0  0  0  0
    2.6746   -1.1771   -0.5621 H   0  0  0  0  0  0  0  0  0  0  0  0
    2.3167   -3.2947   -3.8547 H   0  0  0  0  0  0  0  0  0  0  0  0
    1.3491   -2.6409   -2.5553 H   0  0  0  0  0  0  0  0  0  0  0  0
    1.9721   -4.2565   -2.4553 H   0  0  0  0  0  0  0  0  0  0  0  0
    4.5106   -4.5792   -1.6845 H   0  0  0  0  0  0  0  0  0  0  0  0
    5.2842   -3.5950   -2.8637 H   0  0  0  0  0  0  0  0  0  0  0  0
    7.1837   -2.6100   -2.2011 H   0  0  0  0  0  0  0  0  0  0  0  0
    7.4260   -3.8231   -0.9675 H   0  0  0  0  0  0  0  0  0  0  0  0
    7.6356   -2.1231   -0.5935 H   0  0  0  0  0  0  0  0  0  0  0  0
    5.0057    0.5344   -0.4761 H   0  0  0  0  0  0  0  0  0  0  0  0
    5.7738   -0.3802   -2.6003 H   0  0  0  0  0  0  0  0  0  0  0  0
    4.2120   -1.8447   -4.0968 H   0  0  0  0  0  0  0  0  0  0  0  0
  2  1  1  6
  1 33  1  0
  1 34  1  0
  1 35  1  0
  2 17  1  0
  2 19  1  0
  2  3  1  0
  3  4  1  0
  3 36  1  0
  3 37  1  0
  4  5  1  0
  6  4  1  1
  4 38  1  6
  5 39  1  0
  6 11  1  0
  6 17  1  0
  6  7  1  0
  7  8  1  0
  7  9  1  0
  7 40  1  1
  8 41  1  0
  9 10  1  0
 10 11  1  0
 10 42  1  0
 10 43  1  0
 11 12  1  0
 11 44  1  1
 12 20  1  0
 12 26  1  0
 12 13  1  1
 13 14  1  0
 13 45  1  0
 13 46  1  0
 14 15  1  0
 14 47  1  0
 14 48  1  0
 15 16  1  1
 15 17  1  0
 15 18  1  0
 16 49  1  0
 16 50  1  0
 16 51  1  0
 17 52  1  6
 18 19  1  0
 18 20  1  0
 18 53  1  6
 19 54  1  0
 19 55  1  0
 20 21  1  6
 20 22  1  0
 21 56  1  0
 21 57  1  0
 21 58  1  0
 22 28  1  0
 22 23  1  0
 22 59  1  6
 23 32  1  0
 23 24  1  6
 23 25  1  0
 24 60  1  0
 24 61  1  0
 24 62  1  0
 25 26  1  0
 25 63  1  0
 25 64  1  0
 26 27  1  6
 26 28  1  0
 27 65  1  0
 27 66  1  0
 27 67  1  0
 28 29  1  1
 28 30  1  0
 29 68  1  0
 30 32  1  0
 30 31  1  0
 30 69  1  6
 31 32  1  0
 32 70  1  6
M  END
>  <i_m_ct_stereo_status>  (178) 
1

>  <s_m_source_file>  (178) 
/var/tmp/pbs.5076255.sched01/tmp7w47f283/46ruht8ay8.sdf

>  <i_m_source_file_index>  (178) 
29

>  <i_lp_mmshare_version>  (178) 
48012

>  <i_f3d_flags>  (178) 
0

>  <s_epik_input>  (178) 
W09IXVtDQEBIXTFbQ0gyXVtDQEBdKFtDSDNdKShbQ0gyXTIpW0NASF0zW0NAQF0oW0NIM10pKFtDSDJdW0NIMl00KVtDQEhdMltDQF0oW0NIM10pKFtDQF00NVtDQEBIXShbQ0BAXTEzNilbQ0gyXU9bQ0BASF02W09IXSlbQ0BASF03W0NAQF04KFtDSDNdKVtDQEBIXTlbQ0BASF0oTzkpW0NAXTcoW09IXSlbQ0BAXTUoW0NIMl04KVtDSDNd

>  <s_epik_cmdline>  (178) 
J2VwaWtfcHl0aG9uJywgJy1waHQnLCAnMi4wJywgJy1waCcsICc3LjAnLCAnLXRuJywgJzgnLCAnLW1hJywgJzIwMCcsICctaW1hZScsICc8aW5maWxlLm1hZT4nLCAnLW9tYWUnLCAnPG91dGZpbGUubWFlPic=

>  <r_lp_tautomer_probability>  (178) 
1

>  <r_epik_Ionization_Penalty>  (178) 
6.39723e-07

>  <r_epik_Ionization_Penalty_Charging>  (178) 
0

>  <r_epik_Ionization_Penalty_Neutral>  (178) 
6.39723e-07

>  <r_epik_State_Penalty>  (178) 
-0

>  <r_epik_Charging_Adjusted_Penalty>  (178) 
0

>  <i_epik_Tot_Q>  (178) 
0

>  <i_epik_Tot_abs_Q>  (178) 
0

>  <s_epik_Chemistry_Notes>  (178) 
This compound contains an acetal/aminal-like group ( X-CH(R)-Y where X, Y are N, S, or O) that may be acid/base labile, releasing an aldehyde.

>  <s_lp_Force_Field>  (178) 
OPLS3e

>  <r_lp_Energy>  (178) 
313.205

>  <b_lp_Chiralities_Consistent>  (178) 
1

>  <s_lp_Variant>  (178) 
49:0-1

>  <s_i_glide_gridfile>  (178) 
pfpi4k_grid

>  <i_i_glide_lignum>  (178) 
29

>  <i_i_glide_rotatable_bonds>  (178) 
3

>  <r_i_docking_score>  (178) 
-2.56212

>  <r_i_glide_ligand_efficiency>  (178) 
-0.0800663

>  <r_i_glide_ligand_efficiency_sa>  (178) 
-0.254195

>  <r_i_glide_ligand_efficiency_ln>  (178) 
-0.573729

>  <r_i_glide_gscore>  (178) 
-2.56212

>  <r_i_glide_lipo>  (178) 
-0.645141

>  <r_i_glide_hbond>  (178) 
0

>  <r_i_glide_metal>  (178) 
-0

>  <r_i_glide_rewards>  (178) 
-0.391448

>  <r_i_glide_evdw>  (178) 
-21.3885

>  <r_i_glide_ecoul>  (178) 
-3.04072

>  <r_i_glide_erotb>  (178) 
0

>  <r_i_glide_esite>  (178) 
0

>  <r_i_glide_emodel>  (178) 
-25.6056

>  <r_i_glide_energy>  (178) 
-24.4292

>  <r_i_glide_einternal>  (178) 
1.41308

>  <r_i_glide_intrahb_reward>  (178) 
-0

>  <i_i_glide_confnum>  (178) 
2

>  <i_i_glide_posenum>  (178) 
37

>  <r_i_glide_eff_state_penalty>  (178) 
0

>  <ligand_id>  (178) 
49

>  <original_smiles>  (178) 
CC12CC(O)C34C(O)OCC3C35CCC(C)(C14)C(C2)C3(C)C1C2(C)CC5(C)C1(O)C1OC12

>  <smiles>  (178) 
[H]OC1([H])OC([H])([H])C2([H])C13C([H])(O[H])C([H])([H])C1(C([H])([H])[H])C([H])([H])C4([H])C(C([H])([H])[H])(C([H])([H])C([H])([H])C25C4(C([H])([H])[H])C2([H])C4(O[H])C6([H])OC6([H])C2(C([H])([H])[H])C([H])([H])C45C([H])([H])[H])C13[H]

$$$$
49:0:1
     RDKit          3D

 70 78  0  0  1  0  0  0  0  0999 V2000
    1.6603   -5.5514    3.8883 C   0  0  0  0  0  0  0  0  0  0  0  0
    2.6589   -4.3678    3.9047 C   0  0  1  0  0  0  0  0  0  0  0  0
    3.7870   -4.5669    5.0175 C   0  0  0  0  0  0  0  0  0  0  0  0
    5.2403   -4.7651    4.3423 C   0  0  1  0  0  0  0  0  0  0  0  0
    6.0217   -5.7283    5.0271 O   0  0  0  0  0  0  0  0  0  0  0  0
    4.9423   -5.0723    2.8483 C   0  0  2  0  0  0  0  0  0  0  0  0
    4.7303   -6.6311    2.5828 C   0  0  1  0  0  0  0  0  0  0  0  0
    3.4219   -7.0740    2.2415 O   0  0  0  0  0  0  0  0  0  0  0  0
    5.5868   -6.9227    1.5299 O   0  0  0  0  0  0  0  0  0  0  0  0
    5.4069   -5.8942    0.5772 C   0  0  0  0  0  0  0  0  0  0  0  0
    5.5593   -4.6478    1.4346 C   0  0  1  0  0  0  0  0  0  0  0  0
    5.0709   -3.2698    0.7088 C   0  0  2  0  0  0  0  0  0  0  0  0
    5.9926   -2.3735    1.5891 C   0  0  0  0  0  0  0  0  0  0  0  0
    5.2699   -1.8160    2.7239 C   0  0  0  0  0  0  0  0  0  0  0  0
    3.9776   -2.5605    3.0838 C   0  0  2  0  0  0  0  0  0  0  0  0
    3.7479   -1.7453    4.4506 C   0  0  0  0  0  0  0  0  0  0  0  0
    3.7509   -4.1967    2.9441 C   0  0  2  0  0  0  0  0  0  0  0  0
    2.9031   -2.3177    2.1026 C   0  0  2  0  0  0  0  0  0  0  0  0
    1.9331   -3.1362    3.1066 C   0  0  0  0  0  0  0  0  0  0  0  0
    3.4629   -2.8879    0.6549 C   0  0  2  0  0  0  0  0  0  0  0  0
    2.4235   -3.9677    0.1693 C   0  0  0  0  0  0  0  0  0  0  0  0
    3.4326   -1.9358   -0.6421 C   0  0  2  0  0  0  0  0  0  0  0  0
    3.4736   -2.6573   -2.0663 C   0  0  2  0  0  0  0  0  0  0  0  0
    2.2083   -3.2107   -2.7232 C   0  0  0  0  0  0  0  0  0  0  0  0
    4.7021   -3.5673   -1.8642 C   0  0  0  0  0  0  0  0  0  0  0  0
    5.4944   -2.7924   -0.7560 C   0  0  2  0  0  0  0  0  0  0  0  0
    7.0075   -2.8561   -1.1025 C   0  0  0  0  0  0  0  0  0  0  0  0
    4.8064   -1.3634   -0.8585 C   0  0  2  0  0  0  0  0  0  0  0  0
    5.1116   -0.2873    0.0016 O   0  0  0  0  0  0  0  0  0  0  0  0
    4.7851   -0.7771   -2.2350 C   0  0  2  0  0  0  0  0  0  0  0  0
    3.5739   -0.2847   -2.9005 O   0  0  0  0  0  0  0  0  0  0  0  0
    3.9710   -1.6518   -3.0331 C   0  0  2  0  0  0  0  0  0  0  0  0
    0.7983   -5.3220    4.4968 H   0  0  0  0  0  0  0  0  0  0  0  0
    2.0898   -6.4765    4.2752 H   0  0  0  0  0  0  0  0  0  0  0  0
    1.2855   -5.7533    2.8798 H   0  0  0  0  0  0  0  0  0  0  0  0
    3.7803   -3.8372    5.8179 H   0  0  0  0  0  0  0  0  0  0  0  0
    3.5587   -5.4810    5.5568 H   0  0  0  0  0  0  0  0  0  0  0  0
    5.8109   -3.8399    4.4477 H   0  0  0  0  0  0  0  0  0  0  0  0
    5.5439   -6.5418    5.0697 H   0  0  0  0  0  0  0  0  0  0  0  0
    5.0462   -7.2803    3.4012 H   0  0  0  0  0  0  0  0  0  0  0  0
    3.1131   -6.5491    1.5150 H   0  0  0  0  0  0  0  0  0  0  0  0
    6.1752   -5.9345   -0.1944 H   0  0  0  0  0  0  0  0  0  0  0  0
    4.4270   -5.9816    0.1170 H   0  0  0  0  0  0  0  0  0  0  0  0
    6.6451   -4.7152    1.5576 H   0  0  0  0  0  0  0  0  0  0  0  0
    6.8742   -2.8541    1.9933 H   0  0  0  0  0  0  0  0  0  0  0  0
    6.5565   -1.5787    1.1249 H   0  0  0  0  0  0  0  0  0  0  0  0
    5.9592   -1.7893    3.5535 H   0  0  0  0  0  0  0  0  0  0  0  0
    5.0423   -0.7720    2.5181 H   0  0  0  0  0  0  0  0  0  0  0  0
    2.9072   -1.9930    5.0823 H   0  0  0  0  0  0  0  0  0  0  0  0
    3.6304   -0.6761    4.2430 H   0  0  0  0  0  0  0  0  0  0  0  0
    4.5993   -1.8247    5.1309 H   0  0  0  0  0  0  0  0  0  0  0  0
    3.3110   -4.6575    2.1159 H   0  0  0  0  0  0  0  0  0  0  0  0
    2.6373   -1.2568    2.0389 H   0  0  0  0  0  0  0  0  0  0  0  0
    1.0613   -3.4905    2.5632 H   0  0  0  0  0  0  0  0  0  0  0  0
    1.4218   -2.4818    3.8145 H   0  0  0  0  0  0  0  0  0  0  0  0
    1.6248   -3.4458   -0.3668 H   0  0  0  0  0  0  0  0  0  0  0  0
    1.8230   -4.5035    0.8866 H   0  0  0  0  0  0  0  0  0  0  0  0
    2.8057   -4.7514   -0.4697 H   0  0  0  0  0  0  0  0  0  0  0  0
    2.6908   -1.1435   -0.5357 H   0  0  0  0  0  0  0  0  0  0  0  0
    2.3011   -3.3195   -3.7992 H   0  0  0  0  0  0  0  0  0  0  0  0
    1.3573   -2.5778   -2.5242 H   0  0  0  0  0  0  0  0  0  0  0  0
    1.9087   -4.1810   -2.3478 H   0  0  0  0  0  0  0  0  0  0  0  0
    4.4703   -4.5908   -1.5950 H   0  0  0  0  0  0  0  0  0  0  0  0
    5.2618   -3.6531   -2.7970 H   0  0  0  0  0  0  0  0  0  0  0  0
    7.1674   -2.6611   -2.1603 H   0  0  0  0  0  0  0  0  0  0  0  0
    7.3989   -3.8434   -0.8930 H   0  0  0  0  0  0  0  0  0  0  0  0
    7.6282   -2.1418   -0.5593 H   0  0  0  0  0  0  0  0  0  0  0  0
    4.9892    0.5314   -0.4581 H   0  0  0  0  0  0  0  0  0  0  0  0
    5.6965   -0.3908   -2.6225 H   0  0  0  0  0  0  0  0  0  0  0  0
    4.2318   -1.9361   -4.0588 H   0  0  0  0  0  0  0  0  0  0  0  0
  2  1  1  6
  1 33  1  0
  1 34  1  0
  1 35  1  0
  2 17  1  0
  2 19  1  0
  2  3  1  0
  3  4  1  0
  3 36  1  0
  3 37  1  0
  4  5  1  0
  6  4  1  1
  4 38  1  6
  5 39  1  0
  6 11  1  0
  6 17  1  0
  6  7  1  0
  7  8  1  0
  7  9  1  0
  7 40  1  1
  8 41  1  0
  9 10  1  0
 10 11  1  0
 10 42  1  0
 10 43  1  0
 11 12  1  0
 11 44  1  1
 12 20  1  0
 12 26  1  0
 12 13  1  1
 13 14  1  0
 13 45  1  0
 13 46  1  0
 14 15  1  0
 14 47  1  0
 14 48  1  0
 15 16  1  1
 15 17  1  0
 15 18  1  0
 16 49  1  0
 16 50  1  0
 16 51  1  0
 17 52  1  6
 18 19  1  0
 18 20  1  0
 18 53  1  6
 19 54  1  0
 19 55  1  0
 20 21  1  6
 20 22  1  0
 21 56  1  0
 21 57  1  0
 21 58  1  0
 22 28  1  0
 22 23  1  0
 22 59  1  6
 23 32  1  0
 23 24  1  6
 23 25  1  0
 24 60  1  0
 24 61  1  0
 24 62  1  0
 25 26  1  0
 25 63  1  0
 25 64  1  0
 26 27  1  6
 26 28  1  0
 27 65  1  0
 27 66  1  0
 27 67  1  0
 28 29  1  1
 28 30  1  0
 29 68  1  0
 30 32  1  0
 30 31  1  0
 30 69  1  6
 31 32  1  0
 32 70  1  6
M  END
>  <i_m_ct_stereo_status>  (179) 
1

>  <s_m_source_file>  (179) 
/var/tmp/pbs.5076255.sched01/tmp7w47f283/46ruht8ay8.sdf

>  <i_m_source_file_index>  (179) 
29

>  <i_lp_mmshare_version>  (179) 
48012

>  <i_f3d_flags>  (179) 
0

>  <s_epik_input>  (179) 
W09IXVtDQEBIXTFbQ0gyXVtDQEBdKFtDSDNdKShbQ0gyXTIpW0NASF0zW0NAQF0oW0NIM10pKFtDSDJdW0NIMl00KVtDQEhdMltDQF0oW0NIM10pKFtDQF00NVtDQEBIXShbQ0BAXTEzNilbQ0gyXU9bQ0BASF02W09IXSlbQ0BASF03W0NAQF04KFtDSDNdKVtDQEBIXTlbQ0BASF0oTzkpW0NAXTcoW09IXSlbQ0BAXTUoW0NIMl04KVtDSDNd

>  <s_epik_cmdline>  (179) 
J2VwaWtfcHl0aG9uJywgJy1waHQnLCAnMi4wJywgJy1waCcsICc3LjAnLCAnLXRuJywgJzgnLCAnLW1hJywgJzIwMCcsICctaW1hZScsICc8aW5maWxlLm1hZT4nLCAnLW9tYWUnLCAnPG91dGZpbGUubWFlPic=

>  <r_lp_tautomer_probability>  (179) 
1

>  <r_epik_Ionization_Penalty>  (179) 
6.39723e-07

>  <r_epik_Ionization_Penalty_Charging>  (179) 
0

>  <r_epik_Ionization_Penalty_Neutral>  (179) 
6.39723e-07

>  <r_epik_State_Penalty>  (179) 
-0

>  <r_epik_Charging_Adjusted_Penalty>  (179) 
0

>  <i_epik_Tot_Q>  (179) 
0

>  <i_epik_Tot_abs_Q>  (179) 
0

>  <s_epik_Chemistry_Notes>  (179) 
This compound contains an acetal/aminal-like group ( X-CH(R)-Y where X, Y are N, S, or O) that may be acid/base labile, releasing an aldehyde.

>  <s_lp_Force_Field>  (179) 
OPLS3e

>  <r_lp_Energy>  (179) 
313.205

>  <b_lp_Chiralities_Consistent>  (179) 
1

>  <s_lp_Variant>  (179) 
49:0-1

>  <s_i_glide_gridfile>  (179) 
pfpi4k_grid

>  <i_i_glide_lignum>  (179) 
29

>  <i_i_glide_rotatable_bonds>  (179) 
3

>  <r_i_docking_score>  (179) 
-2.55087

>  <r_i_glide_ligand_efficiency>  (179) 
-0.0797147

>  <r_i_glide_ligand_efficiency_sa>  (179) 
-0.253078

>  <r_i_glide_ligand_efficiency_ln>  (179) 
-0.571209

>  <r_i_glide_gscore>  (179) 
-2.55087

>  <r_i_glide_lipo>  (179) 
-0.6217

>  <r_i_glide_hbond>  (179) 
0

>  <r_i_glide_metal>  (179) 
-0

>  <r_i_glide_rewards>  (179) 
-0.391448

>  <r_i_glide_evdw>  (179) 
-22.1431

>  <r_i_glide_ecoul>  (179) 
-2.87046

>  <r_i_glide_erotb>  (179) 
0

>  <r_i_glide_esite>  (179) 
0

>  <r_i_glide_emodel>  (179) 
-26.3211

>  <r_i_glide_energy>  (179) 
-25.0135

>  <r_i_glide_einternal>  (179) 
1.05251

>  <r_i_glide_intrahb_reward>  (179) 
-0

>  <i_i_glide_confnum>  (179) 
2

>  <i_i_glide_posenum>  (179) 
29

>  <r_i_glide_eff_state_penalty>  (179) 
0

>  <ligand_id>  (179) 
49

>  <original_smiles>  (179) 
CC12CC(O)C34C(O)OCC3C35CCC(C)(C14)C(C2)C3(C)C1C2(C)CC5(C)C1(O)C1OC12

>  <smiles>  (179) 
[H]OC1([H])OC([H])([H])C2([H])C13C([H])(O[H])C([H])([H])C1(C([H])([H])[H])C([H])([H])C4([H])C(C([H])([H])[H])(C([H])([H])C([H])([H])C25C4(C([H])([H])[H])C2([H])C4(O[H])C6([H])OC6([H])C2(C([H])([H])[H])C([H])([H])C45C([H])([H])[H])C13[H]

$$$$
49:0:2
     RDKit          3D

 70 78  0  0  1  0  0  0  0  0999 V2000
    1.4441   -2.5937    5.2357 C   0  0  0  0  0  0  0  0  0  0  0  0
    2.6821   -1.8002    4.7493 C   0  0  1  0  0  0  0  0  0  0  0  0
    3.8194   -1.7696    5.8781 C   0  0  0  0  0  0  0  0  0  0  0  0
    5.1076   -2.6127    5.4090 C   0  0  1  0  0  0  0  0  0  0  0  0
    5.7252   -3.3172    6.4688 O   0  0  0  0  0  0  0  0  0  0  0  0
    4.6312   -3.4760    4.2020 C   0  0  2  0  0  0  0  0  0  0  0  0
    4.0610   -4.8811    4.6613 C   0  0  1  0  0  0  0  0  0  0  0  0
    2.6557   -5.0641    4.5221 O   0  0  0  0  0  0  0  0  0  0  0  0
    4.7058   -5.8206    3.8685 O   0  0  0  0  0  0  0  0  0  0  0  0
    4.7048   -5.3295    2.5411 C   0  0  0  0  0  0  0  0  0  0  0  0
    5.1830   -3.8860    2.7490 C   0  0  1  0  0  0  0  0  0  0  0  0
    4.9871   -2.8882    1.4718 C   0  0  2  0  0  0  0  0  0  0  0  0
    6.1577   -1.9454    1.8327 C   0  0  0  0  0  0  0  0  0  0  0  0
    5.7364   -0.7910    2.6191 C   0  0  0  0  0  0  0  0  0  0  0  0
    4.3473   -0.9379    3.2484 C   0  0  2  0  0  0  0  0  0  0  0  0
    4.4291    0.4143    4.0992 C   0  0  0  0  0  0  0  0  0  0  0  0
    3.7135   -2.3422    3.8673 C   0  0  2  0  0  0  0  0  0  0  0  0
    3.2622   -0.8940    2.2341 C   0  0  2  0  0  0  0  0  0  0  0  0
    2.2042   -0.9145    3.4567 C   0  0  0  0  0  0  0  0  0  0  0  0
    3.5307   -2.1577    1.2048 C   0  0  2  0  0  0  0  0  0  0  0  0
    2.2584   -3.0246    1.2628 C   0  0  0  0  0  0  0  0  0  0  0  0
    3.5878   -1.9189   -0.3855 C   0  0  2  0  0  0  0  0  0  0  0  0
    3.3402   -3.1767   -1.3380 C   0  0  2  0  0  0  0  0  0  0  0  0
    1.9085   -3.6768   -1.6499 C   0  0  0  0  0  0  0  0  0  0  0  0
    4.3337   -4.1891   -0.7018 C   0  0  0  0  0  0  0  0  0  0  0  0
    5.3760   -3.2512   -0.0152 C   0  0  2  0  0  0  0  0  0  0  0  0
    6.7942   -3.8267   -0.2219 C   0  0  0  0  0  0  0  0  0  0  0  0
    5.0584   -1.9004   -0.8042 C   0  0  2  0  0  0  0  0  0  0  0  0
    5.6596   -0.6564   -0.5655 O   0  0  0  0  0  0  0  0  0  0  0  0
    5.1306   -2.0375   -2.2778 C   0  0  2  0  0  0  0  0  0  0  0  0
    4.0749   -1.4242   -3.0731 O   0  0  0  0  0  0  0  0  0  0  0  0
    3.9681   -2.8125   -2.6529 C   0  0  2  0  0  0  0  0  0  0  0  0
    0.7151   -1.9083    5.6512 H   0  0  0  0  0  0  0  0  0  0  0  0
    1.6768   -3.3166    6.0174 H   0  0  0  0  0  0  0  0  0  0  0  0
    0.9460   -3.1238    4.4182 H   0  0  0  0  0  0  0  0  0  0  0  0
    4.0793   -0.7853    6.2424 H   0  0  0  0  0  0  0  0  0  0  0  0
    3.4257   -2.2442    6.7730 H   0  0  0  0  0  0  0  0  0  0  0  0
    5.8543   -1.9012    5.0828 H   0  0  0  0  0  0  0  0  0  0  0  0
    5.0982   -3.8863    6.8714 H   0  0  0  0  0  0  0  0  0  0  0  0
    4.2948   -5.1478    5.6834 H   0  0  0  0  0  0  0  0  0  0  0  0
    2.4187   -4.8186    3.6539 H   0  0  0  0  0  0  0  0  0  0  0  0
    5.3892   -5.9063    1.9186 H   0  0  0  0  0  0  0  0  0  0  0  0
    3.7040   -5.3952    2.1175 H   0  0  0  0  0  0  0  0  0  0  0  0
    6.2157   -4.1673    2.9203 H   0  0  0  0  0  0  0  0  0  0  0  0
    6.9167   -2.4563    2.3709 H   0  0  0  0  0  0  0  0  0  0  0  0
    6.8494   -1.6012    1.0808 H   0  0  0  0  0  0  0  0  0  0  0  0
    6.5241   -0.5937    3.3397 H   0  0  0  0  0  0  0  0  0  0  0  0
    5.7433    0.0807    1.9630 H   0  0  0  0  0  0  0  0  0  0  0  0
    3.6036    0.6851    4.7476 H   0  0  0  0  0  0  0  0  0  0  0  0
    4.5143    1.2590    3.4233 H   0  0  0  0  0  0  0  0  0  0  0  0
    5.3052    0.4478    4.7537 H   0  0  0  0  0  0  0  0  0  0  0  0
    3.1206   -3.0035    3.3313 H   0  0  0  0  0  0  0  0  0  0  0  0
    3.2356    0.0506    1.6810 H   0  0  0  0  0  0  0  0  0  0  0  0
    1.2334   -1.2470    3.0841 H   0  0  0  0  0  0  0  0  0  0  0  0
    1.9274    0.0995    3.7661 H   0  0  0  0  0  0  0  0  0  0  0  0
    1.5290   -2.5805    0.5772 H   0  0  0  0  0  0  0  0  0  0  0  0
    1.6276   -3.0479    2.1430 H   0  0  0  0  0  0  0  0  0  0  0  0
    2.3795   -4.0756    1.0355 H   0  0  0  0  0  0  0  0  0  0  0  0
    3.0204   -1.0442   -0.7088 H   0  0  0  0  0  0  0  0  0  0  0  0
    1.8867   -4.2593   -2.5706 H   0  0  0  0  0  0  0  0  0  0  0  0
    1.2311   -2.8570   -1.8526 H   0  0  0  0  0  0  0  0  0  0  0  0
    1.4879   -4.3393   -0.8980 H   0  0  0  0  0  0  0  0  0  0  0  0
    3.8865   -4.9104   -0.0286 H   0  0  0  0  0  0  0  0  0  0  0  0
    4.7755   -4.8159   -1.4817 H   0  0  0  0  0  0  0  0  0  0  0  0
    6.8708   -4.0944   -1.2614 H   0  0  0  0  0  0  0  0  0  0  0  0
    6.9676   -4.7140    0.3825 H   0  0  0  0  0  0  0  0  0  0  0  0
    7.6215   -3.1381   -0.0598 H   0  0  0  0  0  0  0  0  0  0  0  0
    5.0555    0.0383   -0.7795 H   0  0  0  0  0  0  0  0  0  0  0  0
    6.0732   -2.2884   -2.7587 H   0  0  0  0  0  0  0  0  0  0  0  0
    4.0555   -3.5515   -3.4504 H   0  0  0  0  0  0  0  0  0  0  0  0
  2  1  1  1
  1 33  1  0
  1 34  1  0
  1 35  1  0
  2 17  1  0
  2 19  1  0
  2  3  1  0
  3  4  1  0
  3 36  1  0
  3 37  1  0
  4  5  1  0
  6  4  1  1
  4 38  1  6
  5 39  1  0
  6 11  1  0
  6 17  1  0
  6  7  1  0
  7  8  1  0
  7  9  1  0
  7 40  1  1
  8 41  1  0
  9 10  1  0
 10 11  1  0
 10 42  1  0
 10 43  1  0
 11 12  1  0
 11 44  1  1
 12 20  1  0
 12 26  1  0
 12 13  1  1
 13 14  1  0
 13 45  1  0
 13 46  1  0
 14 15  1  0
 14 47  1  0
 14 48  1  0
 15 16  1  1
 15 17  1  0
 15 18  1  0
 16 49  1  0
 16 50  1  0
 16 51  1  0
 17 52  1  6
 18 19  1  0
 18 20  1  0
 18 53  1  6
 19 54  1  0
 19 55  1  0
 20 21  1  6
 20 22  1  0
 21 56  1  0
 21 57  1  0
 21 58  1  0
 22 28  1  0
 22 23  1  0
 22 59  1  6
 23 32  1  0
 23 24  1  6
 23 25  1  0
 24 60  1  0
 24 61  1  0
 24 62  1  0
 25 26  1  0
 25 63  1  0
 25 64  1  0
 26 27  1  1
 26 28  1  0
 27 65  1  0
 27 66  1  0
 27 67  1  0
 28 29  1  1
 28 30  1  0
 29 68  1  0
 30 32  1  0
 30 31  1  0
 30 69  1  6
 31 32  1  0
 32 70  1  6
M  END
>  <i_m_ct_stereo_status>  (180) 
1

>  <s_m_source_file>  (180) 
/var/tmp/pbs.5076255.sched01/tmp7w47f283/46ruht8ay8.sdf

>  <i_m_source_file_index>  (180) 
29

>  <i_lp_mmshare_version>  (180) 
48012

>  <i_f3d_flags>  (180) 
0

>  <s_epik_input>  (180) 
W09IXVtDQEBIXTFbQ0gyXVtDQEBdKFtDSDNdKShbQ0gyXTIpW0NASF0zW0NAQF0oW0NIM10pKFtDSDJdW0NIMl00KVtDQEhdMltDQF0oW0NIM10pKFtDQF00NVtDQEBIXShbQ0BAXTEzNilbQ0gyXU9bQ0BASF02W09IXSlbQ0BASF03W0NAQF04KFtDSDNdKVtDQEBIXTlbQ0BASF0oTzkpW0NAXTcoW09IXSlbQ0BAXTUoW0NIMl04KVtDSDNd

>  <s_epik_cmdline>  (180) 
J2VwaWtfcHl0aG9uJywgJy1waHQnLCAnMi4wJywgJy1waCcsICc3LjAnLCAnLXRuJywgJzgnLCAnLW1hJywgJzIwMCcsICctaW1hZScsICc8aW5maWxlLm1hZT4nLCAnLW9tYWUnLCAnPG91dGZpbGUubWFlPic=

>  <r_lp_tautomer_probability>  (180) 
1

>  <r_epik_Ionization_Penalty>  (180) 
6.39723e-07

>  <r_epik_Ionization_Penalty_Charging>  (180) 
0

>  <r_epik_Ionization_Penalty_Neutral>  (180) 
6.39723e-07

>  <r_epik_State_Penalty>  (180) 
-0

>  <r_epik_Charging_Adjusted_Penalty>  (180) 
0

>  <i_epik_Tot_Q>  (180) 
0

>  <i_epik_Tot_abs_Q>  (180) 
0

>  <s_epik_Chemistry_Notes>  (180) 
This compound contains an acetal/aminal-like group ( X-CH(R)-Y where X, Y are N, S, or O) that may be acid/base labile, releasing an aldehyde.

>  <s_lp_Force_Field>  (180) 
OPLS3e

>  <r_lp_Energy>  (180) 
313.205

>  <b_lp_Chiralities_Consistent>  (180) 
1

>  <s_lp_Variant>  (180) 
49:0-1

>  <s_i_glide_gridfile>  (180) 
pfpi4k_grid

>  <i_i_glide_lignum>  (180) 
29

>  <i_i_glide_rotatable_bonds>  (180) 
3

>  <r_i_docking_score>  (180) 
-2.20051

>  <r_i_glide_ligand_efficiency>  (180) 
-0.0687659

>  <r_i_glide_ligand_efficiency_sa>  (180) 
-0.218318

>  <r_i_glide_ligand_efficiency_ln>  (180) 
-0.492754

>  <r_i_glide_gscore>  (180) 
-2.20051

>  <r_i_glide_lipo>  (180) 
-0.561654

>  <r_i_glide_hbond>  (180) 
0

>  <r_i_glide_metal>  (180) 
-0

>  <r_i_glide_rewards>  (180) 
-0.391448

>  <r_i_glide_evdw>  (180) 
-13.8022

>  <r_i_glide_ecoul>  (180) 
-3.71532

>  <r_i_glide_erotb>  (180) 
0

>  <r_i_glide_esite>  (180) 
0

>  <r_i_glide_emodel>  (180) 
-19.022

>  <r_i_glide_energy>  (180) 
-17.5175

>  <r_i_glide_einternal>  (180) 
0.457505

>  <r_i_glide_intrahb_reward>  (180) 
-0

>  <i_i_glide_confnum>  (180) 
2

>  <i_i_glide_posenum>  (180) 
1

>  <r_i_glide_eff_state_penalty>  (180) 
0

>  <ligand_id>  (180) 
49

>  <original_smiles>  (180) 
CC12CC(O)C34C(O)OCC3C35CCC(C)(C14)C(C2)C3(C)C1C2(C)CC5(C)C1(O)C1OC12

>  <smiles>  (180) 
[H]OC1([H])OC([H])([H])C2([H])C13C([H])(O[H])C([H])([H])C1(C([H])([H])[H])C([H])([H])C4([H])C(C([H])([H])[H])(C([H])([H])C([H])([H])C25C4(C([H])([H])[H])C2([H])C4(O[H])C6([H])OC6([H])C2(C([H])([H])[H])C([H])([H])C45C([H])([H])[H])C13[H]

$$$$
50:0:0
     RDKit          3D

 78 84  0  0  1  0  0  0  0  0999 V2000
    3.1263   -3.6052    5.2033 C   0  0  0  0  0  0  0  0  0  0  0  0
    3.6086   -4.0862    3.8176 C   0  0  1  0  0  0  0  0  0  0  0  0
    4.9392   -4.8569    3.9774 C   0  0  0  0  0  0  0  0  0  0  0  0
    4.7794   -6.3896    3.9515 C   0  0  0  0  0  0  0  0  0  0  0  0
    3.4742   -6.8936    4.5812 C   0  0  1  0  0  0  0  0  0  0  0  0
    3.5113   -8.3471    5.0445 C   0  0  0  0  0  0  0  0  0  0  0  0
    3.3770   -7.2694    6.0819 C   0  0  1  0  0  0  0  0  0  0  0  0
    4.5587   -7.0302    7.0238 C   0  0  0  0  0  0  0  0  0  0  0  0
    4.4813   -7.8647    8.3120 C   0  0  0  0  0  0  0  0  0  0  0  0
    3.1542   -7.6550    9.0533 C   0  0  1  0  0  0  0  0  0  0  0  0
    3.1529   -6.3281    9.5500 O   0  0  0  0  0  0  0  0  0  0  0  0
    1.9130   -7.9274    8.1542 C   0  0  0  0  0  0  0  0  0  0  0  0
    1.8424   -9.4447    7.8516 C   0  0  0  0  0  0  0  0  0  0  0  0
    0.6453   -7.5403    8.9584 C   0  0  0  0  0  0  0  0  0  0  0  0
    2.0512   -7.0639    6.8479 C   0  0  2  0  0  0  0  0  0  0  0  0
    0.8722   -7.0874    5.8606 C   0  0  0  0  0  0  0  0  0  0  0  0
   -0.0913   -7.8454    5.9322 O   0  0  0  0  0  0  0  0  0  0  0  0
    1.0021   -6.0731    4.7392 C   0  0  0  0  0  0  0  0  0  0  0  0
    2.2255   -6.3369    3.8131 C   0  0  2  0  0  0  0  0  0  0  0  0
    1.7597   -7.3588    2.7400 C   0  0  0  0  0  0  0  0  0  0  0  0
    2.5971   -5.0010    3.1407 C   0  0  0  0  0  0  0  0  0  0  0  0
    2.2896   -4.5863    1.9100 C   0  0  0  0  0  0  0  0  0  0  0  0
    2.9792   -3.3016    1.5035 C   0  0  1  0  0  0  0  0  0  0  0  0
    3.6597   -2.8764    2.8364 C   0  0  2  0  0  0  0  0  0  0  0  0
    4.9505   -2.0242    2.7678 C   0  0  0  0  0  0  0  0  0  0  0  0
    5.7690   -2.1703    1.4714 C   0  0  0  0  0  0  0  0  0  0  0  0
    4.8726   -2.1594    0.2011 C   0  0  1  0  0  0  0  0  0  0  0  0
    4.1206   -0.7963    0.1513 C   0  0  0  0  0  0  0  0  0  0  0  0
    5.7238   -2.1934   -1.0890 C   0  0  0  0  0  0  0  0  0  0  0  0
    6.9178   -1.8924   -1.0593 O   0  0  0  0  0  0  0  0  0  0  0  0
    5.0218   -2.5574   -2.3387 C   0  0  0  0  0  0  0  0  0  0  0  0
    3.7814   -3.0972   -2.3370 C   0  0  0  0  0  0  0  0  0  0  0  0
    3.0683   -3.4448   -1.0867 C   0  0  0  0  0  0  0  0  0  0  0  0
    1.8874   -3.8031   -1.0818 O   0  0  0  0  0  0  0  0  0  0  0  0
    3.8989   -3.4091    0.2300 C   0  0  2  0  0  0  0  0  0  0  0  0
    4.6752   -4.7664    0.2200 C   0  0  0  0  0  0  0  0  0  0  0  0
    3.7901   -2.8407    5.6025 H   0  0  0  0  0  0  0  0  0  0  0  0
    3.1070   -4.4164    5.9293 H   0  0  0  0  0  0  0  0  0  0  0  0
    2.1251   -3.1783    5.1616 H   0  0  0  0  0  0  0  0  0  0  0  0
    5.6378   -4.5884    3.1932 H   0  0  0  0  0  0  0  0  0  0  0  0
    5.4328   -4.5450    4.8974 H   0  0  0  0  0  0  0  0  0  0  0  0
    4.8105   -6.7433    2.9208 H   0  0  0  0  0  0  0  0  0  0  0  0
    5.6403   -6.8354    4.4450 H   0  0  0  0  0  0  0  0  0  0  0  0
    2.6597   -8.9980    4.8725 H   0  0  0  0  0  0  0  0  0  0  0  0
    4.4638   -8.8636    4.9922 H   0  0  0  0  0  0  0  0  0  0  0  0
    5.4893   -7.3003    6.5282 H   0  0  0  0  0  0  0  0  0  0  0  0
    4.6200   -5.9648    7.2579 H   0  0  0  0  0  0  0  0  0  0  0  0
    4.6032   -8.9180    8.0658 H   0  0  0  0  0  0  0  0  0  0  0  0
    5.3220   -7.6211    8.9625 H   0  0  0  0  0  0  0  0  0  0  0  0
    3.1282   -8.3170    9.9207 H   0  0  0  0  0  0  0  0  0  0  0  0
    3.8906   -6.2271   10.1350 H   0  0  0  0  0  0  0  0  0  0  0  0
    0.9304   -9.7196    7.3193 H   0  0  0  0  0  0  0  0  0  0  0  0
    1.8619  -10.0336    8.7705 H   0  0  0  0  0  0  0  0  0  0  0  0
    2.6773   -9.7825    7.2386 H   0  0  0  0  0  0  0  0  0  0  0  0
   -0.2709   -7.8857    8.4803 H   0  0  0  0  0  0  0  0  0  0  0  0
    0.5634   -6.4581    9.0779 H   0  0  0  0  0  0  0  0  0  0  0  0
    0.6655   -7.9745    9.9584 H   0  0  0  0  0  0  0  0  0  0  0  0
    2.0746   -6.0273    7.1855 H   0  0  0  0  0  0  0  0  0  0  0  0
    0.0793   -6.0689    4.1626 H   0  0  0  0  0  0  0  0  0  0  0  0
    1.0594   -5.0972    5.2164 H   0  0  0  0  0  0  0  0  0  0  0  0
    1.4405   -8.3021    3.1774 H   0  0  0  0  0  0  0  0  0  0  0  0
    2.5473   -7.5771    2.0167 H   0  0  0  0  0  0  0  0  0  0  0  0
    0.8938   -6.9904    2.1883 H   0  0  0  0  0  0  0  0  0  0  0  0
    1.6507   -5.1125    1.2219 H   0  0  0  0  0  0  0  0  0  0  0  0
    2.1910   -2.5779    1.2878 H   0  0  0  0  0  0  0  0  0  0  0  0
    2.9343   -2.1756    3.2486 H   0  0  0  0  0  0  0  0  0  0  0  0
    4.6705   -0.9721    2.8749 H   0  0  0  0  0  0  0  0  0  0  0  0
    5.5806   -2.2215    3.6336 H   0  0  0  0  0  0  0  0  0  0  0  0
    6.4964   -1.3546    1.4367 H   0  0  0  0  0  0  0  0  0  0  0  0
    6.3731   -3.0752    1.5169 H   0  0  0  0  0  0  0  0  0  0  0  0
    3.4398   -0.6496    0.9882 H   0  0  0  0  0  0  0  0  0  0  0  0
    3.5212   -0.6815   -0.7524 H   0  0  0  0  0  0  0  0  0  0  0  0
    4.8259    0.0363    0.1717 H   0  0  0  0  0  0  0  0  0  0  0  0
    5.5340   -2.3650   -3.2696 H   0  0  0  0  0  0  0  0  0  0  0  0
    3.2852   -3.3402   -3.2678 H   0  0  0  0  0  0  0  0  0  0  0  0
    5.2618   -4.9360    1.1176 H   0  0  0  0  0  0  0  0  0  0  0  0
    5.3662   -4.8501   -0.6201 H   0  0  0  0  0  0  0  0  0  0  0  0
    3.9974   -5.6168    0.1238 H   0  0  0  0  0  0  0  0  0  0  0  0
  2  1  1  1
  1 37  1  0
  1 38  1  0
  1 39  1  0
  2 21  1  0
  2 24  1  0
  2  3  1  0
  3  4  1  0
  3 40  1  0
  3 41  1  0
  5  4  1  1
  4 42  1  0
  4 43  1  0
  5  7  1  0
  5 19  1  0
  5  6  1  0
  7  6  1  6
  6 44  1  0
  6 45  1  0
  7 15  1  0
  7  8  1  0
  8  9  1  0
  8 46  1  0
  8 47  1  0
  9 10  1  0
  9 48  1  0
  9 49  1  0
 10 11  1  0
 10 12  1  0
 10 50  1  1
 11 51  1  0
 12 13  1  0
 12 14  1  0
 12 15  1  0
 13 52  1  0
 13 53  1  0
 13 54  1  0
 14 55  1  0
 14 56  1  0
 14 57  1  0
 15 16  1  0
 15 58  1  1
 16 17  2  0
 16 18  1  0
 18 19  1  0
 18 59  1  0
 18 60  1  0
 19 20  1  6
 19 21  1  0
 20 61  1  0
 20 62  1  0
 20 63  1  0
 21 22  2  0
 22 23  1  0
 22 64  1  0
 23 35  1  0
 23 24  1  0
 23 65  1  6
 24 25  1  0
 24 66  1  1
 25 26  1  0
 25 67  1  0
 25 68  1  0
 26 27  1  0
 26 69  1  0
 26 70  1  0
 27 35  1  0
 27 28  1  6
 27 29  1  0
 28 71  1  0
 28 72  1  0
 28 73  1  0
 29 30  2  0
 29 31  1  0
 31 32  2  0
 31 74  1  0
 32 33  1  0
 32 75  1  0
 33 34  2  0
 33 35  1  0
 35 36  1  1
 36 76  1  0
 36 77  1  0
 36 78  1  0
M  END
>  <i_m_ct_stereo_status>  (181) 
1

>  <s_m_source_file>  (181) 
/var/tmp/pbs.5076255.sched01/tmp7w47f283/46ruht8ay8.sdf

>  <i_m_source_file_index>  (181) 
30

>  <i_lp_mmshare_version>  (181) 
48012

>  <i_f3d_flags>  (181) 
0

>  <s_epik_input>  (181) 
Tz1DMVtDSF09W0NIXUMoPU8pW0NAXShbQ0gzXSkoW0NIMl1bQ0gyXTIpW0NAQF0xKFtDSDNdKVtDQEBIXShbQ0hdMylbQ0BIXTJbQ0BdKFtDSDNdKShbQ0gyXVtDSDJdNClDPTNbQ0BdNShbQ0gzXSlbQ0gyXUMoPU8pW0NASF0oW0NAXTYoW0NAXTQ1NylbQ0gyXTcpQyhbQ0gzXSkoW0NIM10pW0NASF0oW09IXSlbQ0gyXVtDSDJdNg==

>  <s_epik_cmdline>  (181) 
J2VwaWtfcHl0aG9uJywgJy1waHQnLCAnMi4wJywgJy1waCcsICc3LjAnLCAnLXRuJywgJzgnLCAnLW1hJywgJzIwMCcsICctaW1hZScsICc8aW5maWxlLm1hZT4nLCAnLW9tYWUnLCAnPG91dGZpbGUubWFlPic=

>  <r_lp_tautomer_probability>  (181) 
1

>  <r_epik_Ionization_Penalty>  (181) 
1.2223e-06

>  <r_epik_Ionization_Penalty_Charging>  (181) 
0

>  <r_epik_Ionization_Penalty_Neutral>  (181) 
1.2223e-06

>  <r_epik_State_Penalty>  (181) 
-0

>  <r_epik_Charging_Adjusted_Penalty>  (181) 
0

>  <i_epik_Tot_Q>  (181) 
0

>  <i_epik_Tot_abs_Q>  (181) 
0

>  <s_lp_Force_Field>  (181) 
OPLS3e

>  <r_lp_Energy>  (181) 
65.2675

>  <b_lp_Chiralities_Consistent>  (181) 
1

>  <s_lp_Variant>  (181) 
50:0-1

>  <s_i_glide_gridfile>  (181) 
pfpi4k_grid

>  <i_i_glide_lignum>  (181) 
30

>  <i_i_glide_rotatable_bonds>  (181) 
1

>  <r_i_docking_score>  (181) 
-2.57018

>  <r_i_glide_ligand_efficiency>  (181) 
-0.0713938

>  <r_i_glide_ligand_efficiency_sa>  (181) 
-0.235737

>  <r_i_glide_ligand_efficiency_ln>  (181) 
-0.560743

>  <r_i_glide_gscore>  (181) 
-2.57018

>  <r_i_glide_lipo>  (181) 
-0.344743

>  <r_i_glide_hbond>  (181) 
-0.16712

>  <r_i_glide_metal>  (181) 
-0

>  <r_i_glide_rewards>  (181) 
-0.170067

>  <r_i_glide_evdw>  (181) 
-27.3084

>  <r_i_glide_ecoul>  (181) 
-3.20762

>  <r_i_glide_erotb>  (181) 
0

>  <r_i_glide_esite>  (181) 
-0.0416871

>  <r_i_glide_emodel>  (181) 
-35.4974

>  <r_i_glide_energy>  (181) 
-30.516

>  <r_i_glide_einternal>  (181) 
0.32849

>  <r_i_glide_intrahb_reward>  (181) 
-0

>  <i_i_glide_confnum>  (181) 
2

>  <i_i_glide_posenum>  (181) 
1

>  <r_i_glide_eff_state_penalty>  (181) 
0

>  <ligand_id>  (181) 
50

>  <original_smiles>  (181) 
CC12CCC34CC35CCC(O)C(C)(C)C5C(=O)CC4(C)C1=CC1C2CCC2(C)C(=O)C=CC(=O)C12C

>  <smiles>  (181) 
[H]OC1([H])C([H])([H])C([H])([H])C23C([H])([H])C24C([H])([H])C([H])([H])C2(C([H])([H])[H])C(=C([H])C5([H])C2([H])C([H])([H])C([H])([H])C2(C([H])([H])[H])C(=O)C([H])=C([H])C(=O)C52C([H])([H])[H])C4(C([H])([H])[H])C([H])([H])C(=O)C3([H])C1(C([H])([H])[H])C([H])([H])[H]

$$$$
50:0:1
     RDKit          3D

 78 84  0  0  1  0  0  0  0  0999 V2000
    3.8747   -4.6982    4.9566 C   0  0  0  0  0  0  0  0  0  0  0  0
    4.1609   -4.8912    3.4510 C   0  0  1  0  0  0  0  0  0  0  0  0
    5.5945   -5.4448    3.2732 C   0  0  0  0  0  0  0  0  0  0  0  0
    5.6498   -6.9623    3.0151 C   0  0  0  0  0  0  0  0  0  0  0  0
    4.5621   -7.7604    3.7449 C   0  0  1  0  0  0  0  0  0  0  0  0
    4.8840   -9.2375    3.9469 C   0  0  0  0  0  0  0  0  0  0  0  0
    4.7891   -8.3556    5.1577 C   0  0  1  0  0  0  0  0  0  0  0  0
    6.0757   -8.0597    5.9334 C   0  0  0  0  0  0  0  0  0  0  0  0
    6.3480   -9.0694    7.0597 C   0  0  0  0  0  0  0  0  0  0  0  0
    5.1597   -9.1888    8.0223 C   0  0  1  0  0  0  0  0  0  0  0  0
    5.0662   -7.9639    8.7288 O   0  0  0  0  0  0  0  0  0  0  0  0
    3.8301   -9.5326    7.2928 C   0  0  0  0  0  0  0  0  0  0  0  0
    3.9265  -10.9813    6.7507 C   0  0  0  0  0  0  0  0  0  0  0  0
    2.6861   -9.4720    8.3387 C   0  0  0  0  0  0  0  0  0  0  0  0
    3.6071   -8.4838    6.1450 C   0  0  2  0  0  0  0  0  0  0  0  0
    2.2785   -8.5625    5.3699 C   0  0  0  0  0  0  0  0  0  0  0  0
    1.4479   -9.4587    5.4831 O   0  0  0  0  0  0  0  0  0  0  0  0
    2.0673   -7.3952    4.4204 C   0  0  0  0  0  0  0  0  0  0  0  0
    3.1284   -7.3165    3.2836 C   0  0  2  0  0  0  0  0  0  0  0  0
    2.6286   -8.2390    2.1396 C   0  0  0  0  0  0  0  0  0  0  0  0
    3.1800   -5.8533    2.7937 C   0  0  0  0  0  0  0  0  0  0  0  0
    2.5918   -5.3201    1.7159 C   0  0  0  0  0  0  0  0  0  0  0  0
    3.0185   -3.8945    1.4306 C   0  0  1  0  0  0  0  0  0  0  0  0
    3.8665   -3.5617    2.6937 C   0  0  2  0  0  0  0  0  0  0  0  0
    4.9960   -2.5084    2.5723 C   0  0  0  0  0  0  0  0  0  0  0  0
    5.5854   -2.3285    1.1605 C   0  0  0  0  0  0  0  0  0  0  0  0
    4.4863   -2.2779    0.0646 C   0  0  1  0  0  0  0  0  0  0  0  0
    3.5640   -1.0634    0.3749 C   0  0  0  0  0  0  0  0  0  0  0  0
    5.0896   -1.9808   -1.3305 C   0  0  0  0  0  0  0  0  0  0  0  0
    6.2114   -1.5100   -1.4297 O   0  0  0  0  0  0  0  0  0  0  0  0
    4.2384   -2.2718   -2.5051 C   0  0  0  0  0  0  0  0  0  0  0  0
    3.1110   -3.0125   -2.4036 C   0  0  0  0  0  0  0  0  0  0  0  0
    2.6794   -3.6392   -1.1340 C   0  0  0  0  0  0  0  0  0  0  0  0
    1.5973   -4.2075   -1.0454 O   0  0  0  0  0  0  0  0  0  0  0  0
    3.7108   -3.6601    0.0337 C   0  0  2  0  0  0  0  0  0  0  0  0
    4.6542   -4.8566   -0.3155 C   0  0  0  0  0  0  0  0  0  0  0  0
    4.4859   -3.8990    5.3713 H   0  0  0  0  0  0  0  0  0  0  0  0
    4.0995   -5.5949    5.5311 H   0  0  0  0  0  0  0  0  0  0  0  0
    2.8331   -4.4417    5.1449 H   0  0  0  0  0  0  0  0  0  0  0  0
    6.0999   -4.9542    2.4495 H   0  0  0  0  0  0  0  0  0  0  0  0
    6.1953   -5.1898    4.1460 H   0  0  0  0  0  0  0  0  0  0  0  0
    5.5452   -7.1560    1.9480 H   0  0  0  0  0  0  0  0  0  0  0  0
    6.6391   -7.3242    3.2876 H   0  0  0  0  0  0  0  0  0  0  0  0
    4.1152   -9.9895    3.8023 H   0  0  0  0  0  0  0  0  0  0  0  0
    5.8743   -9.5764    3.6620 H   0  0  0  0  0  0  0  0  0  0  0  0
    6.9306   -8.0969    5.2615 H   0  0  0  0  0  0  0  0  0  0  0  0
    6.0266   -7.0433    6.3313 H   0  0  0  0  0  0  0  0  0  0  0  0
    6.5699  -10.0418    6.6252 H   0  0  0  0  0  0  0  0  0  0  0  0
    7.2485   -8.7840    7.6043 H   0  0  0  0  0  0  0  0  0  0  0  0
    5.3785   -9.9627    8.7598 H   0  0  0  0  0  0  0  0  0  0  0  0
    5.8688   -7.8348    9.2118 H   0  0  0  0  0  0  0  0  0  0  0  0
    2.9854  -11.3226    6.3219 H   0  0  0  0  0  0  0  0  0  0  0  0
    4.1781  -11.6837    7.5472 H   0  0  0  0  0  0  0  0  0  0  0  0
    4.6797  -11.0858    5.9709 H   0  0  0  0  0  0  0  0  0  0  0  0
    1.7537   -9.8911    7.9602 H   0  0  0  0  0  0  0  0  0  0  0  0
    2.4755   -8.4481    8.6519 H   0  0  0  0  0  0  0  0  0  0  0  0
    2.9401  -10.0416    9.2331 H   0  0  0  0  0  0  0  0  0  0  0  0
    3.5448   -7.5166    6.6446 H   0  0  0  0  0  0  0  0  0  0  0  0
    1.0637   -7.4623    4.0021 H   0  0  0  0  0  0  0  0  0  0  0  0
    2.0727   -6.5006    5.0390 H   0  0  0  0  0  0  0  0  0  0  0  0
    2.5283   -9.2750    2.4567 H   0  0  0  0  0  0  0  0  0  0  0  0
    3.2970   -8.2181    1.2773 H   0  0  0  0  0  0  0  0  0  0  0  0
    1.6346   -7.9458    1.7984 H   0  0  0  0  0  0  0  0  0  0  0  0
    1.9086   -5.8379    1.0633 H   0  0  0  0  0  0  0  0  0  0  0  0
    2.1149   -3.2843    1.4678 H   0  0  0  0  0  0  0  0  0  0  0  0
    3.1392   -3.0564    3.3288 H   0  0  0  0  0  0  0  0  0  0  0  0
    4.5962   -1.5428    2.8962 H   0  0  0  0  0  0  0  0  0  0  0  0
    5.7934   -2.7161    3.2840 H   0  0  0  0  0  0  0  0  0  0  0  0
    6.1727   -1.4061    1.1513 H   0  0  0  0  0  0  0  0  0  0  0  0
    6.3057   -3.1189    0.9561 H   0  0  0  0  0  0  0  0  0  0  0  0
    3.0136   -1.1576    1.3110 H   0  0  0  0  0  0  0  0  0  0  0  0
    2.8245   -0.9151   -0.4059 H   0  0  0  0  0  0  0  0  0  0  0  0
    4.1404   -0.1386    0.4280 H   0  0  0  0  0  0  0  0  0  0  0  0
    4.5419   -1.8682   -3.4617 H   0  0  0  0  0  0  0  0  0  0  0  0
    2.4910   -3.2087   -3.2707 H   0  0  0  0  0  0  0  0  0  0  0  0
    5.4127   -5.0531    0.4371 H   0  0  0  0  0  0  0  0  0  0  0  0
    5.1842   -4.7064   -1.2551 H   0  0  0  0  0  0  0  0  0  0  0  0
    4.0993   -5.7876   -0.4388 H   0  0  0  0  0  0  0  0  0  0  0  0
  2  1  1  1
  1 37  1  0
  1 38  1  0
  1 39  1  0
  2 21  1  0
  2 24  1  0
  2  3  1  0
  3  4  1  0
  3 40  1  0
  3 41  1  0
  5  4  1  6
  4 42  1  0
  4 43  1  0
  5  7  1  0
  5 19  1  0
  5  6  1  0
  7  6  1  6
  6 44  1  0
  6 45  1  0
  7 15  1  0
  7  8  1  0
  8  9  1  0
  8 46  1  0
  8 47  1  0
  9 10  1  0
  9 48  1  0
  9 49  1  0
 10 11  1  0
 10 12  1  0
 10 50  1  1
 11 51  1  0
 12 13  1  0
 12 14  1  0
 12 15  1  0
 13 52  1  0
 13 53  1  0
 13 54  1  0
 14 55  1  0
 14 56  1  0
 14 57  1  0
 15 16  1  0
 15 58  1  1
 16 17  2  0
 16 18  1  0
 18 19  1  0
 18 59  1  0
 18 60  1  0
 19 20  1  6
 19 21  1  0
 20 61  1  0
 20 62  1  0
 20 63  1  0
 21 22  2  0
 22 23  1  0
 22 64  1  0
 23 35  1  0
 23 24  1  0
 23 65  1  6
 24 25  1  0
 24 66  1  1
 25 26  1  0
 25 67  1  0
 25 68  1  0
 26 27  1  0
 26 69  1  0
 26 70  1  0
 27 35  1  0
 27 28  1  1
 27 29  1  0
 28 71  1  0
 28 72  1  0
 28 73  1  0
 29 30  2  0
 29 31  1  0
 31 32  2  0
 31 74  1  0
 32 33  1  0
 32 75  1  0
 33 34  2  0
 33 35  1  0
 35 36  1  6
 36 76  1  0
 36 77  1  0
 36 78  1  0
M  END
>  <i_m_ct_stereo_status>  (182) 
1

>  <s_m_source_file>  (182) 
/var/tmp/pbs.5076255.sched01/tmp7w47f283/46ruht8ay8.sdf

>  <i_m_source_file_index>  (182) 
30

>  <i_lp_mmshare_version>  (182) 
48012

>  <i_f3d_flags>  (182) 
0

>  <s_epik_input>  (182) 
Tz1DMVtDSF09W0NIXUMoPU8pW0NAXShbQ0gzXSkoW0NIMl1bQ0gyXTIpW0NAQF0xKFtDSDNdKVtDQEBIXShbQ0hdMylbQ0BIXTJbQ0BdKFtDSDNdKShbQ0gyXVtDSDJdNClDPTNbQ0BdNShbQ0gzXSlbQ0gyXUMoPU8pW0NASF0oW0NAXTYoW0NAXTQ1NylbQ0gyXTcpQyhbQ0gzXSkoW0NIM10pW0NASF0oW09IXSlbQ0gyXVtDSDJdNg==

>  <s_epik_cmdline>  (182) 
J2VwaWtfcHl0aG9uJywgJy1waHQnLCAnMi4wJywgJy1waCcsICc3LjAnLCAnLXRuJywgJzgnLCAnLW1hJywgJzIwMCcsICctaW1hZScsICc8aW5maWxlLm1hZT4nLCAnLW9tYWUnLCAnPG91dGZpbGUubWFlPic=

>  <r_lp_tautomer_probability>  (182) 
1

>  <r_epik_Ionization_Penalty>  (182) 
1.2223e-06

>  <r_epik_Ionization_Penalty_Charging>  (182) 
0

>  <r_epik_Ionization_Penalty_Neutral>  (182) 
1.2223e-06

>  <r_epik_State_Penalty>  (182) 
-0

>  <r_epik_Charging_Adjusted_Penalty>  (182) 
0

>  <i_epik_Tot_Q>  (182) 
0

>  <i_epik_Tot_abs_Q>  (182) 
0

>  <s_lp_Force_Field>  (182) 
OPLS3e

>  <r_lp_Energy>  (182) 
65.2675

>  <b_lp_Chiralities_Consistent>  (182) 
1

>  <s_lp_Variant>  (182) 
50:0-1

>  <s_i_glide_gridfile>  (182) 
pfpi4k_grid

>  <i_i_glide_lignum>  (182) 
30

>  <i_i_glide_rotatable_bonds>  (182) 
1

>  <r_i_docking_score>  (182) 
-2.12499

>  <r_i_glide_ligand_efficiency>  (182) 
-0.0590276

>  <r_i_glide_ligand_efficiency_sa>  (182) 
-0.194905

>  <r_i_glide_ligand_efficiency_ln>  (182) 
-0.463616

>  <r_i_glide_gscore>  (182) 
-2.12499

>  <r_i_glide_lipo>  (182) 
-0.219467

>  <r_i_glide_hbond>  (182) 
-0.122389

>  <r_i_glide_metal>  (182) 
-0

>  <r_i_glide_rewards>  (182) 
-0.0635899

>  <r_i_glide_evdw>  (182) 
-24.2532

>  <r_i_glide_ecoul>  (182) 
-3.09641

>  <r_i_glide_erotb>  (182) 
0

>  <r_i_glide_esite>  (182) 
-0.0424275

>  <r_i_glide_emodel>  (182) 
-31.3551

>  <r_i_glide_energy>  (182) 
-27.3496

>  <r_i_glide_einternal>  (182) 
0.329283

>  <r_i_glide_intrahb_reward>  (182) 
-0

>  <i_i_glide_confnum>  (182) 
2

>  <i_i_glide_posenum>  (182) 
33

>  <r_i_glide_eff_state_penalty>  (182) 
0

>  <ligand_id>  (182) 
50

>  <original_smiles>  (182) 
CC12CCC34CC35CCC(O)C(C)(C)C5C(=O)CC4(C)C1=CC1C2CCC2(C)C(=O)C=CC(=O)C12C

>  <smiles>  (182) 
[H]OC1([H])C([H])([H])C([H])([H])C23C([H])([H])C24C([H])([H])C([H])([H])C2(C([H])([H])[H])C(=C([H])C5([H])C2([H])C([H])([H])C([H])([H])C2(C([H])([H])[H])C(=O)C([H])=C([H])C(=O)C52C([H])([H])[H])C4(C([H])([H])[H])C([H])([H])C(=O)C3([H])C1(C([H])([H])[H])C([H])([H])[H]

$$$$
50:0:2
     RDKit          3D

 78 84  0  0  1  0  0  0  0  0999 V2000
    4.3894   -6.2110    4.9194 C   0  0  0  0  0  0  0  0  0  0  0  0
    4.6685   -5.8989    3.4316 C   0  0  1  0  0  0  0  0  0  0  0  0
    6.1717   -6.0747    3.1456 C   0  0  0  0  0  0  0  0  0  0  0  0
    6.5151   -7.4112    2.4592 C   0  0  0  0  0  0  0  0  0  0  0  0
    5.6377   -8.5886    2.8848 C   0  0  1  0  0  0  0  0  0  0  0  0
    6.2522   -9.9724    2.6651 C   0  0  0  0  0  0  0  0  0  0  0  0
    6.0248   -9.5184    4.0792 C   0  0  1  0  0  0  0  0  0  0  0  0
    7.2377   -9.2063    4.9471 C   0  0  0  0  0  0  0  0  0  0  0  0
    7.7445  -10.4204    5.7416 C   0  0  0  0  0  0  0  0  0  0  0  0
    6.6296  -11.0495    6.5845 C   0  0  1  0  0  0  0  0  0  0  0  0
    6.3063  -10.1301    7.6049 O   0  0  0  0  0  0  0  0  0  0  0  0
    5.3807  -11.4233    5.7465 C   0  0  0  0  0  0  0  0  0  0  0  0
    5.7354  -12.6085    4.8150 C   0  0  0  0  0  0  0  0  0  0  0  0
    4.2805  -11.9051    6.7246 C   0  0  0  0  0  0  0  0  0  0  0  0
    4.9256  -10.1557    4.9458 C   0  0  2  0  0  0  0  0  0  0  0  0
    3.6174  -10.2705    4.1436 C   0  0  0  0  0  0  0  0  0  0  0  0
    2.9866  -11.3062    3.9592 O   0  0  0  0  0  0  0  0  0  0  0  0
    3.1401   -8.9405    3.5676 C   0  0  0  0  0  0  0  0  0  0  0  0
    4.1363   -8.3112    2.5400 C   0  0  2  0  0  0  0  0  0  0  0  0
    3.7978   -8.9512    1.1707 C   0  0  0  0  0  0  0  0  0  0  0  0
    3.8748   -6.7980    2.5009 C   0  0  0  0  0  0  0  0  0  0  0  0
    3.1690   -6.1092    1.6034 C   0  0  0  0  0  0  0  0  0  0  0  0
    3.2892   -4.6075    1.7496 C   0  0  1  0  0  0  0  0  0  0  0  0
    4.0941   -4.4923    3.0760 C   0  0  2  0  0  0  0  0  0  0  0  0
    4.9724   -3.2397    3.3098 C   0  0  0  0  0  0  0  0  0  0  0  0
    5.4680   -2.5473    2.0286 C   0  0  0  0  0  0  0  0  0  0  0  0
    4.3531   -2.4064    0.9519 C   0  0  1  0  0  0  0  0  0  0  0  0
    3.2077   -1.5500    1.5676 C   0  0  0  0  0  0  0  0  0  0  0  0
    4.8471   -1.5983   -0.2810 C   0  0  0  0  0  0  0  0  0  0  0  0
    5.8529   -0.9095   -0.1989 O   0  0  0  0  0  0  0  0  0  0  0  0
    4.0459   -1.7155   -1.5256 C   0  0  0  0  0  0  0  0  0  0  0  0
    3.1008   -2.6685   -1.6772 C   0  0  0  0  0  0  0  0  0  0  0  0
    2.8393   -3.6987   -0.6427 C   0  0  0  0  0  0  0  0  0  0  0  0
    1.8737   -4.4327   -0.6766 O   0  0  0  0  0  0  0  0  0  0  0  0
    3.8832   -3.8431    0.5007 C   0  0  2  0  0  0  0  0  0  0  0  0
    5.0325   -4.6761   -0.1527 C   0  0  0  0  0  0  0  0  0  0  0  0
    4.8401   -5.4609    5.5650 H   0  0  0  0  0  0  0  0  0  0  0  0
    4.8049   -7.1734    5.2130 H   0  0  0  0  0  0  0  0  0  0  0  0
    3.3240   -6.2337    5.1409 H   0  0  0  0  0  0  0  0  0  0  0  0
    6.5454   -5.2791    2.5117 H   0  0  0  0  0  0  0  0  0  0  0  0
    6.7357   -5.9711    4.0691 H   0  0  0  0  0  0  0  0  0  0  0  0
    6.4290   -7.3064    1.3774 H   0  0  0  0  0  0  0  0  0  0  0  0
    7.5627   -7.6329    2.6438 H   0  0  0  0  0  0  0  0  0  0  0  0
    5.6384  -10.7811    2.2838 H   0  0  0  0  0  0  0  0  0  0  0  0
    7.2804   -9.9974    2.3366 H   0  0  0  0  0  0  0  0  0  0  0  0
    8.0635   -8.8766    4.3182 H   0  0  0  0  0  0  0  0  0  0  0  0
    7.0059   -8.3759    5.6194 H   0  0  0  0  0  0  0  0  0  0  0  0
    8.1453  -11.1591    5.0462 H   0  0  0  0  0  0  0  0  0  0  0  0
    8.5787  -10.1292    6.3738 H   0  0  0  0  0  0  0  0  0  0  0  0
    7.0249  -11.9411    7.0730 H   0  0  0  0  0  0  0  0  0  0  0  0
    5.6278  -10.5116    8.1435 H   0  0  0  0  0  0  0  0  0  0  0  0
    4.8621  -12.9952    4.2826 H   0  0  0  0  0  0  0  0  0  0  0  0
    6.1574  -13.4420    5.3786 H   0  0  0  0  0  0  0  0  0  0  0  0
    6.4641  -12.3300    4.0586 H   0  0  0  0  0  0  0  0  0  0  0  0
    3.4350  -12.3738    6.2188 H   0  0  0  0  0  0  0  0  0  0  0  0
    3.8623  -11.0820    7.3133 H   0  0  0  0  0  0  0  0  0  0  0  0
    4.6621  -12.6449    7.4322 H   0  0  0  0  0  0  0  0  0  0  0  0
    4.6757   -9.4096    5.6994 H   0  0  0  0  0  0  0  0  0  0  0  0
    2.1585   -9.0822    3.1198 H   0  0  0  0  0  0  0  0  0  0  0  0
    2.9822   -8.2870    4.4223 H   0  0  0  0  0  0  0  0  0  0  0  0
    3.9118  -10.0295    1.1904 H   0  0  0  0  0  0  0  0  0  0  0  0
    4.4163   -8.5527    0.3685 H   0  0  0  0  0  0  0  0  0  0  0  0
    2.7529   -8.7843    0.9073 H   0  0  0  0  0  0  0  0  0  0  0  0
    2.5704   -6.5393    0.8112 H   0  0  0  0  0  0  0  0  0  0  0  0
    2.2852   -4.2292    1.9323 H   0  0  0  0  0  0  0  0  0  0  0  0
    3.2992   -4.3514    3.8091 H   0  0  0  0  0  0  0  0  0  0  0  0
    4.3996   -2.5138    3.8862 H   0  0  0  0  0  0  0  0  0  0  0  0
    5.8175   -3.4906    3.9459 H   0  0  0  0  0  0  0  0  0  0  0  0
    5.8721   -1.5666    2.2986 H   0  0  0  0  0  0  0  0  0  0  0  0
    6.3314   -3.0804    1.6222 H   0  0  0  0  0  0  0  0  0  0  0  0
    2.7345   -2.0133    2.4307 H   0  0  0  0  0  0  0  0  0  0  0  0
    2.4053   -1.3400    0.8582 H   0  0  0  0  0  0  0  0  0  0  0  0
    3.5843   -0.5782    1.8977 H   0  0  0  0  0  0  0  0  0  0  0  0
    4.2192   -0.9762   -2.2906 H   0  0  0  0  0  0  0  0  0  0  0  0
    2.4976   -2.7184   -2.5701 H   0  0  0  0  0  0  0  0  0  0  0  0
    5.8377   -4.9315    0.5310 H   0  0  0  0  0  0  0  0  0  0  0  0
    5.4987   -4.1546   -0.9943 H   0  0  0  0  0  0  0  0  0  0  0  0
    4.6649   -5.6154   -0.5704 H   0  0  0  0  0  0  0  0  0  0  0  0
  2  1  1  1
  1 37  1  0
  1 38  1  0
  1 39  1  0
  2 21  1  0
  2 24  1  0
  2  3  1  0
  3  4  1  0
  3 40  1  0
  3 41  1  0
  5  4  1  1
  4 42  1  0
  4 43  1  0
  5  7  1  0
  5 19  1  0
  5  6  1  0
  7  6  1  6
  6 44  1  0
  6 45  1  0
  7 15  1  0
  7  8  1  0
  8  9  1  0
  8 46  1  0
  8 47  1  0
  9 10  1  0
  9 48  1  0
  9 49  1  0
 10 11  1  0
 10 12  1  0
 10 50  1  1
 11 51  1  0
 12 13  1  0
 12 14  1  0
 12 15  1  0
 13 52  1  0
 13 53  1  0
 13 54  1  0
 14 55  1  0
 14 56  1  0
 14 57  1  0
 15 16  1  0
 15 58  1  1
 16 17  2  0
 16 18  1  0
 18 19  1  0
 18 59  1  0
 18 60  1  0
 19 20  1  6
 19 21  1  0
 20 61  1  0
 20 62  1  0
 20 63  1  0
 21 22  2  0
 22 23  1  0
 22 64  1  0
 23 35  1  0
 23 24  1  0
 23 65  1  1
 24 25  1  0
 24 66  1  1
 25 26  1  0
 25 67  1  0
 25 68  1  0
 26 27  1  0
 26 69  1  0
 26 70  1  0
 27 35  1  0
 27 28  1  1
 27 29  1  0
 28 71  1  0
 28 72  1  0
 28 73  1  0
 29 30  2  0
 29 31  1  0
 31 32  2  0
 31 74  1  0
 32 33  1  0
 32 75  1  0
 33 34  2  0
 33 35  1  0
 35 36  1  6
 36 76  1  0
 36 77  1  0
 36 78  1  0
M  END
>  <i_m_ct_stereo_status>  (183) 
1

>  <s_m_source_file>  (183) 
/var/tmp/pbs.5076255.sched01/tmp7w47f283/46ruht8ay8.sdf

>  <i_m_source_file_index>  (183) 
30

>  <i_lp_mmshare_version>  (183) 
48012

>  <i_f3d_flags>  (183) 
0

>  <s_epik_input>  (183) 
Tz1DMVtDSF09W0NIXUMoPU8pW0NAXShbQ0gzXSkoW0NIMl1bQ0gyXTIpW0NAQF0xKFtDSDNdKVtDQEBIXShbQ0hdMylbQ0BIXTJbQ0BdKFtDSDNdKShbQ0gyXVtDSDJdNClDPTNbQ0BdNShbQ0gzXSlbQ0gyXUMoPU8pW0NASF0oW0NAXTYoW0NAXTQ1NylbQ0gyXTcpQyhbQ0gzXSkoW0NIM10pW0NASF0oW09IXSlbQ0gyXVtDSDJdNg==

>  <s_epik_cmdline>  (183) 
J2VwaWtfcHl0aG9uJywgJy1waHQnLCAnMi4wJywgJy1waCcsICc3LjAnLCAnLXRuJywgJzgnLCAnLW1hJywgJzIwMCcsICctaW1hZScsICc8aW5maWxlLm1hZT4nLCAnLW9tYWUnLCAnPG91dGZpbGUubWFlPic=

>  <r_lp_tautomer_probability>  (183) 
1

>  <r_epik_Ionization_Penalty>  (183) 
1.2223e-06

>  <r_epik_Ionization_Penalty_Charging>  (183) 
0

>  <r_epik_Ionization_Penalty_Neutral>  (183) 
1.2223e-06

>  <r_epik_State_Penalty>  (183) 
-0

>  <r_epik_Charging_Adjusted_Penalty>  (183) 
0

>  <i_epik_Tot_Q>  (183) 
0

>  <i_epik_Tot_abs_Q>  (183) 
0

>  <s_lp_Force_Field>  (183) 
OPLS3e

>  <r_lp_Energy>  (183) 
65.2675

>  <b_lp_Chiralities_Consistent>  (183) 
1

>  <s_lp_Variant>  (183) 
50:0-1

>  <s_i_glide_gridfile>  (183) 
pfpi4k_grid

>  <i_i_glide_lignum>  (183) 
30

>  <i_i_glide_rotatable_bonds>  (183) 
1

>  <r_i_docking_score>  (183) 
-1.98454

>  <r_i_glide_ligand_efficiency>  (183) 
-0.055126

>  <r_i_glide_ligand_efficiency_sa>  (183) 
-0.182022

>  <r_i_glide_ligand_efficiency_ln>  (183) 
-0.432972

>  <r_i_glide_gscore>  (183) 
-1.98454

>  <r_i_glide_lipo>  (183) 
-0.203645

>  <r_i_glide_hbond>  (183) 
-0.0037404

>  <r_i_glide_metal>  (183) 
-0

>  <r_i_glide_rewards>  (183) 
-0.0635899

>  <r_i_glide_evdw>  (183) 
-30.2144

>  <r_i_glide_ecoul>  (183) 
-1.02958

>  <r_i_glide_erotb>  (183) 
0

>  <r_i_glide_esite>  (183) 
-0.0484056

>  <r_i_glide_emodel>  (183) 
-34.9295

>  <r_i_glide_energy>  (183) 
-31.2439

>  <r_i_glide_einternal>  (183) 
0.351927

>  <r_i_glide_intrahb_reward>  (183) 
-0

>  <i_i_glide_confnum>  (183) 
2

>  <i_i_glide_posenum>  (183) 
35

>  <r_i_glide_eff_state_penalty>  (183) 
0

>  <ligand_id>  (183) 
50

>  <original_smiles>  (183) 
CC12CCC34CC35CCC(O)C(C)(C)C5C(=O)CC4(C)C1=CC1C2CCC2(C)C(=O)C=CC(=O)C12C

>  <smiles>  (183) 
[H]OC1([H])C([H])([H])C([H])([H])C23C([H])([H])C24C([H])([H])C([H])([H])C2(C([H])([H])[H])C(=C([H])C5([H])C2([H])C([H])([H])C([H])([H])C2(C([H])([H])[H])C(=O)C([H])=C([H])C(=O)C52C([H])([H])[H])C4(C([H])([H])[H])C([H])([H])C(=O)C3([H])C1(C([H])([H])[H])C([H])([H])[H]

$$$$
51:0:0
     RDKit          3D

 50 56  0  0  1  0  0  0  0  0999 V2000
    4.6576   -4.1150    4.0741 C   0  0  0  0  0  0  0  0  0  0  0  0
    4.8998   -4.6066    2.8428 C   0  0  0  0  0  0  0  0  0  0  0  0
    5.5271   -5.9591    2.6563 C   0  0  0  0  0  0  0  0  0  0  0  0
    6.6690   -5.8410    1.6481 C   0  0  0  0  0  0  0  0  0  0  0  0
    6.3750   -4.7557    0.5683 C   0  0  2  0  0  0  0  0  0  0  0  0
    7.0048   -3.3529    0.9316 C   0  0  1  0  0  0  0  0  0  0  0  0
    7.1231   -2.8081   -0.4546 C   0  0  0  0  0  0  0  0  0  0  0  0
    5.6936   -2.5861   -0.9853 C   0  0  2  0  0  0  0  0  0  0  0  0
    5.1072   -1.5286   -0.2409 C   0  0  1  0  0  0  0  0  0  0  0  0
    4.2312   -1.0216   -1.3620 O   0  0  0  0  0  0  0  0  0  0  0  0
    3.6340   -1.8714   -2.4544 C   0  0  1  0  0  0  0  0  0  0  0  0
    4.3652   -2.0124   -3.7924 C   0  0  0  0  0  0  0  0  0  0  0  0
    4.5854   -3.5219   -3.5496 C   0  0  0  0  0  0  0  0  0  0  0  0
    3.8104   -3.4128   -2.2159 C   0  0  1  0  0  0  0  0  0  0  0  0
    4.3424   -3.4623   -0.8186 C   0  0  2  0  0  0  0  0  0  0  0  0
    2.9677   -2.8387   -0.0305 C   0  0  0  0  0  0  0  0  0  0  0  0
    3.3238   -1.8451    1.1960 C   0  0  1  0  0  0  0  0  0  0  0  0
    2.4289   -1.9558    2.4594 C   0  0  0  0  0  0  0  0  0  0  0  0
    4.7685   -2.3317    1.2068 C   0  0  2  0  0  0  0  0  0  0  0  0
    6.1815   -2.2586    1.8259 C   0  0  0  0  0  0  0  0  0  0  0  0
    4.4844   -3.9258    1.5078 C   0  0  1  0  0  0  0  0  0  0  0  0
    4.8516   -4.6232    0.1826 C   0  0  2  0  0  0  0  0  0  0  0  0
    4.1867   -3.1521    4.2179 H   0  0  0  0  0  0  0  0  0  0  0  0
    4.9386   -4.6668    4.9619 H   0  0  0  0  0  0  0  0  0  0  0  0
    5.8615   -6.3976    3.6007 H   0  0  0  0  0  0  0  0  0  0  0  0
    4.7599   -6.6231    2.2447 H   0  0  0  0  0  0  0  0  0  0  0  0
    7.5859   -5.5810    2.1935 H   0  0  0  0  0  0  0  0  0  0  0  0
    6.8492   -6.8082    1.1953 H   0  0  0  0  0  0  0  0  0  0  0  0
    6.8808   -5.1844   -0.3013 H   0  0  0  0  0  0  0  0  0  0  0  0
    8.0267   -3.4736    1.3224 H   0  0  0  0  0  0  0  0  0  0  0  0
    7.6926   -1.8809   -0.4517 H   0  0  0  0  0  0  0  0  0  0  0  0
    7.6845   -3.4635   -1.1286 H   0  0  0  0  0  0  0  0  0  0  0  0
    5.9922   -2.2405   -1.9678 H   0  0  0  0  0  0  0  0  0  0  0  0
    5.8050   -0.6885   -0.0795 H   0  0  0  0  0  0  0  0  0  0  0  0
    2.6029   -1.5888   -2.6762 H   0  0  0  0  0  0  0  0  0  0  0  0
    3.7503   -1.7951   -4.6660 H   0  0  0  0  0  0  0  0  0  0  0  0
    5.2813   -1.4553   -3.7968 H   0  0  0  0  0  0  0  0  0  0  0  0
    4.0893   -4.1364   -4.2957 H   0  0  0  0  0  0  0  0  0  0  0  0
    5.6391   -3.8124   -3.4406 H   0  0  0  0  0  0  0  0  0  0  0  0
    2.8132   -3.8509   -2.3428 H   0  0  0  0  0  0  0  0  0  0  0  0
    2.2231   -2.3012   -0.6303 H   0  0  0  0  0  0  0  0  0  0  0  0
    2.2799   -3.6375    0.2335 H   0  0  0  0  0  0  0  0  0  0  0  0
    3.2642   -0.8065    0.9014 H   0  0  0  0  0  0  0  0  0  0  0  0
    2.2482   -2.9591    2.8262 H   0  0  0  0  0  0  0  0  0  0  0  0
    1.4466   -1.5405    2.2263 H   0  0  0  0  0  0  0  0  0  0  0  0
    2.8357   -1.3659    3.2768 H   0  0  0  0  0  0  0  0  0  0  0  0
    6.2049   -2.4910    2.8867 H   0  0  0  0  0  0  0  0  0  0  0  0
    6.6305   -1.2719    1.7796 H   0  0  0  0  0  0  0  0  0  0  0  0
    3.4634   -4.2302    1.7195 H   0  0  0  0  0  0  0  0  0  0  0  0
    4.3462   -5.5756    0.0546 H   0  0  0  0  0  0  0  0  0  0  0  0
  1  2  2  0
  1 23  1  0
  1 24  1  0
  2 21  1  0
  2  3  1  0
  3  4  1  0
  3 25  1  0
  3 26  1  0
  4  5  1  0
  4 27  1  0
  4 28  1  0
  5 22  1  0
  5  6  1  0
  5 29  1  6
  6 20  1  0
  6  7  1  0
  6 30  1  1
  7  8  1  0
  7 31  1  0
  7 32  1  0
  8 15  1  0
  8  9  1  0
  8 33  1  6
  9 19  1  0
  9 10  1  0
  9 34  1  1
 10 11  1  0
 11 14  1  0
 11 12  1  0
 11 35  1  6
 12 13  1  0
 12 36  1  0
 12 37  1  0
 13 14  1  0
 13 38  1  0
 13 39  1  0
 14 15  1  0
 14 40  1  1
 15 22  1  0
 15 16  1  1
 16 17  1  0
 16 41  1  0
 16 42  1  0
 17 18  1  0
 17 19  1  0
 17 43  1  6
 18 44  1  0
 18 45  1  0
 18 46  1  0
 19 20  1  1
 19 21  1  0
 20 47  1  0
 20 48  1  0
 21 22  1  0
 21 49  1  1
 22 50  1  6
M  END
>  <i_m_ct_stereo_status>  (184) 
1

>  <s_m_source_file>  (184) 
/var/tmp/pbs.5076255.sched01/tmp7w47f283/46ruht8ay8.sdf

>  <i_m_source_file_index>  (184) 
31

>  <i_lp_mmshare_version>  (184) 
48012

>  <i_f3d_flags>  (184) 
0

>  <s_epik_input>  (184) 
W0NIMl09QzFbQ0gyXVtDSDJdW0NASF0oW0NAQEhdKFtDSDJdMilbQ0gyXTMpW0NASF00W0NAQEhdMUMzKFtDQEBIXShbQ0gyXTUpW0NIM10pW0NAQEhdKFtDQEBIXTJbQ0BAXTQ1NilPW0NAQEhdN1tDQEhdNltDSDJdW0NIMl03

>  <s_epik_cmdline>  (184) 
J2VwaWtfcHl0aG9uJywgJy1waHQnLCAnMi4wJywgJy1waCcsICc3LjAnLCAnLXRuJywgJzgnLCAnLW1hJywgJzIwMCcsICctaW1hZScsICc8aW5maWxlLm1hZT4nLCAnLW9tYWUnLCAnPG91dGZpbGUubWFlPic=

>  <r_lp_tautomer_probability>  (184) 
1

>  <r_epik_Ionization_Penalty>  (184) 
1.28844e-10

>  <r_epik_Ionization_Penalty_Charging>  (184) 
0

>  <r_epik_Ionization_Penalty_Neutral>  (184) 
1.28844e-10

>  <r_epik_State_Penalty>  (184) 
-0

>  <r_epik_Charging_Adjusted_Penalty>  (184) 
0

>  <i_epik_Tot_Q>  (184) 
0

>  <i_epik_Tot_abs_Q>  (184) 
0

>  <s_lp_Force_Field>  (184) 
OPLS3e

>  <r_lp_Energy>  (184) 
345.518

>  <b_lp_Chiralities_Consistent>  (184) 
1

>  <s_lp_Variant>  (184) 
51:0-1

>  <s_i_glide_gridfile>  (184) 
pfpi4k_grid

>  <i_i_glide_lignum>  (184) 
31

>  <i_i_glide_rotatable_bonds>  (184) 
0

>  <r_i_docking_score>  (184) 
-3.11098

>  <r_i_glide_ligand_efficiency>  (184) 
-0.141408

>  <r_i_glide_ligand_efficiency_sa>  (184) 
-0.396231

>  <r_i_glide_ligand_efficiency_ln>  (184) 
-0.760436

>  <r_i_glide_gscore>  (184) 
-3.11098

>  <r_i_glide_lipo>  (184) 
-0.730285

>  <r_i_glide_hbond>  (184) 
0

>  <r_i_glide_metal>  (184) 
-0

>  <r_i_glide_rewards>  (184) 
-1.38787

>  <r_i_glide_evdw>  (184) 
-21.1035

>  <r_i_glide_ecoul>  (184) 
0.415666

>  <r_i_glide_erotb>  (184) 
0

>  <r_i_glide_esite>  (184) 
0

>  <r_i_glide_emodel>  (184) 
-23.042

>  <r_i_glide_energy>  (184) 
-20.6879

>  <r_i_glide_einternal>  (184) 
0

>  <r_i_glide_intrahb_reward>  (184) 
-0

>  <i_i_glide_confnum>  (184) 
1

>  <i_i_glide_posenum>  (184) 
26

>  <r_i_glide_eff_state_penalty>  (184) 
0

>  <ligand_id>  (184) 
51

>  <original_smiles>  (184) 
C=C1CCC2C3CC4C5OC6CCC6C46CC(C)C5(C3)C1C26

>  <smiles>  (184) 
[H]C([H])=C1C([H])([H])C([H])([H])C2([H])C3([H])C([H])([H])C4([H])C5([H])OC6([H])C([H])([H])C([H])([H])C6([H])C46C([H])([H])C([H])(C([H])([H])[H])C5(C3([H])[H])C1([H])C26[H]

$$$$
51:0:1
     RDKit          3D

 50 56  0  0  1  0  0  0  0  0999 V2000
    2.4183   -3.3295   -3.2896 C   0  0  0  0  0  0  0  0  0  0  0  0
    2.9767   -2.5146   -2.3930 C   0  0  0  0  0  0  0  0  0  0  0  0
    3.2855   -1.1246   -2.8024 C   0  0  0  0  0  0  0  0  0  0  0  0
    4.6483   -0.7789   -2.2925 C   0  0  0  0  0  0  0  0  0  0  0  0
    4.9846   -1.4412   -0.9304 C   0  0  2  0  0  0  0  0  0  0  0  0
    5.7902   -2.8110   -1.1284 C   0  0  1  0  0  0  0  0  0  0  0  0
    6.4513   -2.8398    0.2132 C   0  0  0  0  0  0  0  0  0  0  0  0
    5.3696   -3.0669    1.2775 C   0  0  2  0  0  0  0  0  0  0  0  0
    4.8614   -4.3694    1.1109 C   0  0  1  0  0  0  0  0  0  0  0  0
    4.5037   -4.5969    2.5777 O   0  0  0  0  0  0  0  0  0  0  0  0
    4.1071   -3.4990    3.5517 C   0  0  1  0  0  0  0  0  0  0  0  0
    5.1702   -2.8399    4.4287 C   0  0  0  0  0  0  0  0  0  0  0  0
    4.9269   -1.4872    3.7262 C   0  0  0  0  0  0  0  0  0  0  0  0
    3.8155   -2.1075    2.8609 C   0  0  1  0  0  0  0  0  0  0  0  0
    3.8761   -2.4530    1.3957 C   0  0  2  0  0  0  0  0  0  0  0  0
    2.5209   -3.5149    1.4015 C   0  0  0  0  0  0  0  0  0  0  0  0
    2.7075   -4.8013    0.4143 C   0  0  1  0  0  0  0  0  0  0  0  0
    1.4498   -5.2803   -0.3703 C   0  0  0  0  0  0  0  0  0  0  0  0
    3.8884   -4.1540   -0.2820 C   0  0  2  0  0  0  0  0  0  0  0  0
    5.0092   -4.2210   -1.3345 C   0  0  0  0  0  0  0  0  0  0  0  0
    3.1468   -2.7872   -0.8664 C   0  0  1  0  0  0  0  0  0  0  0  0
    3.7310   -1.6659    0.0080 C   0  0  2  0  0  0  0  0  0  0  0  0
    1.9889   -4.2500   -2.9670 H   0  0  0  0  0  0  0  0  0  0  0  0
    2.3043   -3.0563   -4.3446 H   0  0  0  0  0  0  0  0  0  0  0  0
    3.1848   -1.0009   -3.8831 H   0  0  0  0  0  0  0  0  0  0  0  0
    2.5275   -0.4987   -2.3360 H   0  0  0  0  0  0  0  0  0  0  0  0
    5.3639   -1.1240   -3.0338 H   0  0  0  0  0  0  0  0  0  0  0  0
    4.6851    0.3086   -2.2607 H   0  0  0  0  0  0  0  0  0  0  0  0
    5.6130   -0.6928   -0.4584 H   0  0  0  0  0  0  0  0  0  0  0  0
    6.5628   -2.6996   -1.8873 H   0  0  0  0  0  0  0  0  0  0  0  0
    7.1954   -3.6375    0.2599 H   0  0  0  0  0  0  0  0  0  0  0  0
    7.0076   -1.9312    0.4346 H   0  0  0  0  0  0  0  0  0  0  0  0
    6.0169   -3.0299    2.1386 H   0  0  0  0  0  0  0  0  0  0  0  0
    5.6316   -5.1136    0.9366 H   0  0  0  0  0  0  0  0  0  0  0  0
    3.2908   -3.8158    4.2079 H   0  0  0  0  0  0  0  0  0  0  0  0
    4.9068   -2.8219    5.4863 H   0  0  0  0  0  0  0  0  0  0  0  0
    6.1712   -3.2581    4.2916 H   0  0  0  0  0  0  0  0  0  0  0  0
    4.5507   -0.7307    4.4259 H   0  0  0  0  0  0  0  0  0  0  0  0
    5.7768   -1.1044    3.1589 H   0  0  0  0  0  0  0  0  0  0  0  0
    2.8564   -1.7182    3.1835 H   0  0  0  0  0  0  0  0  0  0  0  0
    2.1782   -3.9334    2.3330 H   0  0  0  0  0  0  0  0  0  0  0  0
    1.6578   -2.8860    1.2167 H   0  0  0  0  0  0  0  0  0  0  0  0
    3.0098   -5.6917    0.9866 H   0  0  0  0  0  0  0  0  0  0  0  0
    1.0070   -4.5046   -0.9860 H   0  0  0  0  0  0  0  0  0  0  0  0
    0.7230   -5.7207    0.2957 H   0  0  0  0  0  0  0  0  0  0  0  0
    1.6562   -6.0709   -1.0773 H   0  0  0  0  0  0  0  0  0  0  0  0
    4.6657   -4.3503   -2.3544 H   0  0  0  0  0  0  0  0  0  0  0  0
    5.6737   -5.0580   -1.1478 H   0  0  0  0  0  0  0  0  0  0  0  0
    2.0735   -2.7456   -0.7399 H   0  0  0  0  0  0  0  0  0  0  0  0
    3.0648   -0.8007    0.0706 H   0  0  0  0  0  0  0  0  0  0  0  0
  1  2  2  0
  1 23  1  0
  1 24  1  0
  2 21  1  0
  2  3  1  0
  3  4  1  0
  3 25  1  0
  3 26  1  0
  4  5  1  0
  4 27  1  0
  4 28  1  0
  5 22  1  0
  5  6  1  0
  5 29  1  1
  6 20  1  0
  6  7  1  0
  6 30  1  6
  7  8  1  0
  7 31  1  0
  7 32  1  0
  8 15  1  0
  8  9  1  0
  8 33  1  1
  9 19  1  0
  9 10  1  0
  9 34  1  6
 10 11  1  0
 11 14  1  0
 11 12  1  0
 11 35  1  1
 12 13  1  0
 12 36  1  0
 12 37  1  0
 13 14  1  0
 13 38  1  0
 13 39  1  0
 14 15  1  0
 14 40  1  1
 15 22  1  0
 15 16  1  1
 16 17  1  0
 16 41  1  0
 16 42  1  0
 17 18  1  0
 17 19  1  0
 17 43  1  1
 18 44  1  0
 18 45  1  0
 18 46  1  0
 19 20  1  6
 19 21  1  0
 20 47  1  0
 20 48  1  0
 21 22  1  0
 21 49  1  1
 22 50  1  1
M  END
>  <i_m_ct_stereo_status>  (185) 
1

>  <s_m_source_file>  (185) 
/var/tmp/pbs.5076255.sched01/tmp7w47f283/46ruht8ay8.sdf

>  <i_m_source_file_index>  (185) 
31

>  <i_lp_mmshare_version>  (185) 
48012

>  <i_f3d_flags>  (185) 
0

>  <s_epik_input>  (185) 
W0NIMl09QzFbQ0gyXVtDSDJdW0NASF0oW0NAQEhdKFtDSDJdMilbQ0gyXTMpW0NASF00W0NAQEhdMUMzKFtDQEBIXShbQ0gyXTUpW0NIM10pW0NAQEhdKFtDQEBIXTJbQ0BAXTQ1NilPW0NAQEhdN1tDQEhdNltDSDJdW0NIMl03

>  <s_epik_cmdline>  (185) 
J2VwaWtfcHl0aG9uJywgJy1waHQnLCAnMi4wJywgJy1waCcsICc3LjAnLCAnLXRuJywgJzgnLCAnLW1hJywgJzIwMCcsICctaW1hZScsICc8aW5maWxlLm1hZT4nLCAnLW9tYWUnLCAnPG91dGZpbGUubWFlPic=

>  <r_lp_tautomer_probability>  (185) 
1

>  <r_epik_Ionization_Penalty>  (185) 
1.28844e-10

>  <r_epik_Ionization_Penalty_Charging>  (185) 
0

>  <r_epik_Ionization_Penalty_Neutral>  (185) 
1.28844e-10

>  <r_epik_State_Penalty>  (185) 
-0

>  <r_epik_Charging_Adjusted_Penalty>  (185) 
0

>  <i_epik_Tot_Q>  (185) 
0

>  <i_epik_Tot_abs_Q>  (185) 
0

>  <s_lp_Force_Field>  (185) 
OPLS3e

>  <r_lp_Energy>  (185) 
345.518

>  <b_lp_Chiralities_Consistent>  (185) 
1

>  <s_lp_Variant>  (185) 
51:0-1

>  <s_i_glide_gridfile>  (185) 
pfpi4k_grid

>  <i_i_glide_lignum>  (185) 
31

>  <i_i_glide_rotatable_bonds>  (185) 
0

>  <r_i_docking_score>  (185) 
-2.44247

>  <r_i_glide_ligand_efficiency>  (185) 
-0.111021

>  <r_i_glide_ligand_efficiency_sa>  (185) 
-0.311086

>  <r_i_glide_ligand_efficiency_ln>  (185) 
-0.597028

>  <r_i_glide_gscore>  (185) 
-2.44247

>  <r_i_glide_lipo>  (185) 
-0.468144

>  <r_i_glide_hbond>  (185) 
0

>  <r_i_glide_metal>  (185) 
-0

>  <r_i_glide_rewards>  (185) 
-1.38787

>  <r_i_glide_evdw>  (185) 
-10.0004

>  <r_i_glide_ecoul>  (185) 
-0.576247

>  <r_i_glide_erotb>  (185) 
0

>  <r_i_glide_esite>  (185) 
0

>  <r_i_glide_emodel>  (185) 
-11.5749

>  <r_i_glide_energy>  (185) 
-10.5767

>  <r_i_glide_einternal>  (185) 
0

>  <r_i_glide_intrahb_reward>  (185) 
-0

>  <i_i_glide_confnum>  (185) 
2

>  <i_i_glide_posenum>  (185) 
1

>  <r_i_glide_eff_state_penalty>  (185) 
0

>  <ligand_id>  (185) 
51

>  <original_smiles>  (185) 
C=C1CCC2C3CC4C5OC6CCC6C46CC(C)C5(C3)C1C26

>  <smiles>  (185) 
[H]C([H])=C1C([H])([H])C([H])([H])C2([H])C3([H])C([H])([H])C4([H])C5([H])OC6([H])C([H])([H])C([H])([H])C6([H])C46C([H])([H])C([H])(C([H])([H])[H])C5(C3([H])[H])C1([H])C26[H]

$$$$
52:0:0
     RDKit          3D

 15 16  0  0  1  0  0  0  0  0999 V2000
    5.1402   -4.3873    1.3318 C   0  0  0  0  0  0  0  0  0  0  0  0
    4.2139   -4.0432    0.2758 N   0  0  0  0  0  0  0  0  0  0  0  0
    2.8754   -4.1193    0.5155 N   0  0  0  0  0  0  0  0  0  0  0  0
    2.2358   -3.7748   -0.5632 N   0  0  0  0  0  0  0  0  0  0  0  0
    3.1747   -3.4507   -1.5259 C   0  0  0  0  0  0  0  0  0  0  0  0
    3.0937   -3.0236   -2.8704 C   0  0  0  0  0  0  0  0  0  0  0  0
    4.2511   -2.8447   -3.5531 N   0  0  0  0  0  0  0  0  0  0  0  0
    5.4182   -3.0586   -2.9297 C   0  0  0  0  0  0  0  0  0  0  0  0
    5.6519   -3.4331   -1.6710 N   0  0  0  0  0  0  0  0  0  0  0  0
    4.4763   -3.6299   -1.0120 C   0  0  0  0  0  0  0  0  0  0  0  0
    6.1647   -4.2891    0.9777 H   0  0  0  0  0  0  0  0  0  0  0  0
    4.9759   -5.4170    1.6492 H   0  0  0  0  0  0  0  0  0  0  0  0
    4.9928   -3.7215    2.1823 H   0  0  0  0  0  0  0  0  0  0  0  0
    2.1555   -2.8673   -3.3856 H   0  0  0  0  0  0  0  0  0  0  0  0
    6.3037   -2.8975   -3.5199 H   0  0  0  0  0  0  0  0  0  0  0  0
  1  2  1  0
  1 11  1  0
  1 12  1  0
  1 13  1  0
  2 10  1  0
  2  3  1  0
  3  4  2  0
  4  5  1  0
  5 10  2  0
  5  6  1  0
  6  7  2  0
  6 14  1  0
  7  8  1  0
  8  9  2  0
  8 15  1  0
  9 10  1  0
M  END
>  <i_m_ct_stereo_status>  (186) 
1

>  <s_m_source_file>  (186) 
/var/tmp/pbs.5076255.sched01/tmp7w47f283/46ruht8ay8.sdf

>  <i_m_source_file_index>  (186) 
32

>  <i_lp_mmshare_version>  (186) 
48012

>  <i_f3d_flags>  (186) 
0

>  <s_epik_input>  (186) 
bjFubihbQ0gzXSljKGMxMiluW2NIXW5bY0hdMg==

>  <s_epik_cmdline>  (186) 
J2VwaWtfcHl0aG9uJywgJy1waHQnLCAnMi4wJywgJy1waCcsICc3LjAnLCAnLXRuJywgJzgnLCAnLW1hJywgJzIwMCcsICctaW1hZScsICc8aW5maWxlLm1hZT4nLCAnLW9tYWUnLCAnPG91dGZpbGUubWFlPic=

>  <r_lp_tautomer_probability>  (186) 
1

>  <r_epik_Ionization_Penalty>  (186) 
1.28168e-10

>  <r_epik_Ionization_Penalty_Charging>  (186) 
0

>  <r_epik_Ionization_Penalty_Neutral>  (186) 
1.28168e-10

>  <r_epik_State_Penalty>  (186) 
-0

>  <r_epik_Charging_Adjusted_Penalty>  (186) 
0

>  <i_epik_Tot_Q>  (186) 
0

>  <i_epik_Tot_abs_Q>  (186) 
0

>  <s_lp_Force_Field>  (186) 
OPLS3e

>  <r_lp_Energy>  (186) 
13.9429

>  <b_lp_Chiralities_Consistent>  (186) 
1

>  <s_lp_Variant>  (186) 
52:0-1

>  <s_i_glide_gridfile>  (186) 
pfpi4k_grid

>  <i_i_glide_lignum>  (186) 
32

>  <i_i_glide_rotatable_bonds>  (186) 
0

>  <r_i_docking_score>  (186) 
-3.87146

>  <r_i_glide_ligand_efficiency>  (186) 
-0.387146

>  <r_i_glide_ligand_efficiency_sa>  (186) 
-0.834081

>  <r_i_glide_ligand_efficiency_ln>  (186) 
-1.17225

>  <r_i_glide_gscore>  (186) 
-3.87146

>  <r_i_glide_lipo>  (186) 
-0.132052

>  <r_i_glide_hbond>  (186) 
0

>  <r_i_glide_metal>  (186) 
-0

>  <r_i_glide_rewards>  (186) 
-2.52164

>  <r_i_glide_evdw>  (186) 
-14.4933

>  <r_i_glide_ecoul>  (186) 
-2.70397

>  <r_i_glide_erotb>  (186) 
0

>  <r_i_glide_esite>  (186) 
-0.0875097

>  <r_i_glide_emodel>  (186) 
-21.773

>  <r_i_glide_energy>  (186) 
-17.1972

>  <r_i_glide_einternal>  (186) 
0

>  <r_i_glide_intrahb_reward>  (186) 
-0

>  <i_i_glide_confnum>  (186) 
2

>  <i_i_glide_posenum>  (186) 
3

>  <r_i_glide_eff_state_penalty>  (186) 
0

>  <ligand_id>  (186) 
52

>  <original_smiles>  (186) 
Cn1nnc2cncnc21

>  <smiles>  (186) 
[H]c1nc([H])c2nnn(C([H])([H])[H])c2n1

$$$$
52:0:1
     RDKit          3D

 15 16  0  0  1  0  0  0  0  0999 V2000
   -0.0261   -1.2370    4.1237 C   0  0  0  0  0  0  0  0  0  0  0  0
   -0.7490   -0.1692    4.7804 N   0  0  0  0  0  0  0  0  0  0  0  0
   -1.1419   -0.3332    6.0749 N   0  0  0  0  0  0  0  0  0  0  0  0
   -1.7638    0.7433    6.4678 N   0  0  0  0  0  0  0  0  0  0  0  0
   -1.7731    1.6339    5.4055 C   0  0  0  0  0  0  0  0  0  0  0  0
   -2.2846    2.9387    5.2187 C   0  0  0  0  0  0  0  0  0  0  0  0
   -2.1328    3.5248    4.0053 N   0  0  0  0  0  0  0  0  0  0  0  0
   -1.4949    2.8555    3.0280 C   0  0  0  0  0  0  0  0  0  0  0  0
   -0.9597    1.6298    3.0663 N   0  0  0  0  0  0  0  0  0  0  0  0
   -1.1302    1.0632    4.2895 C   0  0  0  0  0  0  0  0  0  0  0  0
    0.2152   -0.9533    3.0989 H   0  0  0  0  0  0  0  0  0  0  0  0
   -0.6342   -2.1426    4.1128 H   0  0  0  0  0  0  0  0  0  0  0  0
    0.9035   -1.4391    4.6579 H   0  0  0  0  0  0  0  0  0  0  0  0
   -2.8133    3.4789    5.9941 H   0  0  0  0  0  0  0  0  0  0  0  0
   -1.4029    3.3715    2.0862 H   0  0  0  0  0  0  0  0  0  0  0  0
  1  2  1  0
  1 11  1  0
  1 12  1  0
  1 13  1  0
  2 10  1  0
  2  3  1  0
  3  4  2  0
  4  5  1  0
  5 10  2  0
  5  6  1  0
  6  7  2  0
  6 14  1  0
  7  8  1  0
  8  9  2  0
  8 15  1  0
  9 10  1  0
M  END
>  <i_m_ct_stereo_status>  (187) 
1

>  <s_m_source_file>  (187) 
/var/tmp/pbs.5076255.sched01/tmp7w47f283/46ruht8ay8.sdf

>  <i_m_source_file_index>  (187) 
32

>  <i_lp_mmshare_version>  (187) 
48012

>  <i_f3d_flags>  (187) 
0

>  <s_epik_input>  (187) 
bjFubihbQ0gzXSljKGMxMiluW2NIXW5bY0hdMg==

>  <s_epik_cmdline>  (187) 
J2VwaWtfcHl0aG9uJywgJy1waHQnLCAnMi4wJywgJy1waCcsICc3LjAnLCAnLXRuJywgJzgnLCAnLW1hJywgJzIwMCcsICctaW1hZScsICc8aW5maWxlLm1hZT4nLCAnLW9tYWUnLCAnPG91dGZpbGUubWFlPic=

>  <r_lp_tautomer_probability>  (187) 
1

>  <r_epik_Ionization_Penalty>  (187) 
1.28168e-10

>  <r_epik_Ionization_Penalty_Charging>  (187) 
0

>  <r_epik_Ionization_Penalty_Neutral>  (187) 
1.28168e-10

>  <r_epik_State_Penalty>  (187) 
-0

>  <r_epik_Charging_Adjusted_Penalty>  (187) 
0

>  <i_epik_Tot_Q>  (187) 
0

>  <i_epik_Tot_abs_Q>  (187) 
0

>  <s_lp_Force_Field>  (187) 
OPLS3e

>  <r_lp_Energy>  (187) 
13.9429

>  <b_lp_Chiralities_Consistent>  (187) 
1

>  <s_lp_Variant>  (187) 
52:0-1

>  <s_i_glide_gridfile>  (187) 
pfpi4k_grid

>  <i_i_glide_lignum>  (187) 
32

>  <i_i_glide_rotatable_bonds>  (187) 
0

>  <r_i_docking_score>  (187) 
-3.81028

>  <r_i_glide_ligand_efficiency>  (187) 
-0.381028

>  <r_i_glide_ligand_efficiency_sa>  (187) 
-0.8209

>  <r_i_glide_ligand_efficiency_ln>  (187) 
-1.15373

>  <r_i_glide_gscore>  (187) 
-3.81028

>  <r_i_glide_lipo>  (187) 
0

>  <r_i_glide_hbond>  (187) 
0

>  <r_i_glide_metal>  (187) 
-0

>  <r_i_glide_rewards>  (187) 
-2.25

>  <r_i_glide_evdw>  (187) 
-13.1724

>  <r_i_glide_ecoul>  (187) 
-4.18865

>  <r_i_glide_erotb>  (187) 
0

>  <r_i_glide_esite>  (187) 
-0.273364

>  <r_i_glide_emodel>  (187) 
-21.8675

>  <r_i_glide_energy>  (187) 
-17.361

>  <r_i_glide_einternal>  (187) 
0

>  <r_i_glide_intrahb_reward>  (187) 
-0

>  <i_i_glide_confnum>  (187) 
1

>  <i_i_glide_posenum>  (187) 
23

>  <r_i_glide_eff_state_penalty>  (187) 
0

>  <ligand_id>  (187) 
52

>  <original_smiles>  (187) 
Cn1nnc2cncnc21

>  <smiles>  (187) 
[H]c1nc([H])c2nnn(C([H])([H])[H])c2n1

$$$$
52:0:2
     RDKit          3D

 15 16  0  0  1  0  0  0  0  0999 V2000
    2.4959   -2.9212   -3.8944 C   0  0  0  0  0  0  0  0  0  0  0  0
    2.9866   -3.1466   -2.5539 N   0  0  0  0  0  0  0  0  0  0  0  0
    2.1075   -3.4556   -1.5583 N   0  0  0  0  0  0  0  0  0  0  0  0
    2.7653   -3.6496   -0.4516 N   0  0  0  0  0  0  0  0  0  0  0  0
    4.1085   -3.4808   -0.7365 C   0  0  0  0  0  0  0  0  0  0  0  0
    5.2867   -3.5591    0.0380 C   0  0  0  0  0  0  0  0  0  0  0  0
    6.4719   -3.3254   -0.5788 N   0  0  0  0  0  0  0  0  0  0  0  0
    6.4949   -3.0576   -1.8932 C   0  0  0  0  0  0  0  0  0  0  0  0
    5.4676   -2.9367   -2.7397 N   0  0  0  0  0  0  0  0  0  0  0  0
    4.2843   -3.1598   -2.0960 C   0  0  0  0  0  0  0  0  0  0  0  0
    3.3258   -2.7178   -4.5652 H   0  0  0  0  0  0  0  0  0  0  0  0
    1.8195   -2.0728   -3.9013 H   0  0  0  0  0  0  0  0  0  0  0  0
    1.9639   -3.7999   -4.2522 H   0  0  0  0  0  0  0  0  0  0  0  0
    5.2902   -3.7878    1.0938 H   0  0  0  0  0  0  0  0  0  0  0  0
    7.4788   -2.8906   -2.3137 H   0  0  0  0  0  0  0  0  0  0  0  0
  1  2  1  0
  1 11  1  0
  1 12  1  0
  1 13  1  0
  2 10  1  0
  2  3  1  0
  3  4  2  0
  4  5  1  0
  5 10  2  0
  5  6  1  0
  6  7  2  0
  6 14  1  0
  7  8  1  0
  8  9  2  0
  8 15  1  0
  9 10  1  0
M  END
>  <i_m_ct_stereo_status>  (188) 
1

>  <s_m_source_file>  (188) 
/var/tmp/pbs.5076255.sched01/tmp7w47f283/46ruht8ay8.sdf

>  <i_m_source_file_index>  (188) 
32

>  <i_lp_mmshare_version>  (188) 
48012

>  <i_f3d_flags>  (188) 
0

>  <s_epik_input>  (188) 
bjFubihbQ0gzXSljKGMxMiluW2NIXW5bY0hdMg==

>  <s_epik_cmdline>  (188) 
J2VwaWtfcHl0aG9uJywgJy1waHQnLCAnMi4wJywgJy1waCcsICc3LjAnLCAnLXRuJywgJzgnLCAnLW1hJywgJzIwMCcsICctaW1hZScsICc8aW5maWxlLm1hZT4nLCAnLW9tYWUnLCAnPG91dGZpbGUubWFlPic=

>  <r_lp_tautomer_probability>  (188) 
1

>  <r_epik_Ionization_Penalty>  (188) 
1.28168e-10

>  <r_epik_Ionization_Penalty_Charging>  (188) 
0

>  <r_epik_Ionization_Penalty_Neutral>  (188) 
1.28168e-10

>  <r_epik_State_Penalty>  (188) 
-0

>  <r_epik_Charging_Adjusted_Penalty>  (188) 
0

>  <i_epik_Tot_Q>  (188) 
0

>  <i_epik_Tot_abs_Q>  (188) 
0

>  <s_lp_Force_Field>  (188) 
OPLS3e

>  <r_lp_Energy>  (188) 
13.9429

>  <b_lp_Chiralities_Consistent>  (188) 
1

>  <s_lp_Variant>  (188) 
52:0-1

>  <s_i_glide_gridfile>  (188) 
pfpi4k_grid

>  <i_i_glide_lignum>  (188) 
32

>  <i_i_glide_rotatable_bonds>  (188) 
0

>  <r_i_docking_score>  (188) 
-3.56324

>  <r_i_glide_ligand_efficiency>  (188) 
-0.356324

>  <r_i_glide_ligand_efficiency_sa>  (188) 
-0.767677

>  <r_i_glide_ligand_efficiency_ln>  (188) 
-1.07893

>  <r_i_glide_gscore>  (188) 
-3.56324

>  <r_i_glide_lipo>  (188) 
-0.219107

>  <r_i_glide_hbond>  (188) 
0

>  <r_i_glide_metal>  (188) 
-0

>  <r_i_glide_rewards>  (188) 
-2.31838

>  <r_i_glide_evdw>  (188) 
-17.1296

>  <r_i_glide_ecoul>  (188) 
-0.704685

>  <r_i_glide_erotb>  (188) 
0

>  <r_i_glide_esite>  (188) 
-0.0635733

>  <r_i_glide_emodel>  (188) 
-22.0458

>  <r_i_glide_energy>  (188) 
-17.8343

>  <r_i_glide_einternal>  (188) 
0

>  <r_i_glide_intrahb_reward>  (188) 
-0

>  <i_i_glide_confnum>  (188) 
2

>  <i_i_glide_posenum>  (188) 
2

>  <r_i_glide_eff_state_penalty>  (188) 
0

>  <ligand_id>  (188) 
52

>  <original_smiles>  (188) 
Cn1nnc2cncnc21

>  <smiles>  (188) 
[H]c1nc([H])c2nnn(C([H])([H])[H])c2n1

$$$$
54:0:0
     RDKit          3D

 41 44  0  0  1  0  0  0  0  0999 V2000
    8.1126   -5.2912    0.9076 C   0  0  0  0  0  0  0  0  0  0  0  0
    6.6618   -4.8373    0.7832 C   0  0  0  0  0  0  0  0  0  0  0  0
    6.2846   -3.6446    0.2407 C   0  0  0  0  0  0  0  0  0  0  0  0
    7.2573   -2.5060   -0.0016 C   0  0  0  0  0  0  0  0  0  0  0  0
    6.5741   -1.3133    0.6943 C   0  0  0  0  0  0  0  0  0  0  0  0
    5.1142   -1.7469    0.9464 C   0  0  2  0  0  0  0  0  0  0  0  0
    4.8386   -2.2583    2.3883 C   0  0  0  0  0  0  0  0  0  0  0  0
    3.7617   -3.3462    2.2199 C   0  0  1  0  0  0  0  0  0  0  0  0
    3.7718   -3.7146    0.7755 C   0  0  0  0  0  0  0  0  0  0  0  0
    2.9891   -4.7012    0.2969 C   0  0  0  0  0  0  0  0  0  0  0  0
    2.2144   -5.5154    1.2286 C   0  0  0  0  0  0  0  0  0  0  0  0
    1.2008   -6.1459    0.9298 O   0  0  0  0  0  0  0  0  0  0  0  0
    2.7152   -5.5297    2.4866 N   0  0  0  0  0  0  0  0  0  0  0  0
    3.8271   -4.6874    2.9958 C   0  0  2  0  0  0  0  0  0  0  0  0
    3.5660   -4.4215    4.4896 C   0  0  0  0  0  0  0  0  0  0  0  0
    5.1951   -5.4504    2.8542 C   0  0  0  0  0  0  0  0  0  0  0  0
    5.7356   -5.7919    1.4445 C   0  0  0  0  0  0  0  0  0  0  0  0
    5.4315   -6.8730    0.9380 O   0  0  0  0  0  0  0  0  0  0  0  0
    4.8952   -2.9901    0.0814 C   0  0  2  0  0  0  0  0  0  0  0  0
    4.5567   -2.6706   -1.3950 C   0  0  0  0  0  0  0  0  0  0  0  0
    8.1982   -6.3376    0.6170 H   0  0  0  0  0  0  0  0  0  0  0  0
    8.4601   -5.2048    1.9372 H   0  0  0  0  0  0  0  0  0  0  0  0
    8.7901   -4.7371    0.2595 H   0  0  0  0  0  0  0  0  0  0  0  0
    8.2626   -2.6671    0.3783 H   0  0  0  0  0  0  0  0  0  0  0  0
    7.3346   -2.3386   -1.0748 H   0  0  0  0  0  0  0  0  0  0  0  0
    7.0622   -1.0614    1.6364 H   0  0  0  0  0  0  0  0  0  0  0  0
    6.6128   -0.4149    0.0785 H   0  0  0  0  0  0  0  0  0  0  0  0
    4.4035   -0.9622    0.6884 H   0  0  0  0  0  0  0  0  0  0  0  0
    5.7413   -2.6743    2.8325 H   0  0  0  0  0  0  0  0  0  0  0  0
    4.4978   -1.4563    3.0415 H   0  0  0  0  0  0  0  0  0  0  0  0
    2.7920   -2.8805    2.3961 H   0  0  0  0  0  0  0  0  0  0  0  0
    3.0794   -5.0133   -0.7209 H   0  0  0  0  0  0  0  0  0  0  0  0
    2.2336   -6.1060    3.1593 H   0  0  0  0  0  0  0  0  0  0  0  0
    4.3580   -3.8048    4.9171 H   0  0  0  0  0  0  0  0  0  0  0  0
    3.5290   -5.3475    5.0661 H   0  0  0  0  0  0  0  0  0  0  0  0
    2.6234   -3.8945    4.6470 H   0  0  0  0  0  0  0  0  0  0  0  0
    5.9725   -4.8978    3.3831 H   0  0  0  0  0  0  0  0  0  0  0  0
    5.1073   -6.3977    3.3900 H   0  0  0  0  0  0  0  0  0  0  0  0
    4.5748   -3.5694   -2.0186 H   0  0  0  0  0  0  0  0  0  0  0  0
    5.2621   -1.9638   -1.8275 H   0  0  0  0  0  0  0  0  0  0  0  0
    3.5680   -2.2135   -1.4874 H   0  0  0  0  0  0  0  0  0  0  0  0
  1  2  1  0
  1 21  1  0
  1 22  1  0
  1 23  1  0
  2 17  1  0
  2  3  2  3
  3 19  1  0
  3  4  1  0
  4  5  1  0
  4 24  1  0
  4 25  1  0
  5  6  1  0
  5 26  1  0
  5 27  1  0
  6 19  1  0
  6  7  1  0
  6 28  1  6
  7  8  1  0
  7 29  1  0
  7 30  1  0
  8 14  1  0
  8  9  1  0
  8 31  1  1
  9 10  2  0
  9 19  1  0
 10 11  1  0
 10 32  1  0
 11 12  2  0
 11 13  1  0
 13 14  1  0
 13 33  1  0
 14 15  1  1
 14 16  1  0
 15 34  1  0
 15 35  1  0
 15 36  1  0
 16 17  1  0
 16 37  1  0
 16 38  1  0
 17 18  2  0
 19 20  1  6
 20 39  1  0
 20 40  1  0
 20 41  1  0
M  END
>  <i_m_ct_stereo_status>  (189) 
1

>  <s_m_source_file>  (189) 
/var/tmp/pbs.5076255.sched01/tmp7w47f283/46ruht8ay8.sdf

>  <i_m_source_file_index>  (189) 
35

>  <i_lp_mmshare_version>  (189) 
48012

>  <i_f3d_flags>  (189) 
0

>  <s_epik_input>  (189) 
W0NIMl0xW0NASF0yW0NIMl1bQ0gyXS9DKD1DKFxbQ0gzXSlDKD1PKVtDSDJdMylbQ0BAXTIoW0NIM10pQyhbQ0BIXTFbQ0BdMzRbQ0gzXSk9W0NIXUMoPU8pW05IXTQ=

>  <s_epik_cmdline>  (189) 
J2VwaWtfcHl0aG9uJywgJy1waHQnLCAnMi4wJywgJy1waCcsICc3LjAnLCAnLXRuJywgJzgnLCAnLW1hJywgJzIwMCcsICctaW1hZScsICc8aW5maWxlLm1hZT4nLCAnLW9tYWUnLCAnPG91dGZpbGUubWFlPic=

>  <r_lp_tautomer_probability>  (189) 
1

>  <r_epik_Ionization_Penalty>  (189) 
9.89581e-07

>  <r_epik_Ionization_Penalty_Charging>  (189) 
0

>  <r_epik_Ionization_Penalty_Neutral>  (189) 
9.89581e-07

>  <r_epik_State_Penalty>  (189) 
-0

>  <r_epik_Charging_Adjusted_Penalty>  (189) 
0

>  <i_epik_Tot_Q>  (189) 
0

>  <i_epik_Tot_abs_Q>  (189) 
0

>  <s_lp_Force_Field>  (189) 
OPLS3e

>  <r_lp_Energy>  (189) 
43.8035

>  <b_lp_Chiralities_Consistent>  (189) 
1

>  <s_lp_Variant>  (189) 
54:0-1

>  <s_i_glide_gridfile>  (189) 
pfpi4k_grid

>  <i_i_glide_lignum>  (189) 
35

>  <i_i_glide_rotatable_bonds>  (189) 
0

>  <r_i_docking_score>  (189) 
-4.01664

>  <r_i_glide_ligand_efficiency>  (189) 
-0.200832

>  <r_i_glide_ligand_efficiency_sa>  (189) 
-0.545142

>  <r_i_glide_ligand_efficiency_ln>  (189) 
-1.00523

>  <r_i_glide_gscore>  (189) 
-4.01664

>  <r_i_glide_lipo>  (189) 
-0.535722

>  <r_i_glide_hbond>  (189) 
-0.16

>  <r_i_glide_metal>  (189) 
-0

>  <r_i_glide_rewards>  (189) 
-1.66075

>  <r_i_glide_evdw>  (189) 
-21.8731

>  <r_i_glide_ecoul>  (189) 
-3.48459

>  <r_i_glide_erotb>  (189) 
0

>  <r_i_glide_esite>  (189) 
-0.0438259

>  <r_i_glide_emodel>  (189) 
-31.6026

>  <r_i_glide_energy>  (189) 
-25.3577

>  <r_i_glide_einternal>  (189) 
0

>  <r_i_glide_intrahb_reward>  (189) 
-0

>  <i_i_glide_confnum>  (189) 
1

>  <i_i_glide_posenum>  (189) 
1

>  <r_i_glide_eff_state_penalty>  (189) 
0

>  <ligand_id>  (189) 
54

>  <original_smiles>  (189) 
CC1=C2CCC3CC4C(=CC(=O)NC4(C)CC1=O)C23C

>  <smiles>  (189) 
[H]C1=C2C3([H])C([H])([H])C4([H])C([H])([H])C([H])([H])C(=C(C([H])([H])[H])C(=O)C([H])([H])C3(C([H])([H])[H])N([H])C1=O)C24C([H])([H])[H]

$$$$
54:0:1
     RDKit          3D

 41 44  0  0  1  0  0  0  0  0999 V2000
    7.7323   -4.2487    0.4089 C   0  0  0  0  0  0  0  0  0  0  0  0
    6.2288   -4.0319    0.5243 C   0  0  0  0  0  0  0  0  0  0  0  0
    5.5098   -3.2247   -0.3116 C   0  0  0  0  0  0  0  0  0  0  0  0
    6.1595   -2.2257   -1.2409 C   0  0  0  0  0  0  0  0  0  0  0  0
    5.4166   -0.9224   -0.8998 C   0  0  0  0  0  0  0  0  0  0  0  0
    4.1680   -1.3182   -0.0938 C   0  0  2  0  0  0  0  0  0  0  0  0
    4.3226   -1.1850    1.4446 C   0  0  0  0  0  0  0  0  0  0  0  0
    3.4710   -2.3361    2.0143 C   0  0  1  0  0  0  0  0  0  0  0  0
    3.2508   -3.2893    0.8839 C   0  0  0  0  0  0  0  0  0  0  0  0
    2.6114   -4.4649    1.0561 C   0  0  0  0  0  0  0  0  0  0  0  0
    2.2184   -4.8530    2.4115 C   0  0  0  0  0  0  0  0  0  0  0  0
    1.3050   -5.6273    2.6764 O   0  0  0  0  0  0  0  0  0  0  0  0
    2.9626   -4.2757    3.3864 N   0  0  0  0  0  0  0  0  0  0  0  0
    3.9676   -3.2022    3.2001 C   0  0  2  0  0  0  0  0  0  0  0  0
    3.9938   -2.3481    4.4838 C   0  0  0  0  0  0  0  0  0  0  0  0
    5.3935   -3.8281    2.9864 C   0  0  0  0  0  0  0  0  0  0  0  0
    5.6795   -4.6921    1.7325 C   0  0  0  0  0  0  0  0  0  0  0  0
    5.5092   -5.9105    1.7953 O   0  0  0  0  0  0  0  0  0  0  0  0
    4.0222   -2.8196   -0.3135 C   0  0  2  0  0  0  0  0  0  0  0  0
    3.3122   -3.1737   -1.6348 C   0  0  0  0  0  0  0  0  0  0  0  0
    7.9564   -5.3075    0.5311 H   0  0  0  0  0  0  0  0  0  0  0  0
    8.2676   -3.7020    1.1856 H   0  0  0  0  0  0  0  0  0  0  0  0
    8.1358   -3.9632   -0.5617 H   0  0  0  0  0  0  0  0  0  0  0  0
    7.2342   -2.1234   -1.1176 H   0  0  0  0  0  0  0  0  0  0  0  0
    5.9711   -2.5175   -2.2731 H   0  0  0  0  0  0  0  0  0  0  0  0
    6.0416   -0.2546   -0.3041 H   0  0  0  0  0  0  0  0  0  0  0  0
    5.1478   -0.3811   -1.8070 H   0  0  0  0  0  0  0  0  0  0  0  0
    3.2783   -0.7848   -0.4261 H   0  0  0  0  0  0  0  0  0  0  0  0
    5.3652   -1.2847    1.7442 H   0  0  0  0  0  0  0  0  0  0  0  0
    3.9801   -0.2130    1.7996 H   0  0  0  0  0  0  0  0  0  0  0  0
    2.4929   -1.9259    2.2619 H   0  0  0  0  0  0  0  0  0  0  0  0
    2.5235   -5.1638    0.2388 H   0  0  0  0  0  0  0  0  0  0  0  0
    2.7582   -4.5450    4.3381 H   0  0  0  0  0  0  0  0  0  0  0  0
    4.7210   -1.5383    4.3988 H   0  0  0  0  0  0  0  0  0  0  0  0
    4.2695   -2.9392    5.3599 H   0  0  0  0  0  0  0  0  0  0  0  0
    3.0226   -1.8938    4.6843 H   0  0  0  0  0  0  0  0  0  0  0  0
    6.1313   -3.0263    3.0009 H   0  0  0  0  0  0  0  0  0  0  0  0
    5.6187   -4.4547    3.8520 H   0  0  0  0  0  0  0  0  0  0  0  0
    3.3927   -4.2441   -1.8265 H   0  0  0  0  0  0  0  0  0  0  0  0
    3.7536   -2.6654   -2.4900 H   0  0  0  0  0  0  0  0  0  0  0  0
    2.2524   -2.9018   -1.6188 H   0  0  0  0  0  0  0  0  0  0  0  0
  1  2  1  0
  1 21  1  0
  1 22  1  0
  1 23  1  0
  2 17  1  0
  2  3  2  3
  3 19  1  0
  3  4  1  0
  4  5  1  0
  4 24  1  0
  4 25  1  0
  5  6  1  0
  5 26  1  0
  5 27  1  0
  6 19  1  0
  6  7  1  0
  6 28  1  6
  7  8  1  0
  7 29  1  0
  7 30  1  0
  8 14  1  0
  8  9  1  0
  8 31  1  1
  9 10  2  0
  9 19  1  0
 10 11  1  0
 10 32  1  0
 11 12  2  0
 11 13  1  0
 13 14  1  0
 13 33  1  0
 14 15  1  1
 14 16  1  0
 15 34  1  0
 15 35  1  0
 15 36  1  0
 16 17  1  0
 16 37  1  0
 16 38  1  0
 17 18  2  0
 19 20  1  6
 20 39  1  0
 20 40  1  0
 20 41  1  0
M  END
>  <i_m_ct_stereo_status>  (190) 
1

>  <s_m_source_file>  (190) 
/var/tmp/pbs.5076255.sched01/tmp7w47f283/46ruht8ay8.sdf

>  <i_m_source_file_index>  (190) 
35

>  <i_lp_mmshare_version>  (190) 
48012

>  <i_f3d_flags>  (190) 
0

>  <s_epik_input>  (190) 
W0NIMl0xW0NASF0yW0NIMl1bQ0gyXS9DKD1DKFxbQ0gzXSlDKD1PKVtDSDJdMylbQ0BAXTIoW0NIM10pQyhbQ0BIXTFbQ0BdMzRbQ0gzXSk9W0NIXUMoPU8pW05IXTQ=

>  <s_epik_cmdline>  (190) 
J2VwaWtfcHl0aG9uJywgJy1waHQnLCAnMi4wJywgJy1waCcsICc3LjAnLCAnLXRuJywgJzgnLCAnLW1hJywgJzIwMCcsICctaW1hZScsICc8aW5maWxlLm1hZT4nLCAnLW9tYWUnLCAnPG91dGZpbGUubWFlPic=

>  <r_lp_tautomer_probability>  (190) 
1

>  <r_epik_Ionization_Penalty>  (190) 
9.89581e-07

>  <r_epik_Ionization_Penalty_Charging>  (190) 
0

>  <r_epik_Ionization_Penalty_Neutral>  (190) 
9.89581e-07

>  <r_epik_State_Penalty>  (190) 
-0

>  <r_epik_Charging_Adjusted_Penalty>  (190) 
0

>  <i_epik_Tot_Q>  (190) 
0

>  <i_epik_Tot_abs_Q>  (190) 
0

>  <s_lp_Force_Field>  (190) 
OPLS3e

>  <r_lp_Energy>  (190) 
43.8035

>  <b_lp_Chiralities_Consistent>  (190) 
1

>  <s_lp_Variant>  (190) 
54:0-1

>  <s_i_glide_gridfile>  (190) 
pfpi4k_grid

>  <i_i_glide_lignum>  (190) 
35

>  <i_i_glide_rotatable_bonds>  (190) 
0

>  <r_i_docking_score>  (190) 
-3.12404

>  <r_i_glide_ligand_efficiency>  (190) 
-0.156202

>  <r_i_glide_ligand_efficiency_sa>  (190) 
-0.423997

>  <r_i_glide_ligand_efficiency_ln>  (190) 
-0.781843

>  <r_i_glide_gscore>  (190) 
-3.12404

>  <r_i_glide_lipo>  (190) 
-0.403415

>  <r_i_glide_hbond>  (190) 
0

>  <r_i_glide_metal>  (190) 
-0

>  <r_i_glide_rewards>  (190) 
-1.62402

>  <r_i_glide_evdw>  (190) 
-18.9194

>  <r_i_glide_ecoul>  (190) 
-0.924392

>  <r_i_glide_erotb>  (190) 
0

>  <r_i_glide_esite>  (190) 
-0.0119738

>  <r_i_glide_emodel>  (190) 
-24.6471

>  <r_i_glide_energy>  (190) 
-19.8438

>  <r_i_glide_einternal>  (190) 
0

>  <r_i_glide_intrahb_reward>  (190) 
-0

>  <i_i_glide_confnum>  (190) 
2

>  <i_i_glide_posenum>  (190) 
6

>  <r_i_glide_eff_state_penalty>  (190) 
0

>  <ligand_id>  (190) 
54

>  <original_smiles>  (190) 
CC1=C2CCC3CC4C(=CC(=O)NC4(C)CC1=O)C23C

>  <smiles>  (190) 
[H]C1=C2C3([H])C([H])([H])C4([H])C([H])([H])C([H])([H])C(=C(C([H])([H])[H])C(=O)C([H])([H])C3(C([H])([H])[H])N([H])C1=O)C24C([H])([H])[H]

$$$$
54:1:0
     RDKit          3D

 41 44  0  0  1  0  0  0  0  0999 V2000
    7.4276   -2.0600    0.3733 C   0  0  0  0  0  0  0  0  0  0  0  0
    5.9765   -1.6134    0.2207 C   0  0  0  0  0  0  0  0  0  0  0  0
    5.2620   -1.7882   -0.9148 C   0  0  0  0  0  0  0  0  0  0  0  0
    4.0743   -0.9386   -1.3249 C   0  0  0  0  0  0  0  0  0  0  0  0
    3.3106   -1.7139   -2.3888 C   0  0  0  0  0  0  0  0  0  0  0  0
    3.5634   -3.1485   -1.9746 C   0  0  2  0  0  0  0  0  0  0  0  0
    2.7036   -3.5426   -0.7489 C   0  0  0  0  0  0  0  0  0  0  0  0
    3.6577   -4.2387    0.2238 C   0  0  1  0  0  0  0  0  0  0  0  0
    5.0206   -4.1933   -0.3942 C   0  0  0  0  0  0  0  0  0  0  0  0
    6.0643   -4.7772    0.2277 C   0  0  0  0  0  0  0  0  0  0  0  0
    5.8999   -5.1904    1.6218 C   0  0  0  0  0  0  0  0  0  0  0  0
    6.6194   -5.9980    2.1978 O   0  0  0  0  0  0  0  0  0  0  0  0
    4.9175   -4.5342    2.2856 N   0  0  0  0  0  0  0  0  0  0  0  0
    3.8023   -3.7519    1.6912 C   0  0  2  0  0  0  0  0  0  0  0  0
    2.5272   -4.1378    2.4636 C   0  0  0  0  0  0  0  0  0  0  0  0
    3.9734   -2.1905    1.8706 C   0  0  0  0  0  0  0  0  0  0  0  0
    5.2990   -1.4627    1.5341 C   0  0  0  0  0  0  0  0  0  0  0  0
    5.8014   -0.7825    2.4292 O   0  0  0  0  0  0  0  0  0  0  0  0
    5.0333   -3.1786   -1.5214 C   0  0  2  0  0  0  0  0  0  0  0  0
    6.0041   -3.4387   -2.6707 C   0  0  0  0  0  0  0  0  0  0  0  0
    8.0605   -1.1777    0.4793 H   0  0  0  0  0  0  0  0  0  0  0  0
    7.7818   -2.6080   -0.4978 H   0  0  0  0  0  0  0  0  0  0  0  0
    7.5660   -2.6820    1.2573 H   0  0  0  0  0  0  0  0  0  0  0  0
    3.4233   -0.7121   -0.4861 H   0  0  0  0  0  0  0  0  0  0  0  0
    4.4251    0.0046   -1.7328 H   0  0  0  0  0  0  0  0  0  0  0  0
    2.2486   -1.4669   -2.4446 H   0  0  0  0  0  0  0  0  0  0  0  0
    3.7408   -1.5261   -3.3719 H   0  0  0  0  0  0  0  0  0  0  0  0
    3.3801   -3.8467   -2.7917 H   0  0  0  0  0  0  0  0  0  0  0  0
    2.2162   -2.6885   -0.2850 H   0  0  0  0  0  0  0  0  0  0  0  0
    1.9047   -4.2179   -1.0552 H   0  0  0  0  0  0  0  0  0  0  0  0
    3.3766   -5.2914    0.2431 H   0  0  0  0  0  0  0  0  0  0  0  0
    7.0582   -4.7009   -0.1782 H   0  0  0  0  0  0  0  0  0  0  0  0
    4.8360   -4.7432    3.2708 H   0  0  0  0  0  0  0  0  0  0  0  0
    1.6666   -3.5871    2.0816 H   0  0  0  0  0  0  0  0  0  0  0  0
    2.6068   -3.8984    3.5260 H   0  0  0  0  0  0  0  0  0  0  0  0
    2.3044   -5.2023    2.3812 H   0  0  0  0  0  0  0  0  0  0  0  0
    3.1680   -1.6606    1.3656 H   0  0  0  0  0  0  0  0  0  0  0  0
    3.8112   -1.9737    2.9300 H   0  0  0  0  0  0  0  0  0  0  0  0
    7.0459   -3.4839   -2.3471 H   0  0  0  0  0  0  0  0  0  0  0  0
    5.9322   -2.6564   -3.4175 H   0  0  0  0  0  0  0  0  0  0  0  0
    5.7428   -4.3643   -3.1704 H   0  0  0  0  0  0  0  0  0  0  0  0
  1  2  1  0
  1 21  1  0
  1 22  1  0
  1 23  1  0
  2 17  1  0
  2  3  2  3
  3 19  1  0
  3  4  1  0
  4  5  1  0
  4 24  1  0
  4 25  1  0
  5  6  1  0
  5 26  1  0
  5 27  1  0
  6 19  1  0
  6  7  1  0
  6 28  1  6
  7  8  1  0
  7 29  1  0
  7 30  1  0
  8 14  1  0
  8  9  1  0
  8 31  1  1
  9 10  2  0
  9 19  1  0
 10 11  1  0
 10 32  1  0
 11 12  2  0
 11 13  1  0
 13 14  1  0
 13 33  1  0
 14 15  1  1
 14 16  1  0
 15 34  1  0
 15 35  1  0
 15 36  1  0
 16 17  1  0
 16 37  1  0
 16 38  1  0
 17 18  2  0
 19 20  1  6
 20 39  1  0
 20 40  1  0
 20 41  1  0
M  END
>  <i_m_ct_stereo_status>  (191) 
1

>  <s_m_source_file>  (191) 
/var/tmp/pbs.5076255.sched01/tmp7w47f283/46ruht8ay8.sdf

>  <i_m_source_file_index>  (191) 
36

>  <i_lp_mmshare_version>  (191) 
48012

>  <i_f3d_flags>  (191) 
0

>  <s_epik_input>  (191) 
W0NIMl0xW0NASF0yW0NIMl1bQ0gyXS9DKD1DKFxbQ0gzXSlDKD1PKVtDSDJdMylbQ0BAXTIoW0NIM10pQyhbQ0BIXTFbQ0BdMzRbQ0gzXSk9W0NIXUMoPU8pW05IXTQ=

>  <s_epik_cmdline>  (191) 
J2VwaWtfcHl0aG9uJywgJy1waHQnLCAnMi4wJywgJy1waCcsICc3LjAnLCAnLXRuJywgJzgnLCAnLW1hJywgJzIwMCcsICctaW1hZScsICc8aW5maWxlLm1hZT4nLCAnLW9tYWUnLCAnPG91dGZpbGUubWFlPic=

>  <r_lp_tautomer_probability>  (191) 
1

>  <r_epik_Ionization_Penalty>  (191) 
9.89581e-07

>  <r_epik_Ionization_Penalty_Charging>  (191) 
0

>  <r_epik_Ionization_Penalty_Neutral>  (191) 
9.89581e-07

>  <r_epik_State_Penalty>  (191) 
-0

>  <r_epik_Charging_Adjusted_Penalty>  (191) 
0

>  <i_epik_Tot_Q>  (191) 
0

>  <i_epik_Tot_abs_Q>  (191) 
0

>  <s_lp_Force_Field>  (191) 
OPLS3e

>  <r_lp_Energy>  (191) 
73.5934

>  <b_lp_Chiralities_Consistent>  (191) 
1

>  <s_lp_Variant>  (191) 
54:0-2

>  <s_i_glide_gridfile>  (191) 
pfpi4k_grid

>  <i_i_glide_lignum>  (191) 
36

>  <i_i_glide_rotatable_bonds>  (191) 
0

>  <r_i_docking_score>  (191) 
-3.68503

>  <r_i_glide_ligand_efficiency>  (191) 
-0.184252

>  <r_i_glide_ligand_efficiency_sa>  (191) 
-0.500136

>  <r_i_glide_ligand_efficiency_ln>  (191) 
-0.922242

>  <r_i_glide_gscore>  (191) 
-3.68503

>  <r_i_glide_lipo>  (191) 
-0.613835

>  <r_i_glide_hbond>  (191) 
0

>  <r_i_glide_metal>  (191) 
-0

>  <r_i_glide_rewards>  (191) 
-1.7863

>  <r_i_glide_evdw>  (191) 
-22.4364

>  <r_i_glide_ecoul>  (191) 
-1.08714

>  <r_i_glide_erotb>  (191) 
0

>  <r_i_glide_esite>  (191) 
0

>  <r_i_glide_emodel>  (191) 
-28.1913

>  <r_i_glide_energy>  (191) 
-23.5236

>  <r_i_glide_einternal>  (191) 
0

>  <r_i_glide_intrahb_reward>  (191) 
-0

>  <i_i_glide_confnum>  (191) 
1

>  <i_i_glide_posenum>  (191) 
39

>  <r_i_glide_eff_state_penalty>  (191) 
0

>  <ligand_id>  (191) 
54

>  <original_smiles>  (191) 
CC1=C2CCC3CC4C(=CC(=O)NC4(C)CC1=O)C23C

>  <smiles>  (191) 
[H]C1=C2C3([H])C([H])([H])C4([H])C([H])([H])C([H])([H])C(=C(C([H])([H])[H])C(=O)C([H])([H])C3(C([H])([H])[H])N([H])C1=O)C24C([H])([H])[H]

$$$$
54:1:1
     RDKit          3D

 41 44  0  0  1  0  0  0  0  0999 V2000
    4.4141   -5.7450    0.1627 C   0  0  0  0  0  0  0  0  0  0  0  0
    5.2116   -4.4889   -0.1778 C   0  0  0  0  0  0  0  0  0  0  0  0
    4.8110   -3.5560   -1.0720 C   0  0  0  0  0  0  0  0  0  0  0  0
    5.7612   -2.6078   -1.8033 C   0  0  0  0  0  0  0  0  0  0  0  0
    4.8993   -1.4629   -2.3199 C   0  0  0  0  0  0  0  0  0  0  0  0
    3.8077   -1.3715   -1.2798 C   0  0  2  0  0  0  0  0  0  0  0  0
    4.3165   -0.6709    0.0060 C   0  0  0  0  0  0  0  0  0  0  0  0
    3.8342   -1.5389    1.1626 C   0  0  1  0  0  0  0  0  0  0  0  0
    3.1457   -2.7272    0.5677 C   0  0  0  0  0  0  0  0  0  0  0  0
    2.6050   -3.6595    1.3744 C   0  0  0  0  0  0  0  0  0  0  0  0
    2.9203   -3.6273    2.7999 C   0  0  0  0  0  0  0  0  0  0  0  0
    2.2502   -4.1646    3.6738 O   0  0  0  0  0  0  0  0  0  0  0  0
    4.0888   -3.0094    3.0883 N   0  0  0  0  0  0  0  0  0  0  0  0
    4.8361   -2.0770    2.2027 C   0  0  2  0  0  0  0  0  0  0  0  0
    5.2898   -0.8962    3.0799 C   0  0  0  0  0  0  0  0  0  0  0  0
    6.1289   -2.7255    1.5758 C   0  0  0  0  0  0  0  0  0  0  0  0
    6.1386   -4.1276    0.9171 C   0  0  0  0  0  0  0  0  0  0  0  0
    6.9251   -4.9571    1.3728 O   0  0  0  0  0  0  0  0  0  0  0  0
    3.4632   -2.8220   -0.9133 C   0  0  2  0  0  0  0  0  0  0  0  0
    2.3660   -3.4496   -1.7965 C   0  0  0  0  0  0  0  0  0  0  0  0
    4.9681   -6.6090   -0.2051 H   0  0  0  0  0  0  0  0  0  0  0  0
    3.4419   -5.7531   -0.3203 H   0  0  0  0  0  0  0  0  0  0  0  0
    4.2616   -5.8722    1.2365 H   0  0  0  0  0  0  0  0  0  0  0  0
    6.5410   -2.2221   -1.1555 H   0  0  0  0  0  0  0  0  0  0  0  0
    6.2464   -3.1315   -2.6237 H   0  0  0  0  0  0  0  0  0  0  0  0
    5.4175   -0.5135   -2.4608 H   0  0  0  0  0  0  0  0  0  0  0  0
    4.4547   -1.7390   -3.2755 H   0  0  0  0  0  0  0  0  0  0  0  0
    2.9349   -0.8491   -1.6660 H   0  0  0  0  0  0  0  0  0  0  0  0
    5.3951   -0.5314    0.0152 H   0  0  0  0  0  0  0  0  0  0  0  0
    3.8973    0.3264    0.1034 H   0  0  0  0  0  0  0  0  0  0  0  0
    3.0669   -0.9764    1.6929 H   0  0  0  0  0  0  0  0  0  0  0  0
    2.1426   -4.5377    0.9581 H   0  0  0  0  0  0  0  0  0  0  0  0
    4.3883   -3.0474    4.0527 H   0  0  0  0  0  0  0  0  0  0  0  0
    5.8817   -0.1812    2.5040 H   0  0  0  0  0  0  0  0  0  0  0  0
    5.8991   -1.2352    3.9128 H   0  0  0  0  0  0  0  0  0  0  0  0
    4.4482   -0.3622    3.5224 H   0  0  0  0  0  0  0  0  0  0  0  0
    6.6381   -2.0283    0.9125 H   0  0  0  0  0  0  0  0  0  0  0  0
    6.8018   -2.8432    2.4137 H   0  0  0  0  0  0  0  0  0  0  0  0
    2.0963   -4.4538   -1.4731 H   0  0  0  0  0  0  0  0  0  0  0  0
    2.7151   -3.5029   -2.8268 H   0  0  0  0  0  0  0  0  0  0  0  0
    1.4455   -2.8691   -1.8077 H   0  0  0  0  0  0  0  0  0  0  0  0
  1  2  1  0
  1 21  1  0
  1 22  1  0
  1 23  1  0
  2 17  1  0
  2  3  2  3
  3 19  1  0
  3  4  1  0
  4  5  1  0
  4 24  1  0
  4 25  1  0
  5  6  1  0
  5 26  1  0
  5 27  1  0
  6 19  1  0
  6  7  1  0
  6 28  1  6
  7  8  1  0
  7 29  1  0
  7 30  1  0
  8 14  1  0
  8  9  1  0
  8 31  1  1
  9 10  2  0
  9 19  1  0
 10 11  1  0
 10 32  1  0
 11 12  2  0
 11 13  1  0
 13 14  1  0
 13 33  1  0
 14 15  1  1
 14 16  1  0
 15 34  1  0
 15 35  1  0
 15 36  1  0
 16 17  1  0
 16 37  1  0
 16 38  1  0
 17 18  2  0
 19 20  1  6
 20 39  1  0
 20 40  1  0
 20 41  1  0
M  END
>  <i_m_ct_stereo_status>  (192) 
1

>  <s_m_source_file>  (192) 
/var/tmp/pbs.5076255.sched01/tmp7w47f283/46ruht8ay8.sdf

>  <i_m_source_file_index>  (192) 
36

>  <i_lp_mmshare_version>  (192) 
48012

>  <i_f3d_flags>  (192) 
0

>  <s_epik_input>  (192) 
W0NIMl0xW0NASF0yW0NIMl1bQ0gyXS9DKD1DKFxbQ0gzXSlDKD1PKVtDSDJdMylbQ0BAXTIoW0NIM10pQyhbQ0BIXTFbQ0BdMzRbQ0gzXSk9W0NIXUMoPU8pW05IXTQ=

>  <s_epik_cmdline>  (192) 
J2VwaWtfcHl0aG9uJywgJy1waHQnLCAnMi4wJywgJy1waCcsICc3LjAnLCAnLXRuJywgJzgnLCAnLW1hJywgJzIwMCcsICctaW1hZScsICc8aW5maWxlLm1hZT4nLCAnLW9tYWUnLCAnPG91dGZpbGUubWFlPic=

>  <r_lp_tautomer_probability>  (192) 
1

>  <r_epik_Ionization_Penalty>  (192) 
9.89581e-07

>  <r_epik_Ionization_Penalty_Charging>  (192) 
0

>  <r_epik_Ionization_Penalty_Neutral>  (192) 
9.89581e-07

>  <r_epik_State_Penalty>  (192) 
-0

>  <r_epik_Charging_Adjusted_Penalty>  (192) 
0

>  <i_epik_Tot_Q>  (192) 
0

>  <i_epik_Tot_abs_Q>  (192) 
0

>  <s_lp_Force_Field>  (192) 
OPLS3e

>  <r_lp_Energy>  (192) 
73.5934

>  <b_lp_Chiralities_Consistent>  (192) 
1

>  <s_lp_Variant>  (192) 
54:0-2

>  <s_i_glide_gridfile>  (192) 
pfpi4k_grid

>  <i_i_glide_lignum>  (192) 
36

>  <i_i_glide_rotatable_bonds>  (192) 
0

>  <r_i_docking_score>  (192) 
-3.126

>  <r_i_glide_ligand_efficiency>  (192) 
-0.1563

>  <r_i_glide_ligand_efficiency_sa>  (192) 
-0.424264

>  <r_i_glide_ligand_efficiency_ln>  (192) 
-0.782335

>  <r_i_glide_gscore>  (192) 
-3.126

>  <r_i_glide_lipo>  (192) 
-0.531435

>  <r_i_glide_hbond>  (192) 
0

>  <r_i_glide_metal>  (192) 
-0

>  <r_i_glide_rewards>  (192) 
-1.68022

>  <r_i_glide_evdw>  (192) 
-19.2895

>  <r_i_glide_ecoul>  (192) 
0.338567

>  <r_i_glide_erotb>  (192) 
0

>  <r_i_glide_esite>  (192) 
-0.000657935

>  <r_i_glide_emodel>  (192) 
-22.8605

>  <r_i_glide_energy>  (192) 
-18.951

>  <r_i_glide_einternal>  (192) 
0

>  <r_i_glide_intrahb_reward>  (192) 
-0

>  <i_i_glide_confnum>  (192) 
1

>  <i_i_glide_posenum>  (192) 
2

>  <r_i_glide_eff_state_penalty>  (192) 
0

>  <ligand_id>  (192) 
54

>  <original_smiles>  (192) 
CC1=C2CCC3CC4C(=CC(=O)NC4(C)CC1=O)C23C

>  <smiles>  (192) 
[H]C1=C2C3([H])C([H])([H])C4([H])C([H])([H])C([H])([H])C(=C(C([H])([H])[H])C(=O)C([H])([H])C3(C([H])([H])[H])N([H])C1=O)C24C([H])([H])[H]

$$$$
54:1:2
     RDKit          3D

 41 44  0  0  1  0  0  0  0  0999 V2000
    4.6870   -5.9849    0.4697 C   0  0  0  0  0  0  0  0  0  0  0  0
    5.4103   -4.7021    0.8725 C   0  0  0  0  0  0  0  0  0  0  0  0
    5.2856   -3.5220    0.2111 C   0  0  0  0  0  0  0  0  0  0  0  0
    6.3317   -2.4119    0.2251 C   0  0  0  0  0  0  0  0  0  0  0  0
    5.6153   -1.1477   -0.2473 C   0  0  0  0  0  0  0  0  0  0  0  0
    4.1933   -1.3607    0.2442 C   0  0  2  0  0  0  0  0  0  0  0  0
    4.0873   -1.1092    1.7680 C   0  0  0  0  0  0  0  0  0  0  0  0
    3.3112   -2.3020    2.3369 C   0  0  1  0  0  0  0  0  0  0  0  0
    3.0347   -3.2295    1.1964 C   0  0  0  0  0  0  0  0  0  0  0  0
    2.3307   -4.3599    1.3982 C   0  0  0  0  0  0  0  0  0  0  0  0
    2.0651   -4.7825    2.7729 C   0  0  0  0  0  0  0  0  0  0  0  0
    1.1614   -5.5399    3.0996 O   0  0  0  0  0  0  0  0  0  0  0  0
    2.9586   -4.3062    3.6804 N   0  0  0  0  0  0  0  0  0  0  0  0
    3.8885   -3.1649    3.4924 C   0  0  2  0  0  0  0  0  0  0  0  0
    3.8465   -2.3305    4.7883 C   0  0  0  0  0  0  0  0  0  0  0  0
    5.3879   -3.6219    3.3009 C   0  0  0  0  0  0  0  0  0  0  0  0
    5.8002   -4.7349    2.3042 C   0  0  0  0  0  0  0  0  0  0  0  0
    6.4278   -5.6907    2.7605 O   0  0  0  0  0  0  0  0  0  0  0  0
    3.9087   -2.8567    0.0119 C   0  0  2  0  0  0  0  0  0  0  0  0
    3.3244   -3.1568   -1.3790 C   0  0  0  0  0  0  0  0  0  0  0  0
    5.4244   -6.7018    0.1203 H   0  0  0  0  0  0  0  0  0  0  0  0
    3.9973   -5.8246   -0.3537 H   0  0  0  0  0  0  0  0  0  0  0  0
    4.1478   -6.4472    1.2985 H   0  0  0  0  0  0  0  0  0  0  0  0
    6.7585   -2.2558    1.2106 H   0  0  0  0  0  0  0  0  0  0  0  0
    7.1495   -2.6697   -0.4459 H   0  0  0  0  0  0  0  0  0  0  0  0
    6.0606   -0.2196    0.1136 H   0  0  0  0  0  0  0  0  0  0  0  0
    5.6094   -1.1102   -1.3362 H   0  0  0  0  0  0  0  0  0  0  0  0
    3.4724   -0.7374   -0.2835 H   0  0  0  0  0  0  0  0  0  0  0  0
    5.0607   -1.0015    2.2433 H   0  0  0  0  0  0  0  0  0  0  0  0
    3.5577   -0.1755    1.9602 H   0  0  0  0  0  0  0  0  0  0  0  0
    2.3409   -1.9204    2.6551 H   0  0  0  0  0  0  0  0  0  0  0  0
    2.1656   -5.0574    0.5918 H   0  0  0  0  0  0  0  0  0  0  0  0
    2.8645   -4.6555    4.6228 H   0  0  0  0  0  0  0  0  0  0  0  0
    4.5149   -1.4700    4.7223 H   0  0  0  0  0  0  0  0  0  0  0  0
    4.1643   -2.9167    5.6525 H   0  0  0  0  0  0  0  0  0  0  0  0
    2.8453   -1.9536    4.9974 H   0  0  0  0  0  0  0  0  0  0  0  0
    6.0074   -2.7523    3.1015 H   0  0  0  0  0  0  0  0  0  0  0  0
    5.7334   -3.9847    4.2718 H   0  0  0  0  0  0  0  0  0  0  0  0
    3.1102   -4.2177   -1.5053 H   0  0  0  0  0  0  0  0  0  0  0  0
    4.0368   -2.8794   -2.1544 H   0  0  0  0  0  0  0  0  0  0  0  0
    2.3984   -2.6095   -1.5614 H   0  0  0  0  0  0  0  0  0  0  0  0
  1  2  1  0
  1 21  1  0
  1 22  1  0
  1 23  1  0
  2 17  1  0
  2  3  2  3
  3 19  1  0
  3  4  1  0
  4  5  1  0
  4 24  1  0
  4 25  1  0
  5  6  1  0
  5 26  1  0
  5 27  1  0
  6 19  1  0
  6  7  1  0
  6 28  1  6
  7  8  1  0
  7 29  1  0
  7 30  1  0
  8 14  1  0
  8  9  1  0
  8 31  1  1
  9 10  2  0
  9 19  1  0
 10 11  1  0
 10 32  1  0
 11 12  2  0
 11 13  1  0
 13 14  1  0
 13 33  1  0
 14 15  1  1
 14 16  1  0
 15 34  1  0
 15 35  1  0
 15 36  1  0
 16 17  1  0
 16 37  1  0
 16 38  1  0
 17 18  2  0
 19 20  1  6
 20 39  1  0
 20 40  1  0
 20 41  1  0
M  END
>  <i_m_ct_stereo_status>  (193) 
1

>  <s_m_source_file>  (193) 
/var/tmp/pbs.5076255.sched01/tmp7w47f283/46ruht8ay8.sdf

>  <i_m_source_file_index>  (193) 
36

>  <i_lp_mmshare_version>  (193) 
48012

>  <i_f3d_flags>  (193) 
0

>  <s_epik_input>  (193) 
W0NIMl0xW0NASF0yW0NIMl1bQ0gyXS9DKD1DKFxbQ0gzXSlDKD1PKVtDSDJdMylbQ0BAXTIoW0NIM10pQyhbQ0BIXTFbQ0BdMzRbQ0gzXSk9W0NIXUMoPU8pW05IXTQ=

>  <s_epik_cmdline>  (193) 
J2VwaWtfcHl0aG9uJywgJy1waHQnLCAnMi4wJywgJy1waCcsICc3LjAnLCAnLXRuJywgJzgnLCAnLW1hJywgJzIwMCcsICctaW1hZScsICc8aW5maWxlLm1hZT4nLCAnLW9tYWUnLCAnPG91dGZpbGUubWFlPic=

>  <r_lp_tautomer_probability>  (193) 
1

>  <r_epik_Ionization_Penalty>  (193) 
9.89581e-07

>  <r_epik_Ionization_Penalty_Charging>  (193) 
0

>  <r_epik_Ionization_Penalty_Neutral>  (193) 
9.89581e-07

>  <r_epik_State_Penalty>  (193) 
-0

>  <r_epik_Charging_Adjusted_Penalty>  (193) 
0

>  <i_epik_Tot_Q>  (193) 
0

>  <i_epik_Tot_abs_Q>  (193) 
0

>  <s_lp_Force_Field>  (193) 
OPLS3e

>  <r_lp_Energy>  (193) 
73.5934

>  <b_lp_Chiralities_Consistent>  (193) 
1

>  <s_lp_Variant>  (193) 
54:0-2

>  <s_i_glide_gridfile>  (193) 
pfpi4k_grid

>  <i_i_glide_lignum>  (193) 
36

>  <i_i_glide_rotatable_bonds>  (193) 
0

>  <r_i_docking_score>  (193) 
-2.89513

>  <r_i_glide_ligand_efficiency>  (193) 
-0.144756

>  <r_i_glide_ligand_efficiency_sa>  (193) 
-0.392929

>  <r_i_glide_ligand_efficiency_ln>  (193) 
-0.724555

>  <r_i_glide_gscore>  (193) 
-2.89513

>  <r_i_glide_lipo>  (193) 
-0.352321

>  <r_i_glide_hbond>  (193) 
0

>  <r_i_glide_metal>  (193) 
-0

>  <r_i_glide_rewards>  (193) 
-1.59498

>  <r_i_glide_evdw>  (193) 
-17.0089

>  <r_i_glide_ecoul>  (193) 
-0.588376

>  <r_i_glide_erotb>  (193) 
0

>  <r_i_glide_esite>  (193) 
-0.00912774

>  <r_i_glide_emodel>  (193) 
-21.2401

>  <r_i_glide_energy>  (193) 
-17.5973

>  <r_i_glide_einternal>  (193) 
0

>  <r_i_glide_intrahb_reward>  (193) 
-0

>  <i_i_glide_confnum>  (193) 
2

>  <i_i_glide_posenum>  (193) 
17

>  <r_i_glide_eff_state_penalty>  (193) 
0

>  <ligand_id>  (193) 
54

>  <original_smiles>  (193) 
CC1=C2CCC3CC4C(=CC(=O)NC4(C)CC1=O)C23C

>  <smiles>  (193) 
[H]C1=C2C3([H])C([H])([H])C4([H])C([H])([H])C([H])([H])C(=C(C([H])([H])[H])C(=O)C([H])([H])C3(C([H])([H])[H])N([H])C1=O)C24C([H])([H])[H]

$$$$
56:0:0
     RDKit          3D

 89 96  0  0  1  0  0  0  0  0999 V2000
   -0.5706   -9.7281    2.4811 C   0  0  0  0  0  0  0  0  0  0  0  0
    0.9873   -9.8231    2.6635 C   0  0  2  0  0  0  0  0  0  0  0  0
    1.3330  -11.1080    3.4960 C   0  0  0  0  0  0  0  0  0  0  0  0
    2.7235  -11.6472    3.2830 N   0  0  0  0  0  0  0  0  0  0  0  0
    3.8345  -10.9242    3.9731 C   0  0  2  0  0  0  0  0  0  0  0  0
    5.1535  -11.0593    3.1755 C   0  0  0  0  0  0  0  0  0  0  0  0
    6.4647  -11.1668    3.9671 C   0  0  2  0  0  0  0  0  0  0  0  0
    6.6279  -12.5768    4.5643 C   0  0  0  0  0  0  0  0  0  0  0  0
    5.9085  -12.7526    5.9144 C   0  0  1  0  0  0  0  0  0  0  0  0
    6.4212  -11.7006    6.9053 C   0  0  0  0  0  0  0  0  0  0  0  0
    6.0579  -10.3019    6.3808 C   0  0  1  0  0  0  0  0  0  0  0  0
    6.7162  -10.0429    5.0085 C   0  0  0  0  0  0  0  0  0  0  0  0
    4.5303  -10.1703    6.3355 C   0  0  0  0  0  0  0  0  0  0  0  0
    3.8527  -11.2700    5.4913 C   0  0  2  0  0  0  0  0  0  0  0  0
    4.3693  -12.6875    5.8066 C   0  0  0  0  0  0  0  0  0  0  0  0
    1.6286   -8.5116    3.2681 C   0  0  2  0  0  0  0  0  0  0  0  0
    0.8694   -7.9571    4.5144 C   0  0  0  0  0  0  0  0  0  0  0  0
    1.1220   -6.4414    4.5077 C   0  0  0  0  0  0  0  0  0  0  0  0
    2.1842   -6.2340    3.4242 C   0  0  2  0  0  0  0  0  0  0  0  0
    2.4521   -4.8498    2.8188 C   0  0  1  0  0  0  0  0  0  0  0  0
    2.4588   -3.7126    3.8519 C   0  0  0  0  0  0  0  0  0  0  0  0
    3.0736   -2.4264    3.3266 C   0  0  1  0  0  0  0  0  0  0  0  0
    4.5003   -2.4564    3.1911 O   0  0  0  0  0  0  0  0  0  0  0  0
    3.7662   -2.3620    1.9754 C   0  0  2  0  0  0  0  0  0  0  0  0
    4.0053   -1.0314    1.2293 C   0  0  1  0  0  0  0  0  0  0  0  0
    3.8561    0.0974    2.0796 O   0  0  0  0  0  0  0  0  0  0  0  0
    5.3887   -0.9879    0.5426 C   0  0  0  0  0  0  0  0  0  0  0  0
    5.6621   -2.2499   -0.3007 C   0  0  1  0  0  0  0  0  0  0  0  0
    7.0109   -2.2484   -0.7363 O   0  0  0  0  0  0  0  0  0  0  0  0
    5.3582   -3.5542    0.4729 C   0  0  0  0  0  0  0  0  0  0  0  0
    3.9208   -3.6150    1.0719 C   0  0  2  0  0  0  0  0  0  0  0  0
    2.8768   -3.6270   -0.0747 C   0  0  0  0  0  0  0  0  0  0  0  0
    3.7529   -4.9022    1.9559 C   0  0  2  0  0  0  0  0  0  0  0  0
    3.8989   -6.2574    1.2227 C   0  0  0  0  0  0  0  0  0  0  0  0
    3.0861   -7.3220    1.4099 C   0  0  0  0  0  0  0  0  0  0  0  0
    1.8732   -7.2821    2.3355 C   0  0  1  0  0  0  0  0  0  0  0  0
    0.6407   -6.9639    1.4570 C   0  0  0  0  0  0  0  0  0  0  0  0
   -1.0931   -9.6199    3.4371 H   0  0  0  0  0  0  0  0  0  0  0  0
   -0.9943  -10.6015    1.9548 H   0  0  0  0  0  0  0  0  0  0  0  0
   -0.8575   -8.8637    1.8692 H   0  0  0  0  0  0  0  0  0  0  0  0
    1.4153   -9.9978    1.6789 H   0  0  0  0  0  0  0  0  0  0  0  0
    1.1268  -10.9556    4.5572 H   0  0  0  0  0  0  0  0  0  0  0  0
    0.6605  -11.9117    3.2130 H   0  0  0  0  0  0  0  0  0  0  0  0
    2.7121  -12.6305    3.5936 H   0  0  0  0  0  0  0  0  0  0  0  0
    3.7347   -9.9210    3.9732 H   0  0  0  0  0  0  0  0  0  0  0  0
    5.1030  -11.8828    2.4544 H   0  0  0  0  0  0  0  0  0  0  0  0
    5.2092  -10.1651    2.5512 H   0  0  0  0  0  0  0  0  0  0  0  0
    7.2452  -11.0546    3.2152 H   0  0  0  0  0  0  0  0  0  0  0  0
    6.2879  -13.3297    3.8510 H   0  0  0  0  0  0  0  0  0  0  0  0
    7.6895  -12.7661    4.7127 H   0  0  0  0  0  0  0  0  0  0  0  0
    6.1508  -13.7411    6.2918 H   0  0  0  0  0  0  0  0  0  0  0  0
    5.9828  -11.8646    7.8907 H   0  0  0  0  0  0  0  0  0  0  0  0
    7.4994  -11.7926    7.0288 H   0  0  0  0  0  0  0  0  0  0  0  0
    6.4376   -9.5638    7.0836 H   0  0  0  0  0  0  0  0  0  0  0  0
    7.7929   -9.9640    5.1682 H   0  0  0  0  0  0  0  0  0  0  0  0
    6.4118   -9.0709    4.6178 H   0  0  0  0  0  0  0  0  0  0  0  0
    4.1497  -10.2313    7.3550 H   0  0  0  0  0  0  0  0  0  0  0  0
    4.2476   -9.1708    6.0000 H   0  0  0  0  0  0  0  0  0  0  0  0
    2.8176  -11.2460    5.8278 H   0  0  0  0  0  0  0  0  0  0  0  0
    4.0052  -13.3893    5.0531 H   0  0  0  0  0  0  0  0  0  0  0  0
    3.9208  -13.0027    6.7561 H   0  0  0  0  0  0  0  0  0  0  0  0
    2.5678   -8.6638    3.5995 H   0  0  0  0  0  0  0  0  0  0  0  0
   -0.2133   -8.1321    4.5416 H   0  0  0  0  0  0  0  0  0  0  0  0
    1.2871   -8.4437    5.4013 H   0  0  0  0  0  0  0  0  0  0  0  0
    0.1980   -5.9278    4.2447 H   0  0  0  0  0  0  0  0  0  0  0  0
    1.4511   -6.0988    5.4917 H   0  0  0  0  0  0  0  0  0  0  0  0
    3.1169   -6.5299    3.9150 H   0  0  0  0  0  0  0  0  0  0  0  0
    1.6156   -4.6340    2.1568 H   0  0  0  0  0  0  0  0  0  0  0  0
    1.4325   -3.5088    4.1507 H   0  0  0  0  0  0  0  0  0  0  0  0
    3.0024   -4.0079    4.7571 H   0  0  0  0  0  0  0  0  0  0  0  0
    2.7174   -1.5153    3.8048 H   0  0  0  0  0  0  0  0  0  0  0  0
    3.2207   -0.9194    0.4791 H   0  0  0  0  0  0  0  0  0  0  0  0
    3.8225    0.8869    1.5596 H   0  0  0  0  0  0  0  0  0  0  0  0
    5.4390   -0.1129   -0.1034 H   0  0  0  0  0  0  0  0  0  0  0  0
    6.1755   -0.8567    1.2895 H   0  0  0  0  0  0  0  0  0  0  0  0
    5.0535   -2.2123   -1.2057 H   0  0  0  0  0  0  0  0  0  0  0  0
    7.1679   -3.0448   -1.2230 H   0  0  0  0  0  0  0  0  0  0  0  0
    5.5158   -4.4023   -0.1925 H   0  0  0  0  0  0  0  0  0  0  0  0
    6.0848   -3.6617    1.2797 H   0  0  0  0  0  0  0  0  0  0  0  0
    2.9681   -4.5265   -0.6770 H   0  0  0  0  0  0  0  0  0  0  0  0
    2.9744   -2.7873   -0.7580 H   0  0  0  0  0  0  0  0  0  0  0  0
    1.8554   -3.5872    0.2916 H   0  0  0  0  0  0  0  0  0  0  0  0
    4.5896   -4.9252    2.6601 H   0  0  0  0  0  0  0  0  0  0  0  0
    4.7277   -6.3587    0.5406 H   0  0  0  0  0  0  0  0  0  0  0  0
    3.2885   -8.2491    0.8870 H   0  0  0  0  0  0  0  0  0  0  0  0
   -0.2455   -6.8290    2.0814 H   0  0  0  0  0  0  0  0  0  0  0  0
    0.4653   -7.7957    0.7701 H   0  0  0  0  0  0  0  0  0  0  0  0
    0.7795   -6.0754    0.8290 H   0  0  0  0  0  0  0  0  0  0  0  0
    2.9057  -11.6787    2.2771 H   0  0  0  0  0  0  0  0  0  0  0  0
  1  2  1  0
  1 38  1  0
  1 39  1  0
  1 40  1  0
  2  3  1  0
  2 16  1  0
  2 41  1  6
  3  4  1  0
  3 42  1  0
  3 43  1  0
  4  5  1  0
  4 44  1  0
  4 89  1  0
  5 14  1  0
  5  6  1  0
  5 45  1  1
  6  7  1  0
  6 46  1  0
  6 47  1  0
  7 12  1  0
  7  8  1  0
  7 48  1  6
  8  9  1  0
  8 49  1  0
  8 50  1  0
  9 15  1  0
  9 10  1  0
  9 51  1  1
 10 11  1  0
 10 52  1  0
 10 53  1  0
 11 12  1  0
 11 13  1  0
 11 54  1  1
 12 55  1  0
 12 56  1  0
 13 14  1  0
 13 57  1  0
 13 58  1  0
 14 15  1  0
 14 59  1  1
 15 60  1  0
 15 61  1  0
 16 36  1  0
 16 17  1  0
 16 62  1  1
 17 18  1  0
 17 63  1  0
 17 64  1  0
 18 19  1  0
 18 65  1  0
 18 66  1  0
 19 36  1  0
 19 20  1  0
 19 67  1  1
 20 33  1  0
 20 21  1  0
 20 68  1  6
 21 22  1  0
 21 69  1  0
 21 70  1  0
 22 24  1  0
 22 23  1  0
 22 71  1  1
 24 23  1  1
 24 31  1  0
 24 25  1  0
 25 26  1  0
 25 27  1  0
 25 72  1  6
 26 73  1  0
 27 28  1  0
 27 74  1  0
 27 75  1  0
 28 29  1  0
 28 30  1  0
 28 76  1  6
 29 77  1  0
 30 31  1  0
 30 78  1  0
 30 79  1  0
 31 32  1  6
 31 33  1  0
 32 80  1  0
 32 81  1  0
 32 82  1  0
 33 34  1  0
 33 83  1  1
 34 35  2  0
 34 84  1  0
 35 36  1  0
 35 85  1  0
 36 37  1  6
 37 86  1  0
 37 87  1  0
 37 88  1  0
M  CHG  1   4   1
M  END
>  <i_m_ct_stereo_status>  (194) 
1

>  <s_m_source_file>  (194) 
/var/tmp/pbs.5076255.sched01/tmp7w47f283/46ruht8ay8.sdf

>  <i_m_source_file_index>  (194) 
38

>  <i_lp_mmshare_version>  (194) 
48012

>  <i_f3d_flags>  (194) 
2

>  <s_epik_input>  (194) 
W0NIMl0xW0NASF0oW0NIMl0yKVtDSDJdW0NAQEhdKFtDSDJdMylbQ0gyXVtDQEhdMltDQEBIXShbQ0gyXVtDQEhdMTMpW05IXVtDSDJdW0NAQEhdKFtDSDNdKVtDQEhdKFtDSDJdW0NIMl00KVtDQEBdKFtDSDNdKShbQ0BIXTRbQ0BIXTVbQ0gyXVtDQEBIXShPNilbQ0BdNjc4KVtDSF09W0NIXVtDQEhdNVtDQF04KFtDSDNdKVtDSDJdW0NASF0oW09IXSlbQ0gyXVtDQEBIXTdbT0hd

>  <s_epik_cmdline>  (194) 
J2VwaWtfcHl0aG9uJywgJy1waHQnLCAnMi4wJywgJy1waCcsICc3LjAnLCAnLXRuJywgJzgnLCAnLW1hJywgJzIwMCcsICctaW1hZScsICc8aW5maWxlLm1hZT4nLCAnLW9tYWUnLCAnPG91dGZpbGUubWFlPic=

>  <r_lp_tautomer_probability>  (194) 
1

>  <r_epik_Ionization_Penalty>  (194) 
5.50642e-05

>  <r_epik_Ionization_Penalty_Charging>  (194) 
5.47422e-05

>  <r_epik_Ionization_Penalty_Neutral>  (194) 
3.22026e-07

>  <r_epik_State_Penalty>  (194) 
-0

>  <r_epik_Charging_Adjusted_Penalty>  (194) 
5.47422e-05

>  <i_epik_Tot_Q>  (194) 
1

>  <i_epik_Tot_abs_Q>  (194) 
1

>  <s_lp_Force_Field>  (194) 
OPLS3e

>  <r_lp_Energy>  (194) 
73.3989

>  <b_lp_Chiralities_Consistent>  (194) 
0

>  <s_lp_Variant>  (194) 
56:0-1

>  <s_i_glide_gridfile>  (194) 
pfpi4k_grid

>  <i_i_glide_lignum>  (194) 
38

>  <i_i_glide_rotatable_bonds>  (194) 
6

>  <r_i_docking_score>  (194) 
-3.28977

>  <r_i_glide_ligand_efficiency>  (194) 
-0.0889128

>  <r_i_glide_ligand_efficiency_sa>  (194) 
-0.296277

>  <r_i_glide_ligand_efficiency_ln>  (194) 
-0.713474

>  <r_i_glide_gscore>  (194) 
-3.28977

>  <r_i_glide_lipo>  (194) 
-0.691892

>  <r_i_glide_hbond>  (194) 
-0.213695

>  <r_i_glide_metal>  (194) 
-0

>  <r_i_glide_rewards>  (194) 
0

>  <r_i_glide_evdw>  (194) 
-25.9418

>  <r_i_glide_ecoul>  (194) 
-8.66486

>  <r_i_glide_erotb>  (194) 
0.235604

>  <r_i_glide_esite>  (194) 
-0.0229708

>  <r_i_glide_emodel>  (194) 
-36.3254

>  <r_i_glide_energy>  (194) 
-34.6067

>  <r_i_glide_einternal>  (194) 
9.55123

>  <r_i_glide_intrahb_reward>  (194) 
-0

>  <i_i_glide_confnum>  (194) 
1

>  <i_i_glide_posenum>  (194) 
34

>  <r_i_glide_eff_state_penalty>  (194) 
0

>  <ligand_id>  (194) 
56

>  <original_smiles>  (194) 
CC(CNC1CC2CC3CC(C2)CC1C3)C1CCC2C3CC4OC45C(O)CC(O)CC5(C)C3C=CC12C

>  <smiles>  (194) 
[H]OC1([H])C([H])([H])C([H])(O[H])C23OC2([H])C([H])([H])C2([H])C([H])(C([H])=C([H])C4(C([H])([H])[H])C2([H])C([H])([H])C([H])([H])C4([H])C([H])(C([H])([H])[H])C([H])([H])[N+]([H])([H])C2([H])C([H])([H])C4([H])C([H])([H])C5([H])C([H])([H])C([H])(C4([H])[H])C([H])([H])C2([H])C5([H])[H])C3(C([H])([H])[H])C1([H])[H]

$$$$
56:0:1
     RDKit          3D

 89 96  0  0  1  0  0  0  0  0999 V2000
   -0.5352   -9.7967    2.6695 C   0  0  0  0  0  0  0  0  0  0  0  0
    0.8782   -9.7120    3.2864 C   0  0  2  0  0  0  0  0  0  0  0  0
    1.0531  -10.8558    4.3393 C   0  0  0  0  0  0  0  0  0  0  0  0
    2.3612  -10.8543    5.0471 N   0  0  0  0  0  0  0  0  0  0  0  0
    3.6057  -10.8903    4.2236 C   0  0  2  0  0  0  0  0  0  0  0  0
    3.8944  -12.3235    3.7322 C   0  0  0  0  0  0  0  0  0  0  0  0
    5.3580  -12.7984    3.6607 C   0  0  2  0  0  0  0  0  0  0  0  0
    5.9281  -13.1131    5.0630 C   0  0  0  0  0  0  0  0  0  0  0  0
    6.4627  -11.8686    5.7982 C   0  0  1  0  0  0  0  0  0  0  0  0
    7.5395  -11.1982    4.9313 C   0  0  0  0  0  0  0  0  0  0  0  0
    6.8961  -10.7100    3.6264 C   0  0  1  0  0  0  0  0  0  0  0  0
    6.3051  -11.8960    2.8314 C   0  0  0  0  0  0  0  0  0  0  0  0
    5.8440   -9.6367    3.9601 C   0  0  0  0  0  0  0  0  0  0  0  0
    4.7505  -10.1313    4.9349 C   0  0  2  0  0  0  0  0  0  0  0  0
    5.3514  -10.8585    6.1625 C   0  0  0  0  0  0  0  0  0  0  0  0
    1.2534   -8.2996    3.8455 C   0  0  2  0  0  0  0  0  0  0  0  0
    0.1894   -7.6823    4.7948 C   0  0  0  0  0  0  0  0  0  0  0  0
    0.2792   -6.1559    4.6381 C   0  0  0  0  0  0  0  0  0  0  0  0
    1.5670   -5.9491    3.8451 C   0  0  2  0  0  0  0  0  0  0  0  0
    1.8636   -4.6183    3.1361 C   0  0  1  0  0  0  0  0  0  0  0  0
    1.5013   -3.3775    3.9664 C   0  0  0  0  0  0  0  0  0  0  0  0
    2.1255   -2.1024    3.4312 C   0  0  1  0  0  0  0  0  0  0  0  0
    3.5321   -1.9732    3.6496 O   0  0  0  0  0  0  0  0  0  0  0  0
    3.1284   -2.1018    2.2962 C   0  0  2  0  0  0  0  0  0  0  0  0
    3.4480   -0.8585    1.4480 C   0  0  1  0  0  0  0  0  0  0  0  0
    2.9877    0.3240    2.0813 O   0  0  0  0  0  0  0  0  0  0  0  0
    4.9502   -0.7175    1.1563 C   0  0  0  0  0  0  0  0  0  0  0  0
    5.5424   -2.0160    0.5862 C   0  0  1  0  0  0  0  0  0  0  0  0
    6.9507   -1.8858    0.5097 O   0  0  0  0  0  0  0  0  0  0  0  0
    5.1627   -3.2563    1.4284 C   0  0  0  0  0  0  0  0  0  0  0  0
    3.6286   -3.4160    1.6465 C   0  0  2  0  0  0  0  0  0  0  0  0
    2.9326   -3.6813    0.2859 C   0  0  0  0  0  0  0  0  0  0  0  0
    3.3371   -4.6141    2.6303 C   0  0  2  0  0  0  0  0  0  0  0  0
    3.7994   -6.0082    2.1568 C   0  0  0  0  0  0  0  0  0  0  0  0
    3.0552   -7.1448    2.2884 C   0  0  0  0  0  0  0  0  0  0  0  0
    1.6496   -7.1404    2.8676 C   0  0  1  0  0  0  0  0  0  0  0  0
    0.6918   -7.0468    1.6594 C   0  0  0  0  0  0  0  0  0  0  0  0
   -1.3436   -9.7356    3.4088 H   0  0  0  0  0  0  0  0  0  0  0  0
   -0.6394  -10.7540    2.1610 H   0  0  0  0  0  0  0  0  0  0  0  0
   -0.7307   -9.0724    1.8791 H   0  0  0  0  0  0  0  0  0  0  0  0
    1.5569   -9.9234    2.4676 H   0  0  0  0  0  0  0  0  0  0  0  0
    0.2969  -10.7668    5.1087 H   0  0  0  0  0  0  0  0  0  0  0  0
    0.9236  -11.8298    3.8796 H   0  0  0  0  0  0  0  0  0  0  0  0
    2.4057  -10.0128    5.6176 H   0  0  0  0  0  0  0  0  0  0  0  0
    3.4223  -10.3004    3.3328 H   0  0  0  0  0  0  0  0  0  0  0  0
    3.3568  -13.0501    4.3446 H   0  0  0  0  0  0  0  0  0  0  0  0
    3.4567  -12.4216    2.7436 H   0  0  0  0  0  0  0  0  0  0  0  0
    5.3125  -13.7566    3.1294 H   0  0  0  0  0  0  0  0  0  0  0  0
    5.1812  -13.6196    5.6760 H   0  0  0  0  0  0  0  0  0  0  0  0
    6.7508  -13.8235    4.9504 H   0  0  0  0  0  0  0  0  0  0  0  0
    6.9253  -12.2060    6.7302 H   0  0  0  0  0  0  0  0  0  0  0  0
    7.9892  -10.3622    5.4677 H   0  0  0  0  0  0  0  0  0  0  0  0
    8.3441  -11.9001    4.7141 H   0  0  0  0  0  0  0  0  0  0  0  0
    7.6676  -10.2405    3.0101 H   0  0  0  0  0  0  0  0  0  0  0  0
    7.1391  -12.5090    2.4835 H   0  0  0  0  0  0  0  0  0  0  0  0
    5.8091  -11.5375    1.9278 H   0  0  0  0  0  0  0  0  0  0  0  0
    6.3596   -8.7848    4.4053 H   0  0  0  0  0  0  0  0  0  0  0  0
    5.4036   -9.2525    3.0354 H   0  0  0  0  0  0  0  0  0  0  0  0
    4.2990   -9.2174    5.3235 H   0  0  0  0  0  0  0  0  0  0  0  0
    4.5693  -11.3549    6.7370 H   0  0  0  0  0  0  0  0  0  0  0  0
    5.7847  -10.1098    6.8286 H   0  0  0  0  0  0  0  0  0  0  0  0
    2.1471   -8.4065    4.4487 H   0  0  0  0  0  0  0  0  0  0  0  0
   -0.8289   -7.9890    4.5493 H   0  0  0  0  0  0  0  0  0  0  0  0
    0.3793   -7.9865    5.8276 H   0  0  0  0  0  0  0  0  0  0  0  0
   -0.5786   -5.8014    4.0745 H   0  0  0  0  0  0  0  0  0  0  0  0
    0.2997   -5.6363    5.5975 H   0  0  0  0  0  0  0  0  0  0  0  0
    2.3733   -6.0598    4.5788 H   0  0  0  0  0  0  0  0  0  0  0  0
    1.2090   -4.5467    2.2785 H   0  0  0  0  0  0  0  0  0  0  0  0
    0.4173   -3.2594    3.9719 H   0  0  0  0  0  0  0  0  0  0  0  0
    1.8039   -3.5034    5.0021 H   0  0  0  0  0  0  0  0  0  0  0  0
    1.5604   -1.1984    3.6480 H   0  0  0  0  0  0  0  0  0  0  0  0
    2.9005   -0.9198    0.5094 H   0  0  0  0  0  0  0  0  0  0  0  0
    3.1727    1.0666    1.5294 H   0  0  0  0  0  0  0  0  0  0  0  0
    5.1142    0.0928    0.4457 H   0  0  0  0  0  0  0  0  0  0  0  0
    5.4813   -0.4326    2.0645 H   0  0  0  0  0  0  0  0  0  0  0  0
    5.1917   -2.1497   -0.4346 H   0  0  0  0  0  0  0  0  0  0  0  0
    7.2873   -1.7756    1.3852 H   0  0  0  0  0  0  0  0  0  0  0  0
    5.5734   -4.1439    0.9431 H   0  0  0  0  0  0  0  0  0  0  0  0
    5.6573   -3.1887    2.4014 H   0  0  0  0  0  0  0  0  0  0  0  0
    3.2603   -4.6314   -0.1476 H   0  0  0  0  0  0  0  0  0  0  0  0
    3.1375   -2.9115   -0.4572 H   0  0  0  0  0  0  0  0  0  0  0  0
    1.8486   -3.7125    0.3793 H   0  0  0  0  0  0  0  0  0  0  0  0
    3.9472   -4.4569    3.5195 H   0  0  0  0  0  0  0  0  0  0  0  0
    4.7838   -6.0729    1.7221 H   0  0  0  0  0  0  0  0  0  0  0  0
    3.4488   -8.0858    1.9374 H   0  0  0  0  0  0  0  0  0  0  0  0
   -0.3405   -6.9730    1.9704 H   0  0  0  0  0  0  0  0  0  0  0  0
    0.7847   -7.9420    1.0437 H   0  0  0  0  0  0  0  0  0  0  0  0
    0.9153   -6.1975    1.0126 H   0  0  0  0  0  0  0  0  0  0  0  0
    2.3749  -11.6188    5.7235 H   0  0  0  0  0  0  0  0  0  0  0  0
  1  2  1  0
  1 38  1  0
  1 39  1  0
  1 40  1  0
  2  3  1  0
  2 16  1  0
  2 41  1  6
  3  4  1  0
  3 42  1  0
  3 43  1  0
  4  5  1  0
  4 44  1  0
  4 89  1  0
  5 14  1  0
  5  6  1  0
  5 45  1  6
  6  7  1  0
  6 46  1  0
  6 47  1  0
  7 12  1  0
  7  8  1  0
  7 48  1  6
  8  9  1  0
  8 49  1  0
  8 50  1  0
  9 15  1  0
  9 10  1  0
  9 51  1  1
 10 11  1  0
 10 52  1  0
 10 53  1  0
 11 12  1  0
 11 13  1  0
 11 54  1  6
 12 55  1  0
 12 56  1  0
 13 14  1  0
 13 57  1  0
 13 58  1  0
 14 15  1  0
 14 59  1  1
 15 60  1  0
 15 61  1  0
 16 36  1  0
 16 17  1  0
 16 62  1  1
 17 18  1  0
 17 63  1  0
 17 64  1  0
 18 19  1  0
 18 65  1  0
 18 66  1  0
 19 36  1  0
 19 20  1  0
 19 67  1  1
 20 33  1  0
 20 21  1  0
 20 68  1  6
 21 22  1  0
 21 69  1  0
 21 70  1  0
 22 24  1  0
 22 23  1  0
 22 71  1  6
 24 23  1  1
 24 31  1  0
 24 25  1  0
 25 26  1  0
 25 27  1  0
 25 72  1  6
 26 73  1  0
 27 28  1  0
 27 74  1  0
 27 75  1  0
 28 29  1  0
 28 30  1  0
 28 76  1  6
 29 77  1  0
 30 31  1  0
 30 78  1  0
 30 79  1  0
 31 32  1  6
 31 33  1  0
 32 80  1  0
 32 81  1  0
 32 82  1  0
 33 34  1  0
 33 83  1  1
 34 35  2  0
 34 84  1  0
 35 36  1  0
 35 85  1  0
 36 37  1  6
 37 86  1  0
 37 87  1  0
 37 88  1  0
M  CHG  1   4   1
M  END
>  <i_m_ct_stereo_status>  (195) 
1

>  <s_m_source_file>  (195) 
/var/tmp/pbs.5076255.sched01/tmp7w47f283/46ruht8ay8.sdf

>  <i_m_source_file_index>  (195) 
38

>  <i_lp_mmshare_version>  (195) 
48012

>  <i_f3d_flags>  (195) 
2

>  <s_epik_input>  (195) 
W0NIMl0xW0NASF0oW0NIMl0yKVtDSDJdW0NAQEhdKFtDSDJdMylbQ0gyXVtDQEhdMltDQEBIXShbQ0gyXVtDQEhdMTMpW05IXVtDSDJdW0NAQEhdKFtDSDNdKVtDQEhdKFtDSDJdW0NIMl00KVtDQEBdKFtDSDNdKShbQ0BIXTRbQ0BIXTVbQ0gyXVtDQEBIXShPNilbQ0BdNjc4KVtDSF09W0NIXVtDQEhdNVtDQF04KFtDSDNdKVtDSDJdW0NASF0oW09IXSlbQ0gyXVtDQEBIXTdbT0hd

>  <s_epik_cmdline>  (195) 
J2VwaWtfcHl0aG9uJywgJy1waHQnLCAnMi4wJywgJy1waCcsICc3LjAnLCAnLXRuJywgJzgnLCAnLW1hJywgJzIwMCcsICctaW1hZScsICc8aW5maWxlLm1hZT4nLCAnLW9tYWUnLCAnPG91dGZpbGUubWFlPic=

>  <r_lp_tautomer_probability>  (195) 
1

>  <r_epik_Ionization_Penalty>  (195) 
5.50642e-05

>  <r_epik_Ionization_Penalty_Charging>  (195) 
5.47422e-05

>  <r_epik_Ionization_Penalty_Neutral>  (195) 
3.22026e-07

>  <r_epik_State_Penalty>  (195) 
-0

>  <r_epik_Charging_Adjusted_Penalty>  (195) 
5.47422e-05

>  <i_epik_Tot_Q>  (195) 
1

>  <i_epik_Tot_abs_Q>  (195) 
1

>  <s_lp_Force_Field>  (195) 
OPLS3e

>  <r_lp_Energy>  (195) 
73.3989

>  <b_lp_Chiralities_Consistent>  (195) 
0

>  <s_lp_Variant>  (195) 
56:0-1

>  <s_i_glide_gridfile>  (195) 
pfpi4k_grid

>  <i_i_glide_lignum>  (195) 
38

>  <i_i_glide_rotatable_bonds>  (195) 
6

>  <r_i_docking_score>  (195) 
-2.39304

>  <r_i_glide_ligand_efficiency>  (195) 
-0.0646769

>  <r_i_glide_ligand_efficiency_sa>  (195) 
-0.215518

>  <r_i_glide_ligand_efficiency_ln>  (195) 
-0.518995

>  <r_i_glide_gscore>  (195) 
-2.39304

>  <r_i_glide_lipo>  (195) 
-0.307531

>  <r_i_glide_hbond>  (195) 
-0.0547727

>  <r_i_glide_metal>  (195) 
-0

>  <r_i_glide_rewards>  (195) 
0

>  <r_i_glide_evdw>  (195) 
-26.2349

>  <r_i_glide_ecoul>  (195) 
-5.95828

>  <r_i_glide_erotb>  (195) 
0.235604

>  <r_i_glide_esite>  (195) 
-0.0608606

>  <r_i_glide_emodel>  (195) 
-34.1386

>  <r_i_glide_energy>  (195) 
-32.1931

>  <r_i_glide_einternal>  (195) 
9.11812

>  <r_i_glide_intrahb_reward>  (195) 
-0

>  <i_i_glide_confnum>  (195) 
1

>  <i_i_glide_posenum>  (195) 
38

>  <r_i_glide_eff_state_penalty>  (195) 
0

>  <ligand_id>  (195) 
56

>  <original_smiles>  (195) 
CC(CNC1CC2CC3CC(C2)CC1C3)C1CCC2C3CC4OC45C(O)CC(O)CC5(C)C3C=CC12C

>  <smiles>  (195) 
[H]OC1([H])C([H])([H])C([H])(O[H])C23OC2([H])C([H])([H])C2([H])C([H])(C([H])=C([H])C4(C([H])([H])[H])C2([H])C([H])([H])C([H])([H])C4([H])C([H])(C([H])([H])[H])C([H])([H])[N+]([H])([H])C2([H])C([H])([H])C4([H])C([H])([H])C5([H])C([H])([H])C([H])(C4([H])[H])C([H])([H])C2([H])C5([H])[H])C3(C([H])([H])[H])C1([H])[H]

$$$$
56:0:2
     RDKit          3D

 89 96  0  0  1  0  0  0  0  0999 V2000
   -0.9976   -9.3978    3.0684 C   0  0  0  0  0  0  0  0  0  0  0  0
    0.4612   -9.4342    3.5953 C   0  0  2  0  0  0  0  0  0  0  0  0
    0.6258  -10.4977    4.7514 C   0  0  0  0  0  0  0  0  0  0  0  0
    2.0172  -10.7153    5.2713 N   0  0  0  0  0  0  0  0  0  0  0  0
    3.0712  -11.0571    4.2590 C   0  0  2  0  0  0  0  0  0  0  0  0
    4.0476  -12.1116    4.8094 C   0  0  0  0  0  0  0  0  0  0  0  0
    5.5616  -11.9173    4.4855 C   0  0  2  0  0  0  0  0  0  0  0  0
    6.2130  -10.8050    5.3313 C   0  0  0  0  0  0  0  0  0  0  0  0
    6.0424   -9.3937    4.7350 C   0  0  1  0  0  0  0  0  0  0  0  0
    6.6206   -9.3799    3.3062 C   0  0  0  0  0  0  0  0  0  0  0  0
    5.8522  -10.3939    2.4322 C   0  0  1  0  0  0  0  0  0  0  0  0
    5.9210  -11.8197    2.9813 C   0  0  0  0  0  0  0  0  0  0  0  0
    4.4332   -9.9538    2.3470 C   0  0  0  0  0  0  0  0  0  0  0  0
    3.7730   -9.8028    3.7224 C   0  0  2  0  0  0  0  0  0  0  0  0
    4.5722   -8.9652    4.7249 C   0  0  0  0  0  0  0  0  0  0  0  0
    1.0254   -8.0045    4.0113 C   0  0  2  0  0  0  0  0  0  0  0  0
    0.1162   -7.1957    4.9507 C   0  0  0  0  0  0  0  0  0  0  0  0
    0.4152   -5.7262    4.6315 C   0  0  0  0  0  0  0  0  0  0  0  0
    1.6677   -5.7510    3.7289 C   0  0  2  0  0  0  0  0  0  0  0  0
    2.0825   -4.5288    2.8854 C   0  0  1  0  0  0  0  0  0  0  0  0
    1.9352   -3.1915    3.6103 C   0  0  0  0  0  0  0  0  0  0  0  0
    2.6627   -2.0675    2.9007 C   0  0  1  0  0  0  0  0  0  0  0  0
    4.1048   -2.1124    3.0428 O   0  0  0  0  0  0  0  0  0  0  0  0
    3.5781   -2.2979    1.7227 C   0  0  2  0  0  0  0  0  0  0  0  0
    3.9963   -1.1800    0.7427 C   0  0  1  0  0  0  0  0  0  0  0  0
    3.7483    0.1084    1.2711 O   0  0  0  0  0  0  0  0  0  0  0  0
    5.4794   -1.2786    0.3307 C   0  0  0  0  0  0  0  0  0  0  0  0
    5.8619   -2.6941   -0.1380 C   0  0  1  0  0  0  0  0  0  0  0  0
    7.2652   -2.7652   -0.3073 O   0  0  0  0  0  0  0  0  0  0  0  0
    5.3917   -3.7926    0.8396 C   0  0  0  0  0  0  0  0  0  0  0  0
    3.8704   -3.7273    1.1824 C   0  0  2  0  0  0  0  0  0  0  0  0
    3.0423   -4.0173   -0.1050 C   0  0  0  0  0  0  0  0  0  0  0  0
    3.5228   -4.7805    2.3134 C   0  0  2  0  0  0  0  0  0  0  0  0
    3.7003   -6.2253    1.9064 C   0  0  0  0  0  0  0  0  0  0  0  0
    2.7763   -7.2027    2.1205 C   0  0  0  0  0  0  0  0  0  0  0  0
    1.4915   -6.9942    2.8819 C   0  0  1  0  0  0  0  0  0  0  0  0
    0.4654   -6.9088    1.7445 C   0  0  0  0  0  0  0  0  0  0  0  0
   -1.6988   -9.0870    3.8215 H   0  0  0  0  0  0  0  0  0  0  0  0
   -1.3056  -10.3535    2.6971 H   0  0  0  0  0  0  0  0  0  0  0  0
   -1.1317   -8.7664    2.2242 H   0  0  0  0  0  0  0  0  0  0  0  0
    1.0558   -9.8285    2.7746 H   0  0  0  0  0  0  0  0  0  0  0  0
   -0.0082  -10.2103    5.5979 H   0  0  0  0  0  0  0  0  0  0  0  0
    0.2213  -11.4673    4.4313 H   0  0  0  0  0  0  0  0  0  0  0  0
    2.2795   -9.8848    5.7475 H   0  0  0  0  0  0  0  0  0  0  0  0
    2.5407  -11.5356    3.4219 H   0  0  0  0  0  0  0  0  0  0  0  0
    3.9359  -12.1681    5.9005 H   0  0  0  0  0  0  0  0  0  0  0  0
    3.7209  -13.0896    4.4232 H   0  0  0  0  0  0  0  0  0  0  0  0
    6.0025  -12.8434    4.8153 H   0  0  0  0  0  0  0  0  0  0  0  0
    5.8339  -10.8224    6.3522 H   0  0  0  0  0  0  0  0  0  0  0  0
    7.2782  -11.0003    5.3971 H   0  0  0  0  0  0  0  0  0  0  0  0
    6.5990   -8.6765    5.3512 H   0  0  0  0  0  0  0  0  0  0  0  0
    6.5409   -8.3725    2.8898 H   0  0  0  0  0  0  0  0  0  0  0  0
    7.6765   -9.6324    3.3157 H   0  0  0  0  0  0  0  0  0  0  0  0
    6.2520  -10.3707    1.4054 H   0  0  0  0  0  0  0  0  0  0  0  0
    6.9480  -12.1592    2.8243 H   0  0  0  0  0  0  0  0  0  0  0  0
    5.2731  -12.4736    2.3829 H   0  0  0  0  0  0  0  0  0  0  0  0
    4.5839   -9.0047    1.8284 H   0  0  0  0  0  0  0  0  0  0  0  0
    3.7985  -10.5457    1.6856 H   0  0  0  0  0  0  0  0  0  0  0  0
    2.9710   -9.2275    3.4271 H   0  0  0  0  0  0  0  0  0  0  0  0
    4.1384   -9.0114    5.7290 H   0  0  0  0  0  0  0  0  0  0  0  0
    4.5116   -7.9121    4.4534 H   0  0  0  0  0  0  0  0  0  0  0  0
    1.8742   -8.1448    4.6971 H   0  0  0  0  0  0  0  0  0  0  0  0
   -0.9372   -7.3773    4.7966 H   0  0  0  0  0  0  0  0  0  0  0  0
    0.3371   -7.4514    5.9886 H   0  0  0  0  0  0  0  0  0  0  0  0
   -0.4289   -5.3031    4.0842 H   0  0  0  0  0  0  0  0  0  0  0  0
    0.5774   -5.1467    5.5508 H   0  0  0  0  0  0  0  0  0  0  0  0
    2.4949   -5.9267    4.4371 H   0  0  0  0  0  0  0  0  0  0  0  0
    1.4116   -4.4990    2.0391 H   0  0  0  0  0  0  0  0  0  0  0  0
    0.8762   -2.9522    3.6491 H   0  0  0  0  0  0  0  0  0  0  0  0
    2.3006   -3.2796    4.6285 H   0  0  0  0  0  0  0  0  0  0  0  0
    2.2595   -1.0797    3.0967 H   0  0  0  0  0  0  0  0  0  0  0  0
    3.3623   -1.2577   -0.1378 H   0  0  0  0  0  0  0  0  0  0  0  0
    2.8127    0.2383    1.3451 H   0  0  0  0  0  0  0  0  0  0  0  0
    5.6641   -0.5718   -0.4782 H   0  0  0  0  0  0  0  0  0  0  0  0
    6.1206   -0.9693    1.1559 H   0  0  0  0  0  0  0  0  0  0  0  0
    5.4289   -2.8764   -1.1237 H   0  0  0  0  0  0  0  0  0  0  0  0
    7.6753   -2.7045    0.5448 H   0  0  0  0  0  0  0  0  0  0  0  0
    5.6362   -4.7669    0.4209 H   0  0  0  0  0  0  0  0  0  0  0  0
    5.9576   -3.7092    1.7668 H   0  0  0  0  0  0  0  0  0  0  0  0
    3.2133   -5.0325   -0.4573 H   0  0  0  0  0  0  0  0  0  0  0  0
    3.2832   -3.3633   -0.9378 H   0  0  0  0  0  0  0  0  0  0  0  0
    1.9703   -3.9125    0.0493 H   0  0  0  0  0  0  0  0  0  0  0  0
    4.2338   -4.6188    3.1378 H   0  0  0  0  0  0  0  0  0  0  0  0
    4.6027   -6.4897    1.3943 H   0  0  0  0  0  0  0  0  0  0  0  0
    2.8427   -8.1413    1.6569 H   0  0  0  0  0  0  0  0  0  0  0  0
   -0.5392   -6.6756    2.1218 H   0  0  0  0  0  0  0  0  0  0  0  0
    0.4570   -7.8627    1.2094 H   0  0  0  0  0  0  0  0  0  0  0  0
    0.7340   -6.2012    0.9649 H   0  0  0  0  0  0  0  0  0  0  0  0
    1.9432  -11.4641    5.9599 H   0  0  0  0  0  0  0  0  0  0  0  0
  1  2  1  0
  1 38  1  0
  1 39  1  0
  1 40  1  0
  2  3  1  0
  2 16  1  0
  2 41  1  6
  3  4  1  0
  3 42  1  0
  3 43  1  0
  4  5  1  0
  4 44  1  0
  4 89  1  0
  5 14  1  0
  5  6  1  0
  5 45  1  6
  6  7  1  0
  6 46  1  0
  6 47  1  0
  7 12  1  0
  7  8  1  0
  7 48  1  1
  8  9  1  0
  8 49  1  0
  8 50  1  0
  9 15  1  0
  9 10  1  0
  9 51  1  1
 10 11  1  0
 10 52  1  0
 10 53  1  0
 11 12  1  0
 11 13  1  0
 11 54  1  6
 12 55  1  0
 12 56  1  0
 13 14  1  0
 13 57  1  0
 13 58  1  0
 14 15  1  0
 14 59  1  6
 15 60  1  0
 15 61  1  0
 16 36  1  0
 16 17  1  0
 16 62  1  1
 17 18  1  0
 17 63  1  0
 17 64  1  0
 18 19  1  0
 18 65  1  0
 18 66  1  0
 19 36  1  0
 19 20  1  0
 19 67  1  1
 20 33  1  0
 20 21  1  0
 20 68  1  6
 21 22  1  0
 21 69  1  0
 21 70  1  0
 22 24  1  0
 22 23  1  0
 22 71  1  6
 24 23  1  1
 24 31  1  0
 24 25  1  0
 25 26  1  0
 25 27  1  0
 25 72  1  6
 26 73  1  0
 27 28  1  0
 27 74  1  0
 27 75  1  0
 28 29  1  0
 28 30  1  0
 28 76  1  6
 29 77  1  0
 30 31  1  0
 30 78  1  0
 30 79  1  0
 31 32  1  6
 31 33  1  0
 32 80  1  0
 32 81  1  0
 32 82  1  0
 33 34  1  0
 33 83  1  1
 34 35  2  0
 34 84  1  0
 35 36  1  0
 35 85  1  0
 36 37  1  6
 37 86  1  0
 37 87  1  0
 37 88  1  0
M  CHG  1   4   1
M  END
>  <i_m_ct_stereo_status>  (196) 
1

>  <s_m_source_file>  (196) 
/var/tmp/pbs.5076255.sched01/tmp7w47f283/46ruht8ay8.sdf

>  <i_m_source_file_index>  (196) 
38

>  <i_lp_mmshare_version>  (196) 
48012

>  <i_f3d_flags>  (196) 
2

>  <s_epik_input>  (196) 
W0NIMl0xW0NASF0oW0NIMl0yKVtDSDJdW0NAQEhdKFtDSDJdMylbQ0gyXVtDQEhdMltDQEBIXShbQ0gyXVtDQEhdMTMpW05IXVtDSDJdW0NAQEhdKFtDSDNdKVtDQEhdKFtDSDJdW0NIMl00KVtDQEBdKFtDSDNdKShbQ0BIXTRbQ0BIXTVbQ0gyXVtDQEBIXShPNilbQ0BdNjc4KVtDSF09W0NIXVtDQEhdNVtDQF04KFtDSDNdKVtDSDJdW0NASF0oW09IXSlbQ0gyXVtDQEBIXTdbT0hd

>  <s_epik_cmdline>  (196) 
J2VwaWtfcHl0aG9uJywgJy1waHQnLCAnMi4wJywgJy1waCcsICc3LjAnLCAnLXRuJywgJzgnLCAnLW1hJywgJzIwMCcsICctaW1hZScsICc8aW5maWxlLm1hZT4nLCAnLW9tYWUnLCAnPG91dGZpbGUubWFlPic=

>  <r_lp_tautomer_probability>  (196) 
1

>  <r_epik_Ionization_Penalty>  (196) 
5.50642e-05

>  <r_epik_Ionization_Penalty_Charging>  (196) 
5.47422e-05

>  <r_epik_Ionization_Penalty_Neutral>  (196) 
3.22026e-07

>  <r_epik_State_Penalty>  (196) 
-0

>  <r_epik_Charging_Adjusted_Penalty>  (196) 
5.47422e-05

>  <i_epik_Tot_Q>  (196) 
1

>  <i_epik_Tot_abs_Q>  (196) 
1

>  <s_lp_Force_Field>  (196) 
OPLS3e

>  <r_lp_Energy>  (196) 
73.3989

>  <b_lp_Chiralities_Consistent>  (196) 
0

>  <s_lp_Variant>  (196) 
56:0-1

>  <s_i_glide_gridfile>  (196) 
pfpi4k_grid

>  <i_i_glide_lignum>  (196) 
38

>  <i_i_glide_rotatable_bonds>  (196) 
6

>  <r_i_docking_score>  (196) 
-2.22952

>  <r_i_glide_ligand_efficiency>  (196) 
-0.0602573

>  <r_i_glide_ligand_efficiency_sa>  (196) 
-0.200791

>  <r_i_glide_ligand_efficiency_ln>  (196) 
-0.48353

>  <r_i_glide_gscore>  (196) 
-2.22952

>  <r_i_glide_lipo>  (196) 
-0.215141

>  <r_i_glide_hbond>  (196) 
-0.2

>  <r_i_glide_metal>  (196) 
-0

>  <r_i_glide_rewards>  (196) 
0

>  <r_i_glide_evdw>  (196) 
-26.8114

>  <r_i_glide_ecoul>  (196) 
-7.00276

>  <r_i_glide_erotb>  (196) 
0.235604

>  <r_i_glide_esite>  (196) 
-0.0748809

>  <r_i_glide_emodel>  (196) 
-31.4908

>  <r_i_glide_energy>  (196) 
-33.8141

>  <r_i_glide_einternal>  (196) 
9.81404

>  <r_i_glide_intrahb_reward>  (196) 
-0

>  <i_i_glide_confnum>  (196) 
1

>  <i_i_glide_posenum>  (196) 
1

>  <r_i_glide_eff_state_penalty>  (196) 
0

>  <ligand_id>  (196) 
56

>  <original_smiles>  (196) 
CC(CNC1CC2CC3CC(C2)CC1C3)C1CCC2C3CC4OC45C(O)CC(O)CC5(C)C3C=CC12C

>  <smiles>  (196) 
[H]OC1([H])C([H])([H])C([H])(O[H])C23OC2([H])C([H])([H])C2([H])C([H])(C([H])=C([H])C4(C([H])([H])[H])C2([H])C([H])([H])C([H])([H])C4([H])C([H])(C([H])([H])[H])C([H])([H])[N+]([H])([H])C2([H])C([H])([H])C4([H])C([H])([H])C5([H])C([H])([H])C([H])(C4([H])[H])C([H])([H])C2([H])C5([H])[H])C3(C([H])([H])[H])C1([H])[H]

$$$$
57:0:0
     RDKit          3D

 61 66  0  0  1  0  0  0  0  0999 V2000
    3.0688   -1.8407   -1.8899 C   0  0  0  0  0  0  0  0  0  0  0  0
    4.2384   -2.7668   -1.6750 C   0  0  0  0  0  0  0  0  0  0  0  0
    4.2707   -3.5237   -3.0333 C   0  0  0  0  0  0  0  0  0  0  0  0
    5.5257   -1.9247   -1.4766 C   0  0  0  0  0  0  0  0  0  0  0  0
    6.8472   -2.7041   -1.3883 C   0  0  0  0  0  0  0  0  0  0  0  0
    7.2569   -3.3314   -0.0355 C   0  0  1  0  0  0  0  0  0  0  0  0
    7.7270   -2.3215    0.8149 O   0  0  0  0  0  0  0  0  0  0  0  0
    6.3775   -4.4651    0.6470 C   0  0  2  0  0  0  0  0  0  0  0  0
    7.3577   -5.6965    0.7058 C   0  0  0  0  0  0  0  0  0  0  0  0
    5.1452   -4.8034   -0.3511 C   0  0  1  0  0  0  0  0  0  0  0  0
    4.5571   -6.0443   -0.0304 O   0  0  0  0  0  0  0  0  0  0  0  0
    3.9515   -3.7301   -0.4594 C   0  0  1  0  0  0  0  0  0  0  0  0
    3.5874   -3.1098    0.9541 C   0  0  1  0  0  0  0  0  0  0  0  0
    3.3088   -1.5827    1.3253 C   0  0  1  0  0  0  0  0  0  0  0  0
    1.9080   -1.3641    1.2868 O   0  0  0  0  0  0  0  0  0  0  0  0
    3.7798   -1.2240    2.8646 C   0  0  1  0  0  0  0  0  0  0  0  0
    3.4912    0.2456    3.2317 C   0  0  0  0  0  0  0  0  0  0  0  0
    3.1209   -2.1471    3.8820 C   0  0  0  0  0  0  0  0  0  0  0  0
    3.8503   -3.4784    3.6254 C   0  0  1  0  0  0  0  0  0  0  0  0
    3.4919   -4.5119    4.7188 C   0  0  0  0  0  0  0  0  0  0  0  0
    3.4249   -3.8706    2.2413 C   0  0  1  0  0  0  0  0  0  0  0  0
    4.7402   -3.4382    1.6777 C   0  0  1  0  0  0  0  0  0  0  0  0
    5.7501   -4.2817    2.1396 C   0  0  1  0  0  0  0  0  0  0  0  0
    5.4145   -5.5833    2.5797 O   0  0  0  0  0  0  0  0  0  0  0  0
    5.4017   -3.2343    3.3879 C   0  0  1  0  0  0  0  0  0  0  0  0
    5.2589   -1.6176    3.3075 C   0  0  1  0  0  0  0  0  0  0  0  0
    6.1480   -0.8455    2.5282 O   0  0  0  0  0  0  0  0  0  0  0  0
    3.0027   -1.4067   -2.8796 H   0  0  0  0  0  0  0  0  0  0  0  0
    3.0621   -1.0154   -1.2049 H   0  0  0  0  0  0  0  0  0  0  0  0
    2.1912   -2.4486   -1.7362 H   0  0  0  0  0  0  0  0  0  0  0  0
    5.1095   -4.1909   -3.1734 H   0  0  0  0  0  0  0  0  0  0  0  0
    4.2606   -2.8486   -3.8857 H   0  0  0  0  0  0  0  0  0  0  0  0
    3.3800   -4.1314   -3.1306 H   0  0  0  0  0  0  0  0  0  0  0  0
    5.5658   -1.2948   -2.3525 H   0  0  0  0  0  0  0  0  0  0  0  0
    5.4291   -1.2298   -0.6484 H   0  0  0  0  0  0  0  0  0  0  0  0
    6.9320   -3.4298   -2.1946 H   0  0  0  0  0  0  0  0  0  0  0  0
    7.6300   -2.0014   -1.6356 H   0  0  0  0  0  0  0  0  0  0  0  0
    8.2004   -3.7978   -0.3220 H   0  0  0  0  0  0  0  0  0  0  0  0
    7.0199   -1.9126    1.3063 H   0  0  0  0  0  0  0  0  0  0  0  0
    6.8828   -6.6318    0.9963 H   0  0  0  0  0  0  0  0  0  0  0  0
    8.1778   -5.5200    1.4023 H   0  0  0  0  0  0  0  0  0  0  0  0
    7.8300   -5.9373   -0.2438 H   0  0  0  0  0  0  0  0  0  0  0  0
    5.5524   -4.9781   -1.3244 H   0  0  0  0  0  0  0  0  0  0  0  0
    4.0634   -6.3014   -0.7980 H   0  0  0  0  0  0  0  0  0  0  0  0
    3.0579   -4.2963   -0.7480 H   0  0  0  0  0  0  0  0  0  0  0  0
    3.8482   -0.8791    0.6792 H   0  0  0  0  0  0  0  0  0  0  0  0
    1.5640   -1.1939    0.3987 H   0  0  0  0  0  0  0  0  0  0  0  0
    3.8180    0.4943    4.2455 H   0  0  0  0  0  0  0  0  0  0  0  0
    2.4275    0.4719    3.1740 H   0  0  0  0  0  0  0  0  0  0  0  0
    4.0083    0.9162    2.5517 H   0  0  0  0  0  0  0  0  0  0  0  0
    3.2930   -1.8282    4.9164 H   0  0  0  0  0  0  0  0  0  0  0  0
    2.0475   -2.2370    3.7507 H   0  0  0  0  0  0  0  0  0  0  0  0
    3.9152   -5.4940    4.5268 H   0  0  0  0  0  0  0  0  0  0  0  0
    2.4185   -4.6205    4.8020 H   0  0  0  0  0  0  0  0  0  0  0  0
    3.8762   -4.1791    5.6818 H   0  0  0  0  0  0  0  0  0  0  0  0
    3.1054   -4.8833    2.1276 H   0  0  0  0  0  0  0  0  0  0  0  0
    5.2286   -2.6018    1.2357 H   0  0  0  0  0  0  0  0  0  0  0  0
    5.0243   -6.0049    1.8163 H   0  0  0  0  0  0  0  0  0  0  0  0
    5.9499   -3.5272    4.2881 H   0  0  0  0  0  0  0  0  0  0  0  0
    5.4122   -1.2787    4.3325 H   0  0  0  0  0  0  0  0  0  0  0  0
    6.2769   -0.0339    2.9964 H   0  0  0  0  0  0  0  0  0  0  0  0
  1  2  1  0
  1 28  1  0
  1 29  1  0
  1 30  1  0
  2 12  1  0
  2  3  1  0
  2  4  1  0
  3 31  1  0
  3 32  1  0
  3 33  1  0
  4  5  1  0
  4 34  1  0
  4 35  1  0
  5  6  1  0
  5 36  1  0
  5 37  1  0
  6  7  1  0
  6  8  1  0
  6 38  1  6
  7 39  1  0
  8 23  1  0
  8  9  1  1
  8 10  1  0
  9 40  1  0
  9 41  1  0
  9 42  1  0
 10 11  1  0
 10 12  1  0
 10 43  1  6
 11 44  1  0
 12 13  1  0
 12 45  1  6
 13 21  1  0
 13 22  1  0
 13 14  1  6
 14 15  1  0
 14 16  1  0
 14 46  1  6
 15 47  1  0
 16 26  1  0
 16 17  1  1
 16 18  1  0
 17 48  1  0
 17 49  1  0
 17 50  1  0
 18 19  1  0
 18 51  1  0
 18 52  1  0
 19 25  1  0
 19 20  1  1
 19 21  1  0
 20 53  1  0
 20 54  1  0
 20 55  1  0
 21 22  1  0
 21 56  1  1
 22 23  1  0
 22 57  1  1
 23 24  1  1
 23 25  1  0
 24 58  1  0
 25 26  1  0
 25 59  1  1
 26 27  1  0
 26 60  1  1
 27 61  1  0
M  END
>  <i_m_ct_stereo_status>  (197) 
1

>  <s_m_source_file>  (197) 
/var/tmp/pbs.5076255.sched01/tmp7w47f283/46ruht8ay8.sdf

>  <i_m_source_file_index>  (197) 
39

>  <i_lp_mmshare_version>  (197) 
48012

>  <i_f3d_flags>  (197) 
0

>  <s_epik_input>  (197) 
W0NAXTEyM1tDQEhdNEMoW0NIM10pKFtDSDNdKVtDSDJdW0NIMl1bQ0BASF0oW09IXSlbQ0BdKFtDSDNdKShbQ0BIXTRbT0hdKUM1KFtPSF0pW0NAQEhdM1tDQEhdMltDQEBdNihbQ0gzXSlbQ0BASF01W0NAQEhdKFtPSF0pW0NAXShbQ0gzXSkoW0NIMl02KVtDQEBIXTFbT0hd

>  <s_epik_cmdline>  (197) 
J2VwaWtfcHl0aG9uJywgJy1waHQnLCAnMi4wJywgJy1waCcsICc3LjAnLCAnLXRuJywgJzgnLCAnLW1hJywgJzIwMCcsICctaW1hZScsICc8aW5maWxlLm1hZT4nLCAnLW9tYWUnLCAnPG91dGZpbGUubWFlPic=

>  <r_lp_tautomer_probability>  (197) 
1

>  <r_epik_Ionization_Penalty>  (197) 
7.43969e-06

>  <r_epik_Ionization_Penalty_Charging>  (197) 
0

>  <r_epik_Ionization_Penalty_Neutral>  (197) 
7.43969e-06

>  <r_epik_State_Penalty>  (197) 
-0

>  <r_epik_Charging_Adjusted_Penalty>  (197) 
0

>  <i_epik_Tot_Q>  (197) 
0

>  <i_epik_Tot_abs_Q>  (197) 
0

>  <s_lp_Force_Field>  (197) 
OPLS3e

>  <r_lp_Energy>  (197) 
308.541

>  <b_lp_Chiralities_Consistent>  (197) 
1

>  <s_lp_Variant>  (197) 
57:0-1

>  <s_i_glide_gridfile>  (197) 
pfpi4k_grid

>  <i_i_glide_lignum>  (197) 
39

>  <i_i_glide_rotatable_bonds>  (197) 
5

>  <r_i_docking_score>  (197) 
-4.21353

>  <r_i_glide_ligand_efficiency>  (197) 
-0.156057

>  <r_i_glide_ligand_efficiency_sa>  (197) 
-0.46817

>  <r_i_glide_ligand_efficiency_ln>  (197) 
-0.980841

>  <r_i_glide_gscore>  (197) 
-4.21353

>  <r_i_glide_lipo>  (197) 
-0.53294

>  <r_i_glide_hbond>  (197) 
-0.129452

>  <r_i_glide_metal>  (197) 
-0

>  <r_i_glide_rewards>  (197) 
-1.82839

>  <r_i_glide_evdw>  (197) 
-13.1258

>  <r_i_glide_ecoul>  (197) 
-7.10974

>  <r_i_glide_erotb>  (197) 
0

>  <r_i_glide_esite>  (197) 
0

>  <r_i_glide_emodel>  (197) 
-34.9349

>  <r_i_glide_energy>  (197) 
-20.2355

>  <r_i_glide_einternal>  (197) 
1.35334

>  <r_i_glide_intrahb_reward>  (197) 
-1

>  <i_i_glide_confnum>  (197) 
1

>  <i_i_glide_posenum>  (197) 
1

>  <r_i_glide_eff_state_penalty>  (197) 
0

>  <ligand_id>  (197) 
57

>  <original_smiles>  (197) 
CC1(C)CCC(O)C2(C)C(O)C1C13C(O)C4(C)CC5(C)C1C3C2(O)C5C4O

>  <smiles>  (197) 
[H]OC1([H])C2([H])C3(O[H])C4([H])C5([H])C2(C([H])([H])[H])C([H])([H])C1(C([H])([H])[H])C([H])(O[H])C45C1([H])C([H])(O[H])C3(C([H])([H])[H])C([H])(O[H])C([H])([H])C([H])([H])C1(C([H])([H])[H])C([H])([H])[H]

$$$$
57:0:1
     RDKit          3D

 61 66  0  0  1  0  0  0  0  0999 V2000
    3.0825   -1.8480   -1.9187 C   0  0  0  0  0  0  0  0  0  0  0  0
    4.2566   -2.7620   -1.6809 C   0  0  0  0  0  0  0  0  0  0  0  0
    4.3014   -3.4981   -3.0394 C   0  0  0  0  0  0  0  0  0  0  0  0
    5.5099   -1.8970   -1.4761 C   0  0  0  0  0  0  0  0  0  0  0  0
    6.8431   -2.6715   -1.4082 C   0  0  0  0  0  0  0  0  0  0  0  0
    7.2728   -3.3081   -0.0628 C   0  0  1  0  0  0  0  0  0  0  0  0
    7.7689   -2.2862    0.7307 O   0  0  0  0  0  0  0  0  0  0  0  0
    6.3944   -4.4182    0.6436 C   0  0  2  0  0  0  0  0  0  0  0  0
    7.3957   -5.6353    0.7105 C   0  0  0  0  0  0  0  0  0  0  0  0
    5.1592   -4.7742   -0.3434 C   0  0  1  0  0  0  0  0  0  0  0  0
    4.5639   -6.0038   -0.0010 O   0  0  0  0  0  0  0  0  0  0  0  0
    3.9572   -3.7090   -0.4706 C   0  0  1  0  0  0  0  0  0  0  0  0
    3.5800   -3.1022    0.9444 C   0  0  1  0  0  0  0  0  0  0  0  0
    3.2803   -1.5747    1.3042 C   0  0  1  0  0  0  0  0  0  0  0  0
    1.8788   -1.3744    1.2852 O   0  0  0  0  0  0  0  0  0  0  0  0
    3.7562   -1.2188    2.8501 C   0  0  1  0  0  0  0  0  0  0  0  0
    3.4323    0.2390    3.2188 C   0  0  0  0  0  0  0  0  0  0  0  0
    3.1079   -2.1527    3.8664 C   0  0  0  0  0  0  0  0  0  0  0  0
    3.8435   -3.4723    3.6247 C   0  0  1  0  0  0  0  0  0  0  0  0
    3.5174   -4.5110    4.7152 C   0  0  0  0  0  0  0  0  0  0  0  0
    3.4428   -3.8900    2.2424 C   0  0  1  0  0  0  0  0  0  0  0  0
    4.7380   -3.4157    1.6942 C   0  0  1  0  0  0  0  0  0  0  0  0
    5.7685   -4.2510    2.1527 C   0  0  1  0  0  0  0  0  0  0  0  0
    5.4627   -5.5539    2.5759 O   0  0  0  0  0  0  0  0  0  0  0  0
    5.4050   -3.2065    3.4001 C   0  0  1  0  0  0  0  0  0  0  0  0
    5.2341   -1.5843    3.3186 C   0  0  1  0  0  0  0  0  0  0  0  0
    6.1655   -0.7517    2.6571 O   0  0  0  0  0  0  0  0  0  0  0  0
    3.0147   -1.4062   -2.9083 H   0  0  0  0  0  0  0  0  0  0  0  0
    3.0681   -1.0196   -1.2265 H   0  0  0  0  0  0  0  0  0  0  0  0
    2.2245   -2.4729   -1.7647 H   0  0  0  0  0  0  0  0  0  0  0  0
    5.1459   -4.1600   -3.1846 H   0  0  0  0  0  0  0  0  0  0  0  0
    4.2638   -2.8319   -3.8988 H   0  0  0  0  0  0  0  0  0  0  0  0
    3.4087   -4.1085   -3.1334 H   0  0  0  0  0  0  0  0  0  0  0  0
    5.5465   -1.2606   -2.3484 H   0  0  0  0  0  0  0  0  0  0  0  0
    5.4133   -1.2043   -0.6458 H   0  0  0  0  0  0  0  0  0  0  0  0
    6.9323   -3.3944   -2.2199 H   0  0  0  0  0  0  0  0  0  0  0  0
    7.6138   -1.9489   -1.6502 H   0  0  0  0  0  0  0  0  0  0  0  0
    8.2164   -3.7658   -0.3622 H   0  0  0  0  0  0  0  0  0  0  0  0
    7.1011   -2.0267    1.3609 H   0  0  0  0  0  0  0  0  0  0  0  0
    6.9347   -6.5734    0.9957 H   0  0  0  0  0  0  0  0  0  0  0  0
    8.2032   -5.4287    1.4138 H   0  0  0  0  0  0  0  0  0  0  0  0
    7.8879   -5.8648   -0.2349 H   0  0  0  0  0  0  0  0  0  0  0  0
    5.5615   -4.9554   -1.3218 H   0  0  0  0  0  0  0  0  0  0  0  0
    4.1159   -6.2871   -0.7922 H   0  0  0  0  0  0  0  0  0  0  0  0
    3.0717   -4.2861   -0.7630 H   0  0  0  0  0  0  0  0  0  0  0  0
    3.8207   -0.8743    0.6644 H   0  0  0  0  0  0  0  0  0  0  0  0
    1.5238   -1.1955    0.3984 H   0  0  0  0  0  0  0  0  0  0  0  0
    3.7638    0.4791    4.2328 H   0  0  0  0  0  0  0  0  0  0  0  0
    2.3581    0.4522    3.1684 H   0  0  0  0  0  0  0  0  0  0  0  0
    3.9444    0.9145    2.5394 H   0  0  0  0  0  0  0  0  0  0  0  0
    3.2721   -1.8236    4.9017 H   0  0  0  0  0  0  0  0  0  0  0  0
    2.0236   -2.2683    3.7412 H   0  0  0  0  0  0  0  0  0  0  0  0
    3.9520   -5.4874    4.5232 H   0  0  0  0  0  0  0  0  0  0  0  0
    2.4374   -4.6353    4.7959 H   0  0  0  0  0  0  0  0  0  0  0  0
    3.8902   -4.1743    5.6834 H   0  0  0  0  0  0  0  0  0  0  0  0
    3.1312   -4.9009    2.1455 H   0  0  0  0  0  0  0  0  0  0  0  0
    5.2283   -2.5929    1.2504 H   0  0  0  0  0  0  0  0  0  0  0  0
    5.1142   -5.9901    1.8037 H   0  0  0  0  0  0  0  0  0  0  0  0
    5.9444   -3.4895    4.2942 H   0  0  0  0  0  0  0  0  0  0  0  0
    5.3308   -1.2758    4.3548 H   0  0  0  0  0  0  0  0  0  0  0  0
    5.9399   -0.7008    1.7189 H   0  0  0  0  0  0  0  0  0  0  0  0
  1  2  1  0
  1 28  1  0
  1 29  1  0
  1 30  1  0
  2 12  1  0
  2  3  1  0
  2  4  1  0
  3 31  1  0
  3 32  1  0
  3 33  1  0
  4  5  1  0
  4 34  1  0
  4 35  1  0
  5  6  1  0
  5 36  1  0
  5 37  1  0
  6  7  1  0
  6  8  1  0
  6 38  1  6
  7 39  1  0
  8 23  1  0
  8  9  1  1
  8 10  1  0
  9 40  1  0
  9 41  1  0
  9 42  1  0
 10 11  1  0
 10 12  1  0
 10 43  1  6
 11 44  1  0
 12 13  1  0
 12 45  1  6
 13 21  1  0
 13 22  1  0
 13 14  1  6
 14 15  1  0
 14 16  1  0
 14 46  1  6
 15 47  1  0
 16 26  1  0
 16 17  1  1
 16 18  1  0
 17 48  1  0
 17 49  1  0
 17 50  1  0
 18 19  1  0
 18 51  1  0
 18 52  1  0
 19 25  1  0
 19 20  1  1
 19 21  1  0
 20 53  1  0
 20 54  1  0
 20 55  1  0
 21 22  1  0
 21 56  1  1
 22 23  1  0
 22 57  1  1
 23 24  1  1
 23 25  1  0
 24 58  1  0
 25 26  1  0
 25 59  1  1
 26 27  1  0
 26 60  1  1
 27 61  1  0
M  END
>  <i_m_ct_stereo_status>  (198) 
1

>  <s_m_source_file>  (198) 
/var/tmp/pbs.5076255.sched01/tmp7w47f283/46ruht8ay8.sdf

>  <i_m_source_file_index>  (198) 
39

>  <i_lp_mmshare_version>  (198) 
48012

>  <i_f3d_flags>  (198) 
0

>  <s_epik_input>  (198) 
W0NAXTEyM1tDQEhdNEMoW0NIM10pKFtDSDNdKVtDSDJdW0NIMl1bQ0BASF0oW09IXSlbQ0BdKFtDSDNdKShbQ0BIXTRbT0hdKUM1KFtPSF0pW0NAQEhdM1tDQEhdMltDQEBdNihbQ0gzXSlbQ0BASF01W0NAQEhdKFtPSF0pW0NAXShbQ0gzXSkoW0NIMl02KVtDQEBIXTFbT0hd

>  <s_epik_cmdline>  (198) 
J2VwaWtfcHl0aG9uJywgJy1waHQnLCAnMi4wJywgJy1waCcsICc3LjAnLCAnLXRuJywgJzgnLCAnLW1hJywgJzIwMCcsICctaW1hZScsICc8aW5maWxlLm1hZT4nLCAnLW9tYWUnLCAnPG91dGZpbGUubWFlPic=

>  <r_lp_tautomer_probability>  (198) 
1

>  <r_epik_Ionization_Penalty>  (198) 
7.43969e-06

>  <r_epik_Ionization_Penalty_Charging>  (198) 
0

>  <r_epik_Ionization_Penalty_Neutral>  (198) 
7.43969e-06

>  <r_epik_State_Penalty>  (198) 
-0

>  <r_epik_Charging_Adjusted_Penalty>  (198) 
0

>  <i_epik_Tot_Q>  (198) 
0

>  <i_epik_Tot_abs_Q>  (198) 
0

>  <s_lp_Force_Field>  (198) 
OPLS3e

>  <r_lp_Energy>  (198) 
308.541

>  <b_lp_Chiralities_Consistent>  (198) 
1

>  <s_lp_Variant>  (198) 
57:0-1

>  <s_i_glide_gridfile>  (198) 
pfpi4k_grid

>  <i_i_glide_lignum>  (198) 
39

>  <i_i_glide_rotatable_bonds>  (198) 
5

>  <r_i_docking_score>  (198) 
-3.8775

>  <r_i_glide_ligand_efficiency>  (198) 
-0.143611

>  <r_i_glide_ligand_efficiency_sa>  (198) 
-0.430833

>  <r_i_glide_ligand_efficiency_ln>  (198) 
-0.902617

>  <r_i_glide_gscore>  (198) 
-3.8775

>  <r_i_glide_lipo>  (198) 
-0.559035

>  <r_i_glide_hbond>  (198) 
-0.121304

>  <r_i_glide_metal>  (198) 
-0

>  <r_i_glide_rewards>  (198) 
-1.32839

>  <r_i_glide_evdw>  (198) 
-14.1761

>  <r_i_glide_ecoul>  (198) 
-7.73306

>  <r_i_glide_erotb>  (198) 
0

>  <r_i_glide_esite>  (198) 
0

>  <r_i_glide_emodel>  (198) 
-31.6079

>  <r_i_glide_energy>  (198) 
-21.9092

>  <r_i_glide_einternal>  (198) 
1.00622

>  <r_i_glide_intrahb_reward>  (198) 
-0.5

>  <i_i_glide_confnum>  (198) 
1

>  <i_i_glide_posenum>  (198) 
38

>  <r_i_glide_eff_state_penalty>  (198) 
0

>  <ligand_id>  (198) 
57

>  <original_smiles>  (198) 
CC1(C)CCC(O)C2(C)C(O)C1C13C(O)C4(C)CC5(C)C1C3C2(O)C5C4O

>  <smiles>  (198) 
[H]OC1([H])C2([H])C3(O[H])C4([H])C5([H])C2(C([H])([H])[H])C([H])([H])C1(C([H])([H])[H])C([H])(O[H])C45C1([H])C([H])(O[H])C3(C([H])([H])[H])C([H])(O[H])C([H])([H])C([H])([H])C1(C([H])([H])[H])C([H])([H])[H]

$$$$
57:0:2
     RDKit          3D

 61 66  0  0  1  0  0  0  0  0999 V2000
    5.7071   -1.6656   -0.5336 C   0  0  0  0  0  0  0  0  0  0  0  0
    5.3809   -3.1370   -0.2150 C   0  0  0  0  0  0  0  0  0  0  0  0
    5.4331   -3.8283   -1.6045 C   0  0  0  0  0  0  0  0  0  0  0  0
    6.4433   -3.7402    0.7539 C   0  0  0  0  0  0  0  0  0  0  0  0
    6.3465   -5.2390    1.1432 C   0  0  0  0  0  0  0  0  0  0  0  0
    5.3360   -5.7063    2.2368 C   0  0  1  0  0  0  0  0  0  0  0  0
    5.8011   -5.4523    3.5409 O   0  0  0  0  0  0  0  0  0  0  0  0
    3.7722   -5.4667    2.0346 C   0  0  2  0  0  0  0  0  0  0  0  0
    3.1941   -6.9186    2.0337 C   0  0  0  0  0  0  0  0  0  0  0  0
    3.5428   -4.8216    0.5596 C   0  0  1  0  0  0  0  0  0  0  0  0
    2.2201   -5.0064    0.0771 O   0  0  0  0  0  0  0  0  0  0  0  0
    3.9243   -3.2591    0.3718 C   0  0  1  0  0  0  0  0  0  0  0  0
    3.5432   -2.3815    1.6451 C   0  0  1  0  0  0  0  0  0  0  0  0
    4.4241   -1.2703    2.3728 C   0  0  1  0  0  0  0  0  0  0  0  0
    4.1235   -0.0142    1.7774 O   0  0  0  0  0  0  0  0  0  0  0  0
    4.1545   -1.2028    3.9973 C   0  0  1  0  0  0  0  0  0  0  0  0
    4.9847   -0.0953    4.6761 C   0  0  0  0  0  0  0  0  0  0  0  0
    2.6656   -0.9753    4.2630 C   0  0  0  0  0  0  0  0  0  0  0  0
    2.0571   -2.3399    3.9011 C   0  0  1  0  0  0  0  0  0  0  0  0
    0.5782   -2.3804    4.3145 C   0  0  0  0  0  0  0  0  0  0  0  0
    2.2781   -2.4253    2.4199 C   0  0  1  0  0  0  0  0  0  0  0  0
    3.4275   -3.3822    2.5845 C   0  0  1  0  0  0  0  0  0  0  0  0
    2.9315   -4.5735    3.1045 C   0  0  1  0  0  0  0  0  0  0  0  0
    1.5462   -4.9381    2.9709 O   0  0  0  0  0  0  0  0  0  0  0  0
    2.9698   -3.5564    4.4231 C   0  0  1  0  0  0  0  0  0  0  0  0
    4.1804   -2.5568    4.8695 C   0  0  1  0  0  0  0  0  0  0  0  0
    5.4638   -3.0993    5.0183 O   0  0  0  0  0  0  0  0  0  0  0  0
    6.5098   -1.5925   -1.2595 H   0  0  0  0  0  0  0  0  0  0  0  0
    6.0567   -1.1006    0.3179 H   0  0  0  0  0  0  0  0  0  0  0  0
    4.8425   -1.1477   -0.9451 H   0  0  0  0  0  0  0  0  0  0  0  0
    5.3764   -4.9084   -1.5748 H   0  0  0  0  0  0  0  0  0  0  0  0
    6.3685   -3.6176   -2.1153 H   0  0  0  0  0  0  0  0  0  0  0  0
    4.6297   -3.4919   -2.2572 H   0  0  0  0  0  0  0  0  0  0  0  0
    7.4006   -3.6171    0.2514 H   0  0  0  0  0  0  0  0  0  0  0  0
    6.5461   -3.1545    1.6639 H   0  0  0  0  0  0  0  0  0  0  0  0
    6.2252   -5.8496    0.2491 H   0  0  0  0  0  0  0  0  0  0  0  0
    7.3346   -5.5284    1.4904 H   0  0  0  0  0  0  0  0  0  0  0  0
    5.5007   -6.7845    2.1976 H   0  0  0  0  0  0  0  0  0  0  0  0
    6.6636   -5.8210    3.6263 H   0  0  0  0  0  0  0  0  0  0  0  0
    2.1373   -6.9676    1.7758 H   0  0  0  0  0  0  0  0  0  0  0  0
    3.3101   -7.3876    3.0131 H   0  0  0  0  0  0  0  0  0  0  0  0
    3.6877   -7.5616    1.3047 H   0  0  0  0  0  0  0  0  0  0  0  0
    4.0759   -5.4636   -0.1218 H   0  0  0  0  0  0  0  0  0  0  0  0
    2.2723   -5.0390   -0.8668 H   0  0  0  0  0  0  0  0  0  0  0  0
    3.2792   -2.8780   -0.4222 H   0  0  0  0  0  0  0  0  0  0  0  0
    5.5057   -1.4412    2.2629 H   0  0  0  0  0  0  0  0  0  0  0  0
    3.1960    0.1336    1.8733 H   0  0  0  0  0  0  0  0  0  0  0  0
    4.7805   -0.0459    5.7467 H   0  0  0  0  0  0  0  0  0  0  0  0
    4.7608    0.8910    4.2652 H   0  0  0  0  0  0  0  0  0  0  0  0
    6.0548   -0.2693    4.5588 H   0  0  0  0  0  0  0  0  0  0  0  0
    2.4646   -0.7355    5.3068 H   0  0  0  0  0  0  0  0  0  0  0  0
    2.2423   -0.1603    3.6719 H   0  0  0  0  0  0  0  0  0  0  0  0
    0.0697   -3.2811    3.9783 H   0  0  0  0  0  0  0  0  0  0  0  0
    0.0358   -1.5348    3.8862 H   0  0  0  0  0  0  0  0  0  0  0  0
    0.4801   -2.3358    5.3932 H   0  0  0  0  0  0  0  0  0  0  0  0
    1.4169   -2.7154    1.8376 H   0  0  0  0  0  0  0  0  0  0  0  0
    4.5026   -3.3927    2.7611 H   0  0  0  0  0  0  0  0  0  0  0  0
    1.4356   -5.7735    3.3957 H   0  0  0  0  0  0  0  0  0  0  0  0
    2.5539   -4.0465    5.3020 H   0  0  0  0  0  0  0  0  0  0  0  0
    3.9367   -2.2817    5.8933 H   0  0  0  0  0  0  0  0  0  0  0  0
    5.3972   -3.8832    5.5325 H   0  0  0  0  0  0  0  0  0  0  0  0
  1  2  1  0
  1 28  1  0
  1 29  1  0
  1 30  1  0
  2 12  1  0
  2  3  1  0
  2  4  1  0
  3 31  1  0
  3 32  1  0
  3 33  1  0
  4  5  1  0
  4 34  1  0
  4 35  1  0
  5  6  1  0
  5 36  1  0
  5 37  1  0
  6  7  1  0
  6  8  1  0
  6 38  1  1
  7 39  1  0
  8 23  1  0
  8  9  1  6
  8 10  1  0
  9 40  1  0
  9 41  1  0
  9 42  1  0
 10 11  1  0
 10 12  1  0
 10 43  1  6
 11 44  1  0
 12 13  1  0
 12 45  1  6
 13 21  1  0
 13 22  1  0
 13 14  1  1
 14 15  1  0
 14 16  1  0
 14 46  1  1
 15 47  1  0
 16 26  1  0
 16 17  1  1
 16 18  1  0
 17 48  1  0
 17 49  1  0
 17 50  1  0
 18 19  1  0
 18 51  1  0
 18 52  1  0
 19 25  1  0
 19 20  1  6
 19 21  1  0
 20 53  1  0
 20 54  1  0
 20 55  1  0
 21 22  1  0
 21 56  1  6
 22 23  1  0
 22 57  1  1
 23 24  1  6
 23 25  1  0
 24 58  1  0
 25 26  1  0
 25 59  1  1
 26 27  1  0
 26 60  1  1
 27 61  1  0
M  END
>  <i_m_ct_stereo_status>  (199) 
1

>  <s_m_source_file>  (199) 
/var/tmp/pbs.5076255.sched01/tmp7w47f283/46ruht8ay8.sdf

>  <i_m_source_file_index>  (199) 
39

>  <i_lp_mmshare_version>  (199) 
48012

>  <i_f3d_flags>  (199) 
0

>  <s_epik_input>  (199) 
W0NAXTEyM1tDQEhdNEMoW0NIM10pKFtDSDNdKVtDSDJdW0NIMl1bQ0BASF0oW09IXSlbQ0BdKFtDSDNdKShbQ0BIXTRbT0hdKUM1KFtPSF0pW0NAQEhdM1tDQEhdMltDQEBdNihbQ0gzXSlbQ0BASF01W0NAQEhdKFtPSF0pW0NAXShbQ0gzXSkoW0NIMl02KVtDQEBIXTFbT0hd

>  <s_epik_cmdline>  (199) 
J2VwaWtfcHl0aG9uJywgJy1waHQnLCAnMi4wJywgJy1waCcsICc3LjAnLCAnLXRuJywgJzgnLCAnLW1hJywgJzIwMCcsICctaW1hZScsICc8aW5maWxlLm1hZT4nLCAnLW9tYWUnLCAnPG91dGZpbGUubWFlPic=

>  <r_lp_tautomer_probability>  (199) 
1

>  <r_epik_Ionization_Penalty>  (199) 
7.43969e-06

>  <r_epik_Ionization_Penalty_Charging>  (199) 
0

>  <r_epik_Ionization_Penalty_Neutral>  (199) 
7.43969e-06

>  <r_epik_State_Penalty>  (199) 
-0

>  <r_epik_Charging_Adjusted_Penalty>  (199) 
0

>  <i_epik_Tot_Q>  (199) 
0

>  <i_epik_Tot_abs_Q>  (199) 
0

>  <s_lp_Force_Field>  (199) 
OPLS3e

>  <r_lp_Energy>  (199) 
308.541

>  <b_lp_Chiralities_Consistent>  (199) 
1

>  <s_lp_Variant>  (199) 
57:0-1

>  <s_i_glide_gridfile>  (199) 
pfpi4k_grid

>  <i_i_glide_lignum>  (199) 
39

>  <i_i_glide_rotatable_bonds>  (199) 
5

>  <r_i_docking_score>  (199) 
-2.90691

>  <r_i_glide_ligand_efficiency>  (199) 
-0.107663

>  <r_i_glide_ligand_efficiency_sa>  (199) 
-0.32299

>  <r_i_glide_ligand_efficiency_ln>  (199) 
-0.676681

>  <r_i_glide_gscore>  (199) 
-2.90691

>  <r_i_glide_lipo>  (199) 
-0.459177

>  <r_i_glide_hbond>  (199) 
0

>  <r_i_glide_metal>  (199) 
-0

>  <r_i_glide_rewards>  (199) 
-0.828393

>  <r_i_glide_evdw>  (199) 
-23.3772

>  <r_i_glide_ecoul>  (199) 
-3.0032

>  <r_i_glide_erotb>  (199) 
0

>  <r_i_glide_esite>  (199) 
0

>  <r_i_glide_emodel>  (199) 
-30.4141

>  <r_i_glide_energy>  (199) 
-26.3804

>  <r_i_glide_einternal>  (199) 
1.38055

>  <r_i_glide_intrahb_reward>  (199) 
-0

>  <i_i_glide_confnum>  (199) 
1

>  <i_i_glide_posenum>  (199) 
39

>  <r_i_glide_eff_state_penalty>  (199) 
0

>  <ligand_id>  (199) 
57

>  <original_smiles>  (199) 
CC1(C)CCC(O)C2(C)C(O)C1C13C(O)C4(C)CC5(C)C1C3C2(O)C5C4O

>  <smiles>  (199) 
[H]OC1([H])C2([H])C3(O[H])C4([H])C5([H])C2(C([H])([H])[H])C([H])([H])C1(C([H])([H])[H])C([H])(O[H])C45C1([H])C([H])(O[H])C3(C([H])([H])[H])C([H])(O[H])C([H])([H])C([H])([H])C1(C([H])([H])[H])C([H])([H])[H]

$$$$
58:0:0
     RDKit          3D

 60 66  0  0  1  0  0  0  0  0999 V2000
   -0.1455   -6.9278    1.2437 C   0  0  0  0  0  0  0  0  0  0  0  0
    0.9064   -7.1577    2.3201 C   0  0  1  0  0  0  0  0  0  0  0  0
    2.0515   -7.5695    1.6204 O   0  0  0  0  0  0  0  0  0  0  0  0
    3.2991   -7.6215    2.3082 C   0  0  0  0  0  0  0  0  0  0  0  0
    3.6953   -6.2348    2.8727 C   0  0  1  0  0  0  0  0  0  0  0  0
    4.3106   -5.3002    1.7535 C   0  0  1  0  0  0  0  0  0  0  0  0
    4.0272   -5.6697    0.2735 C   0  0  0  0  0  0  0  0  0  0  0  0
    4.5676   -4.6570   -0.7145 C   0  0  0  0  0  0  0  0  0  0  0  0
    4.9636   -3.4140   -0.4007 C   0  0  0  0  0  0  0  0  0  0  0  0
    5.5322   -2.5063   -1.4802 C   0  0  0  0  0  0  0  0  0  0  0  0
    4.9635   -1.1051   -1.3605 C   0  0  0  0  0  0  0  0  0  0  0  0
    4.5949   -0.4769   -2.3463 O   0  0  0  0  0  0  0  0  0  0  0  0
    4.9624   -0.4988    0.0415 C   0  0  0  0  0  0  0  0  0  0  0  0
    4.3028   -1.4441    1.0392 C   0  0  0  0  0  0  0  0  0  0  0  0
    4.9067   -2.8755    1.0333 C   0  0  2  0  0  0  0  0  0  0  0  0
    6.3564   -2.8186    1.5374 C   0  0  0  0  0  0  0  0  0  0  0  0
    4.0143   -3.7966    1.9387 C   0  0  2  0  0  0  0  0  0  0  0  0
    4.0468   -3.4605    3.4281 C   0  0  0  0  0  0  0  0  0  0  0  0
    2.9033   -4.1617    4.1675 C   0  0  0  0  0  0  0  0  0  0  0  0
    2.5516   -5.6096    3.7240 C   0  0  2  0  0  0  0  0  0  0  0  0
    1.8412   -6.3645    4.8834 C   0  0  1  0  0  0  0  0  0  0  0  0
    0.5706   -5.9000    4.3937 O   0  0  0  0  0  0  0  0  0  0  0  0
    1.1706   -5.8246    3.0847 C   0  0  2  0  0  0  0  0  0  0  0  0
    1.8223   -7.8602    5.0752 C   0  0  0  0  0  0  0  0  0  0  0  0
    2.5272   -8.4522    6.1436 C   0  0  0  0  0  0  0  0  0  0  0  0
    2.4454   -9.8380    6.3411 C   0  0  0  0  0  0  0  0  0  0  0  0
    1.6790  -10.6243    5.4671 C   0  0  0  0  0  0  0  0  0  0  0  0
    0.9689  -10.0403    4.4072 C   0  0  0  0  0  0  0  0  0  0  0  0
    1.0549   -8.6606    4.1901 C   0  0  0  0  0  0  0  0  0  0  0  0
    0.3464   -8.1547    3.1274 O   0  0  0  0  0  0  0  0  0  0  0  0
   -0.3368   -7.8548    0.7056 H   0  0  0  0  0  0  0  0  0  0  0  0
    0.2068   -6.1966    0.5222 H   0  0  0  0  0  0  0  0  0  0  0  0
   -1.0754   -6.6077    1.7036 H   0  0  0  0  0  0  0  0  0  0  0  0
    3.2976   -8.3838    3.0788 H   0  0  0  0  0  0  0  0  0  0  0  0
    4.0585   -7.9861    1.6186 H   0  0  0  0  0  0  0  0  0  0  0  0
    4.5201   -6.4262    3.5614 H   0  0  0  0  0  0  0  0  0  0  0  0
    5.3865   -5.4343    1.8652 H   0  0  0  0  0  0  0  0  0  0  0  0
    4.5160   -6.6074    0.0160 H   0  0  0  0  0  0  0  0  0  0  0  0
    2.9597   -5.7907    0.0807 H   0  0  0  0  0  0  0  0  0  0  0  0
    4.6346   -4.9846   -1.7434 H   0  0  0  0  0  0  0  0  0  0  0  0
    6.6151   -2.4547   -1.3857 H   0  0  0  0  0  0  0  0  0  0  0  0
    5.3030   -2.8966   -2.4721 H   0  0  0  0  0  0  0  0  0  0  0  0
    5.9912   -0.2758    0.3222 H   0  0  0  0  0  0  0  0  0  0  0  0
    4.4326    0.4532    0.0511 H   0  0  0  0  0  0  0  0  0  0  0  0
    4.3765   -0.9781    2.0230 H   0  0  0  0  0  0  0  0  0  0  0  0
    3.2402   -1.4801    0.7980 H   0  0  0  0  0  0  0  0  0  0  0  0
    6.3873   -2.3762    2.5287 H   0  0  0  0  0  0  0  0  0  0  0  0
    7.0022   -2.2097    0.9007 H   0  0  0  0  0  0  0  0  0  0  0  0
    6.8134   -3.8086    1.5815 H   0  0  0  0  0  0  0  0  0  0  0  0
    2.9876   -3.6391    1.6062 H   0  0  0  0  0  0  0  0  0  0  0  0
    4.9986   -3.7776    3.8552 H   0  0  0  0  0  0  0  0  0  0  0  0
    3.9681   -2.3875    3.6063 H   0  0  0  0  0  0  0  0  0  0  0  0
    3.1410   -4.1201    5.2291 H   0  0  0  0  0  0  0  0  0  0  0  0
    2.0194   -3.5314    4.0548 H   0  0  0  0  0  0  0  0  0  0  0  0
    2.0637   -5.9152    5.8495 H   0  0  0  0  0  0  0  0  0  0  0  0
    0.8649   -4.9321    2.5339 H   0  0  0  0  0  0  0  0  0  0  0  0
    3.0987   -7.8444    6.8340 H   0  0  0  0  0  0  0  0  0  0  0  0
    2.9309  -10.3067    7.1900 H   0  0  0  0  0  0  0  0  0  0  0  0
    1.5906  -11.6832    5.6489 H   0  0  0  0  0  0  0  0  0  0  0  0
    0.3613  -10.6601    3.7652 H   0  0  0  0  0  0  0  0  0  0  0  0
  2  1  1  6
  1 31  1  0
  1 32  1  0
  1 33  1  0
  2 23  1  0
  2 30  1  0
  2  3  1  0
  3  4  1  0
  4  5  1  0
  4 34  1  0
  4 35  1  0
  5 20  1  0
  5  6  1  0
  5 36  1  1
  6 17  1  0
  6  7  1  0
  6 37  1  6
  7  8  1  0
  7 38  1  0
  7 39  1  0
  8  9  2  0
  8 40  1  0
  9 15  1  0
  9 10  1  0
 10 11  1  0
 10 41  1  0
 10 42  1  0
 11 12  2  0
 11 13  1  0
 13 14  1  0
 13 43  1  0
 13 44  1  0
 14 15  1  0
 14 45  1  0
 14 46  1  0
 15 16  1  1
 15 17  1  0
 16 47  1  0
 16 48  1  0
 16 49  1  0
 17 18  1  0
 17 50  1  6
 18 19  1  0
 18 51  1  0
 18 52  1  0
 20 19  1  1
 19 53  1  0
 19 54  1  0
 20 23  1  0
 20 21  1  0
 21 22  1  0
 21 24  1  0
 21 55  1  1
 22 23  1  0
 23 56  1  6
 24 29  2  0
 24 25  1  0
 25 26  2  0
 25 57  1  0
 26 27  1  0
 26 58  1  0
 27 28  2  0
 27 59  1  0
 28 29  1  0
 28 60  1  0
 29 30  1  0
M  END
>  <i_m_ct_stereo_status>  (200) 
1

>  <s_m_source_file>  (200) 
/var/tmp/pbs.5076255.sched01/tmp7w47f283/46ruht8ay8.sdf

>  <i_m_source_file_index>  (200) 
40

>  <i_lp_mmshare_version>  (200) 
48012

>  <i_f3d_flags>  (200) 
0

>  <s_epik_input>  (200) 
W2NIXTFbY0hdW2NIXVtjSF1jKE8yKWMxW0NAQEhdM09bQ0BASF00W0NAQF0yKFtDSDNdKU9bQ0gyXVtDQEhdKFtDQF0zNDUpW0NAQEhdNltDQEBIXShbQ0gyXVtDSDJdNSlbQ0BAXTcoW0NIM10pQyg9W0NIXVtDSDJdNilbQ0gyXUMoPU8pW0NIMl1bQ0gyXTc=

>  <s_epik_cmdline>  (200) 
J2VwaWtfcHl0aG9uJywgJy1waHQnLCAnMi4wJywgJy1waCcsICc3LjAnLCAnLXRuJywgJzgnLCAnLW1hJywgJzIwMCcsICctaW1hZScsICc8aW5maWxlLm1hZT4nLCAnLW9tYWUnLCAnPG91dGZpbGUubWFlPic=

>  <r_lp_tautomer_probability>  (200) 
1

>  <r_epik_Ionization_Penalty>  (200) 
5.00842e-13

>  <r_epik_Ionization_Penalty_Charging>  (200) 
0

>  <r_epik_Ionization_Penalty_Neutral>  (200) 
5.00842e-13

>  <r_epik_State_Penalty>  (200) 
-0

>  <r_epik_Charging_Adjusted_Penalty>  (200) 
0

>  <i_epik_Tot_Q>  (200) 
0

>  <i_epik_Tot_abs_Q>  (200) 
0

>  <s_lp_Force_Field>  (200) 
OPLS3e

>  <r_lp_Energy>  (200) 
79.0217

>  <b_lp_Chiralities_Consistent>  (200) 
1

>  <s_lp_Variant>  (200) 
58:0-1

>  <s_i_glide_gridfile>  (200) 
pfpi4k_grid

>  <i_i_glide_lignum>  (200) 
40

>  <i_i_glide_rotatable_bonds>  (200) 
0

>  <r_i_docking_score>  (200) 
-2.20683

>  <r_i_glide_ligand_efficiency>  (200) 
-0.0735609

>  <r_i_glide_ligand_efficiency_sa>  (200) 
-0.228571

>  <r_i_glide_ligand_efficiency_ln>  (200) 
-0.501415

>  <r_i_glide_gscore>  (200) 
-2.20683

>  <r_i_glide_lipo>  (200) 
-0.265603

>  <r_i_glide_hbond>  (200) 
0

>  <r_i_glide_metal>  (200) 
-0

>  <r_i_glide_rewards>  (200) 
-0.637405

>  <r_i_glide_evdw>  (200) 
-24.112

>  <r_i_glide_ecoul>  (200) 
-0.052245

>  <r_i_glide_erotb>  (200) 
0

>  <r_i_glide_esite>  (200) 
-0.0903837

>  <r_i_glide_emodel>  (200) 
-26.8177

>  <r_i_glide_energy>  (200) 
-24.1642

>  <r_i_glide_einternal>  (200) 
0

>  <r_i_glide_intrahb_reward>  (200) 
-0

>  <i_i_glide_confnum>  (200) 
2

>  <i_i_glide_posenum>  (200) 
15

>  <r_i_glide_eff_state_penalty>  (200) 
0

>  <ligand_id>  (200) 
58

>  <original_smiles>  (200) 
CC12OCC3C4CC=C5CC(=O)CCC5(C)C4CCC34C(OC14)c1ccccc1O2

>  <smiles>  (200) 
[H]C1=C2C([H])([H])C(=O)C([H])([H])C([H])([H])C2(C([H])([H])[H])C2([H])C([H])([H])C([H])([H])C34C5([H])OC3([H])C(C([H])([H])[H])(Oc3c([H])c([H])c([H])c([H])c35)OC([H])([H])C4([H])C2([H])C1([H])[H]

$$$$
58:0:1
     RDKit          3D

 60 66  0  0  1  0  0  0  0  0999 V2000
   -0.4009   -7.3179    2.2376 C   0  0  0  0  0  0  0  0  0  0  0  0
    0.9485   -7.6633    2.8876 C   0  0  1  0  0  0  0  0  0  0  0  0
    1.9019   -7.3293    1.9168 O   0  0  0  0  0  0  0  0  0  0  0  0
    3.2805   -7.2975    2.2804 C   0  0  0  0  0  0  0  0  0  0  0  0
    3.5359   -6.2461    3.3940 C   0  0  1  0  0  0  0  0  0  0  0  0
    3.6079   -4.7796    2.8067 C   0  0  1  0  0  0  0  0  0  0  0  0
    2.9886   -4.5335    1.4059 C   0  0  0  0  0  0  0  0  0  0  0  0
    2.9772   -3.0714    0.9926 C   0  0  0  0  0  0  0  0  0  0  0  0
    3.2331   -2.0378    1.8166 C   0  0  0  0  0  0  0  0  0  0  0  0
    3.2782   -0.6124    1.2618 C   0  0  0  0  0  0  0  0  0  0  0  0
    2.5234    0.3591    2.1609 C   0  0  0  0  0  0  0  0  0  0  0  0
    1.7870    1.2339    1.7069 O   0  0  0  0  0  0  0  0  0  0  0  0
    2.7924    0.2653    3.6486 C   0  0  0  0  0  0  0  0  0  0  0  0
    2.6516   -1.1910    4.1232 C   0  0  0  0  0  0  0  0  0  0  0  0
    3.4986   -2.2224    3.3161 C   0  0  2  0  0  0  0  0  0  0  0  0
    5.0042   -1.9569    3.5659 C   0  0  0  0  0  0  0  0  0  0  0  0
    3.0987   -3.6768    3.7626 C   0  0  2  0  0  0  0  0  0  0  0  0
    3.4799   -4.0399    5.1965 C   0  0  0  0  0  0  0  0  0  0  0  0
    2.7613   -5.3126    5.6499 C   0  0  0  0  0  0  0  0  0  0  0  0
    2.5834   -6.4457    4.6095 C   0  0  2  0  0  0  0  0  0  0  0  0
    2.3945   -7.8134    5.3267 C   0  0  1  0  0  0  0  0  0  0  0  0
    0.9870   -7.6058    5.3363 O   0  0  0  0  0  0  0  0  0  0  0  0
    1.1475   -6.7954    4.1707 C   0  0  2  0  0  0  0  0  0  0  0  0
    2.7395   -9.1712    4.7522 C   0  0  0  0  0  0  0  0  0  0  0  0
    3.8249   -9.9259    5.2677 C   0  0  0  0  0  0  0  0  0  0  0  0
    4.0736  -11.2245    4.7714 C   0  0  0  0  0  0  0  0  0  0  0  0
    3.2462  -11.7637    3.7669 C   0  0  0  0  0  0  0  0  0  0  0  0
    2.1680  -11.0103    3.2606 C   0  0  0  0  0  0  0  0  0  0  0  0
    1.9257   -9.7034    3.7260 C   0  0  0  0  0  0  0  0  0  0  0  0
    0.8574   -9.0373    3.1653 O   0  0  0  0  0  0  0  0  0  0  0  0
   -0.5321   -7.9243    1.3377 H   0  0  0  0  0  0  0  0  0  0  0  0
   -0.4112   -6.2718    1.9437 H   0  0  0  0  0  0  0  0  0  0  0  0
   -1.2219   -7.5230    2.9256 H   0  0  0  0  0  0  0  0  0  0  0  0
    3.6455   -8.2802    2.5561 H   0  0  0  0  0  0  0  0  0  0  0  0
    3.8664   -7.0695    1.3922 H   0  0  0  0  0  0  0  0  0  0  0  0
    4.5441   -6.4587    3.7535 H   0  0  0  0  0  0  0  0  0  0  0  0
    4.6765   -4.6063    2.6690 H   0  0  0  0  0  0  0  0  0  0  0  0
    3.5676   -5.0550    0.6425 H   0  0  0  0  0  0  0  0  0  0  0  0
    1.9659   -4.9032    1.3476 H   0  0  0  0  0  0  0  0  0  0  0  0
    2.7723   -2.8858   -0.0533 H   0  0  0  0  0  0  0  0  0  0  0  0
    4.3135   -0.2878    1.1994 H   0  0  0  0  0  0  0  0  0  0  0  0
    2.8533   -0.5827    0.2600 H   0  0  0  0  0  0  0  0  0  0  0  0
    3.7951    0.6451    3.8413 H   0  0  0  0  0  0  0  0  0  0  0  0
    2.1055    0.9172    4.1885 H   0  0  0  0  0  0  0  0  0  0  0  0
    2.9041   -1.2172    5.1817 H   0  0  0  0  0  0  0  0  0  0  0  0
    1.5952   -1.4564    4.0599 H   0  0  0  0  0  0  0  0  0  0  0  0
    5.2615   -2.0207    4.6228 H   0  0  0  0  0  0  0  0  0  0  0  0
    5.3034   -0.9645    3.2248 H   0  0  0  0  0  0  0  0  0  0  0  0
    5.6324   -2.6656    3.0256 H   0  0  0  0  0  0  0  0  0  0  0  0
    2.0077   -3.7207    3.7197 H   0  0  0  0  0  0  0  0  0  0  0  0
    4.5587   -4.2030    5.2574 H   0  0  0  0  0  0  0  0  0  0  0  0
    3.2473   -3.2403    5.8964 H   0  0  0  0  0  0  0  0  0  0  0  0
    3.2739   -5.6685    6.5430 H   0  0  0  0  0  0  0  0  0  0  0  0
    1.7744   -5.0089    6.0097 H   0  0  0  0  0  0  0  0  0  0  0  0
    2.8001   -7.7887    6.3439 H   0  0  0  0  0  0  0  0  0  0  0  0
    0.5190   -5.8959    4.1976 H   0  0  0  0  0  0  0  0  0  0  0  0
    4.4412   -9.5364    6.0617 H   0  0  0  0  0  0  0  0  0  0  0  0
    4.8782  -11.8202    5.1771 H   0  0  0  0  0  0  0  0  0  0  0  0
    3.4226  -12.7571    3.3901 H   0  0  0  0  0  0  0  0  0  0  0  0
    1.5410  -11.4223    2.4914 H   0  0  0  0  0  0  0  0  0  0  0  0
  2  1  1  6
  1 31  1  0
  1 32  1  0
  1 33  1  0
  2 23  1  0
  2 30  1  0
  2  3  1  0
  3  4  1  0
  4  5  1  0
  4 34  1  0
  4 35  1  0
  5 20  1  0
  5  6  1  0
  5 36  1  1
  6 17  1  0
  6  7  1  0
  6 37  1  6
  7  8  1  0
  7 38  1  0
  7 39  1  0
  8  9  2  0
  8 40  1  0
  9 15  1  0
  9 10  1  0
 10 11  1  0
 10 41  1  0
 10 42  1  0
 11 12  2  0
 11 13  1  0
 13 14  1  0
 13 43  1  0
 13 44  1  0
 14 15  1  0
 14 45  1  0
 14 46  1  0
 15 16  1  6
 15 17  1  0
 16 47  1  0
 16 48  1  0
 16 49  1  0
 17 18  1  0
 17 50  1  1
 18 19  1  0
 18 51  1  0
 18 52  1  0
 20 19  1  1
 19 53  1  0
 19 54  1  0
 20 23  1  0
 20 21  1  0
 21 22  1  0
 21 24  1  0
 21 55  1  1
 22 23  1  0
 23 56  1  1
 24 29  2  0
 24 25  1  0
 25 26  2  0
 25 57  1  0
 26 27  1  0
 26 58  1  0
 27 28  2  0
 27 59  1  0
 28 29  1  0
 28 60  1  0
 29 30  1  0
M  END
>  <i_m_ct_stereo_status>  (201) 
1

>  <s_m_source_file>  (201) 
/var/tmp/pbs.5076255.sched01/tmp7w47f283/46ruht8ay8.sdf

>  <i_m_source_file_index>  (201) 
40

>  <i_lp_mmshare_version>  (201) 
48012

>  <i_f3d_flags>  (201) 
0

>  <s_epik_input>  (201) 
W2NIXTFbY0hdW2NIXVtjSF1jKE8yKWMxW0NAQEhdM09bQ0BASF00W0NAQF0yKFtDSDNdKU9bQ0gyXVtDQEhdKFtDQF0zNDUpW0NAQEhdNltDQEBIXShbQ0gyXVtDSDJdNSlbQ0BAXTcoW0NIM10pQyg9W0NIXVtDSDJdNilbQ0gyXUMoPU8pW0NIMl1bQ0gyXTc=

>  <s_epik_cmdline>  (201) 
J2VwaWtfcHl0aG9uJywgJy1waHQnLCAnMi4wJywgJy1waCcsICc3LjAnLCAnLXRuJywgJzgnLCAnLW1hJywgJzIwMCcsICctaW1hZScsICc8aW5maWxlLm1hZT4nLCAnLW9tYWUnLCAnPG91dGZpbGUubWFlPic=

>  <r_lp_tautomer_probability>  (201) 
1

>  <r_epik_Ionization_Penalty>  (201) 
5.00842e-13

>  <r_epik_Ionization_Penalty_Charging>  (201) 
0

>  <r_epik_Ionization_Penalty_Neutral>  (201) 
5.00842e-13

>  <r_epik_State_Penalty>  (201) 
-0

>  <r_epik_Charging_Adjusted_Penalty>  (201) 
0

>  <i_epik_Tot_Q>  (201) 
0

>  <i_epik_Tot_abs_Q>  (201) 
0

>  <s_lp_Force_Field>  (201) 
OPLS3e

>  <r_lp_Energy>  (201) 
79.0217

>  <b_lp_Chiralities_Consistent>  (201) 
1

>  <s_lp_Variant>  (201) 
58:0-1

>  <s_i_glide_gridfile>  (201) 
pfpi4k_grid

>  <i_i_glide_lignum>  (201) 
40

>  <i_i_glide_rotatable_bonds>  (201) 
0

>  <r_i_docking_score>  (201) 
-2.02836

>  <r_i_glide_ligand_efficiency>  (201) 
-0.067612

>  <r_i_glide_ligand_efficiency_sa>  (201) 
-0.210086

>  <r_i_glide_ligand_efficiency_ln>  (201) 
-0.460865

>  <r_i_glide_gscore>  (201) 
-2.02836

>  <r_i_glide_lipo>  (201) 
-0.147405

>  <r_i_glide_hbond>  (201) 
0

>  <r_i_glide_metal>  (201) 
-0

>  <r_i_glide_rewards>  (201) 
-0.637405

>  <r_i_glide_evdw>  (201) 
-25.8741

>  <r_i_glide_ecoul>  (201) 
0.569763

>  <r_i_glide_erotb>  (201) 
0

>  <r_i_glide_esite>  (201) 
-0.0353092

>  <r_i_glide_emodel>  (201) 
-27.7686

>  <r_i_glide_energy>  (201) 
-25.3043

>  <r_i_glide_einternal>  (201) 
0

>  <r_i_glide_intrahb_reward>  (201) 
-0

>  <i_i_glide_confnum>  (201) 
1

>  <i_i_glide_posenum>  (201) 
6

>  <r_i_glide_eff_state_penalty>  (201) 
0

>  <ligand_id>  (201) 
58

>  <original_smiles>  (201) 
CC12OCC3C4CC=C5CC(=O)CCC5(C)C4CCC34C(OC14)c1ccccc1O2

>  <smiles>  (201) 
[H]C1=C2C([H])([H])C(=O)C([H])([H])C([H])([H])C2(C([H])([H])[H])C2([H])C([H])([H])C([H])([H])C34C5([H])OC3([H])C(C([H])([H])[H])(Oc3c([H])c([H])c([H])c([H])c35)OC([H])([H])C4([H])C2([H])C1([H])[H]

$$$$
58:0:2
     RDKit          3D

 60 66  0  0  1  0  0  0  0  0999 V2000
   -0.5795   -7.2917    1.7568 C   0  0  0  0  0  0  0  0  0  0  0  0
    0.5419   -7.5569    2.7703 C   0  0  1  0  0  0  0  0  0  0  0  0
    1.7131   -7.1592    2.1164 O   0  0  0  0  0  0  0  0  0  0  0  0
    2.9194   -7.0339    2.8681 C   0  0  0  0  0  0  0  0  0  0  0  0
    2.7657   -5.9685    3.9877 C   0  0  1  0  0  0  0  0  0  0  0  0
    2.9129   -4.5014    3.4171 C   0  0  1  0  0  0  0  0  0  0  0  0
    2.7247   -4.2983    1.8915 C   0  0  0  0  0  0  0  0  0  0  0  0
    2.7346   -2.8387    1.4620 C   0  0  0  0  0  0  0  0  0  0  0  0
    2.6702   -1.7933    2.3048 C   0  0  0  0  0  0  0  0  0  0  0  0
    2.7874   -0.3670    1.7562 C   0  0  0  0  0  0  0  0  0  0  0  0
    1.7390    0.5478    2.3752 C   0  0  0  0  0  0  0  0  0  0  0  0
    1.1096    1.3599    1.7035 O   0  0  0  0  0  0  0  0  0  0  0  0
    1.5608    0.4749    3.8775 C   0  0  0  0  0  0  0  0  0  0  0  0
    1.3785   -0.9874    4.3198 C   0  0  0  0  0  0  0  0  0  0  0  0
    2.4918   -1.9577    3.8182 C   0  0  2  0  0  0  0  0  0  0  0  0
    3.8362   -1.5908    4.4973 C   0  0  0  0  0  0  0  0  0  0  0  0
    2.0715   -3.4366    4.1567 C   0  0  2  0  0  0  0  0  0  0  0  0
    2.0345   -3.7721    5.6458 C   0  0  0  0  0  0  0  0  0  0  0  0
    1.2999   -5.0918    5.8938 C   0  0  0  0  0  0  0  0  0  0  0  0
    1.5132   -6.2342    4.8733 C   0  0  2  0  0  0  0  0  0  0  0  0
    1.2067   -7.6127    5.5272 C   0  0  1  0  0  0  0  0  0  0  0  0
   -0.1450   -7.4979    5.1208 O   0  0  0  0  0  0  0  0  0  0  0  0
    0.2972   -6.6836    4.0410 C   0  0  2  0  0  0  0  0  0  0  0  0
    1.7956   -8.9440    5.1017 C   0  0  0  0  0  0  0  0  0  0  0  0
    2.7285   -9.6196    5.9264 C   0  0  0  0  0  0  0  0  0  0  0  0
    3.2001  -10.8951    5.5468 C   0  0  0  0  0  0  0  0  0  0  0  0
    2.7431  -11.4910    4.3534 C   0  0  0  0  0  0  0  0  0  0  0  0
    1.8227  -10.8109    3.5304 C   0  0  0  0  0  0  0  0  0  0  0  0
    1.3596   -9.5261    3.8874 C   0  0  0  0  0  0  0  0  0  0  0  0
    0.4599   -8.9344    3.0301 O   0  0  0  0  0  0  0  0  0  0  0  0
   -0.3939   -7.8849    0.8677 H   0  0  0  0  0  0  0  0  0  0  0  0
   -0.5751   -6.2520    1.4502 H   0  0  0  0  0  0  0  0  0  0  0  0
   -1.5471   -7.5665    2.1711 H   0  0  0  0  0  0  0  0  0  0  0  0
    3.2497   -7.9890    3.2595 H   0  0  0  0  0  0  0  0  0  0  0  0
    3.7253   -6.7664    2.1885 H   0  0  0  0  0  0  0  0  0  0  0  0
    3.6352   -6.1109    4.6309 H   0  0  0  0  0  0  0  0  0  0  0  0
    3.9608   -4.2539    3.5981 H   0  0  0  0  0  0  0  0  0  0  0  0
    3.5391   -4.7754    1.3450 H   0  0  0  0  0  0  0  0  0  0  0  0
    1.7981   -4.7412    1.5368 H   0  0  0  0  0  0  0  0  0  0  0  0
    2.8355   -2.6695    0.3987 H   0  0  0  0  0  0  0  0  0  0  0  0
    3.7706    0.0278    1.9948 H   0  0  0  0  0  0  0  0  0  0  0  0
    2.6730   -0.3637    0.6747 H   0  0  0  0  0  0  0  0  0  0  0  0
    2.4340    0.9206    4.3521 H   0  0  0  0  0  0  0  0  0  0  0  0
    0.7034    1.0782    4.1758 H   0  0  0  0  0  0  0  0  0  0  0  0
    1.3090   -0.9956    5.4057 H   0  0  0  0  0  0  0  0  0  0  0  0
    0.4077   -1.3239    3.9526 H   0  0  0  0  0  0  0  0  0  0  0  0
    3.7726   -1.6361    5.5837 H   0  0  0  0  0  0  0  0  0  0  0  0
    4.1572   -0.5800    4.2390 H   0  0  0  0  0  0  0  0  0  0  0  0
    4.6413   -2.2547    4.1808 H   0  0  0  0  0  0  0  0  0  0  0  0
    1.0466   -3.5522    3.7928 H   0  0  0  0  0  0  0  0  0  0  0  0
    3.0563   -3.8615    6.0249 H   0  0  0  0  0  0  0  0  0  0  0  0
    1.5572   -2.9904    6.2303 H   0  0  0  0  0  0  0  0  0  0  0  0
    1.5484   -5.4109    6.9049 H   0  0  0  0  0  0  0  0  0  0  0  0
    0.2308   -4.8553    5.9392 H   0  0  0  0  0  0  0  0  0  0  0  0
    1.2946   -7.5632    6.6190 H   0  0  0  0  0  0  0  0  0  0  0  0
   -0.3676   -5.8270    3.8625 H   0  0  0  0  0  0  0  0  0  0  0  0
    3.0499   -9.1941    6.8595 H   0  0  0  0  0  0  0  0  0  0  0  0
    3.8719  -11.4391    6.1933 H   0  0  0  0  0  0  0  0  0  0  0  0
    3.0774  -12.4769    4.0790 H   0  0  0  0  0  0  0  0  0  0  0  0
    1.4815  -11.2666    2.6206 H   0  0  0  0  0  0  0  0  0  0  0  0
  2  1  1  6
  1 31  1  0
  1 32  1  0
  1 33  1  0
  2 23  1  0
  2 30  1  0
  2  3  1  0
  3  4  1  0
  4  5  1  0
  4 34  1  0
  4 35  1  0
  5 20  1  0
  5  6  1  0
  5 36  1  1
  6 17  1  0
  6  7  1  0
  6 37  1  6
  7  8  1  0
  7 38  1  0
  7 39  1  0
  8  9  2  0
  8 40  1  0
  9 15  1  0
  9 10  1  0
 10 11  1  0
 10 41  1  0
 10 42  1  0
 11 12  2  0
 11 13  1  0
 13 14  1  0
 13 43  1  0
 13 44  1  0
 14 15  1  0
 14 45  1  0
 14 46  1  0
 15 16  1  1
 15 17  1  0
 16 47  1  0
 16 48  1  0
 16 49  1  0
 17 18  1  0
 17 50  1  6
 18 19  1  0
 18 51  1  0
 18 52  1  0
 20 19  1  1
 19 53  1  0
 19 54  1  0
 20 23  1  0
 20 21  1  0
 21 22  1  0
 21 24  1  0
 21 55  1  1
 22 23  1  0
 23 56  1  6
 24 29  2  0
 24 25  1  0
 25 26  2  0
 25 57  1  0
 26 27  1  0
 26 58  1  0
 27 28  2  0
 27 59  1  0
 28 29  1  0
 28 60  1  0
 29 30  1  0
M  END
>  <i_m_ct_stereo_status>  (202) 
1

>  <s_m_source_file>  (202) 
/var/tmp/pbs.5076255.sched01/tmp7w47f283/46ruht8ay8.sdf

>  <i_m_source_file_index>  (202) 
40

>  <i_lp_mmshare_version>  (202) 
48012

>  <i_f3d_flags>  (202) 
0

>  <s_epik_input>  (202) 
W2NIXTFbY0hdW2NIXVtjSF1jKE8yKWMxW0NAQEhdM09bQ0BASF00W0NAQF0yKFtDSDNdKU9bQ0gyXVtDQEhdKFtDQF0zNDUpW0NAQEhdNltDQEBIXShbQ0gyXVtDSDJdNSlbQ0BAXTcoW0NIM10pQyg9W0NIXVtDSDJdNilbQ0gyXUMoPU8pW0NIMl1bQ0gyXTc=

>  <s_epik_cmdline>  (202) 
J2VwaWtfcHl0aG9uJywgJy1waHQnLCAnMi4wJywgJy1waCcsICc3LjAnLCAnLXRuJywgJzgnLCAnLW1hJywgJzIwMCcsICctaW1hZScsICc8aW5maWxlLm1hZT4nLCAnLW9tYWUnLCAnPG91dGZpbGUubWFlPic=

>  <r_lp_tautomer_probability>  (202) 
1

>  <r_epik_Ionization_Penalty>  (202) 
5.00842e-13

>  <r_epik_Ionization_Penalty_Charging>  (202) 
0

>  <r_epik_Ionization_Penalty_Neutral>  (202) 
5.00842e-13

>  <r_epik_State_Penalty>  (202) 
-0

>  <r_epik_Charging_Adjusted_Penalty>  (202) 
0

>  <i_epik_Tot_Q>  (202) 
0

>  <i_epik_Tot_abs_Q>  (202) 
0

>  <s_lp_Force_Field>  (202) 
OPLS3e

>  <r_lp_Energy>  (202) 
79.0217

>  <b_lp_Chiralities_Consistent>  (202) 
1

>  <s_lp_Variant>  (202) 
58:0-1

>  <s_i_glide_gridfile>  (202) 
pfpi4k_grid

>  <i_i_glide_lignum>  (202) 
40

>  <i_i_glide_rotatable_bonds>  (202) 
0

>  <r_i_docking_score>  (202) 
-1.99347

>  <r_i_glide_ligand_efficiency>  (202) 
-0.0664489

>  <r_i_glide_ligand_efficiency_sa>  (202) 
-0.206472

>  <r_i_glide_ligand_efficiency_ln>  (202) 
-0.452938

>  <r_i_glide_gscore>  (202) 
-1.99347

>  <r_i_glide_lipo>  (202) 
-0.0920045

>  <r_i_glide_hbond>  (202) 
0

>  <r_i_glide_metal>  (202) 
-0

>  <r_i_glide_rewards>  (202) 
-0.637405

>  <r_i_glide_evdw>  (202) 
-27.0462

>  <r_i_glide_ecoul>  (202) 
1.01686

>  <r_i_glide_erotb>  (202) 
0

>  <r_i_glide_esite>  (202) 
-0.0642766

>  <r_i_glide_emodel>  (202) 
-28.4058

>  <r_i_glide_energy>  (202) 
-26.0294

>  <r_i_glide_einternal>  (202) 
0

>  <r_i_glide_intrahb_reward>  (202) 
-0

>  <i_i_glide_confnum>  (202) 
1

>  <i_i_glide_posenum>  (202) 
1

>  <r_i_glide_eff_state_penalty>  (202) 
0

>  <ligand_id>  (202) 
58

>  <original_smiles>  (202) 
CC12OCC3C4CC=C5CC(=O)CCC5(C)C4CCC34C(OC14)c1ccccc1O2

>  <smiles>  (202) 
[H]C1=C2C([H])([H])C(=O)C([H])([H])C([H])([H])C2(C([H])([H])[H])C2([H])C([H])([H])C([H])([H])C34C5([H])OC3([H])C(C([H])([H])[H])(Oc3c([H])c([H])c([H])c([H])c35)OC([H])([H])C4([H])C2([H])C1([H])[H]

$$$$
59:1:0
     RDKit          3D

 29 32  0  0  1  0  0  0  0  0999 V2000
    7.4286   -3.6102   -0.3415 O   0  0  0  0  0  0  0  0  0  0  0  0
    6.3686   -3.3763   -0.9328 C   0  0  0  0  0  0  0  0  0  0  0  0
    6.2333   -2.4590   -1.9077 N   0  0  0  0  0  0  0  0  0  0  0  0
    4.9207   -2.3773   -2.3909 C   0  0  0  0  0  0  0  0  0  0  0  0
    4.4120   -1.5525   -3.4156 C   0  0  0  0  0  0  0  0  0  0  0  0
    3.0513   -1.6847   -3.7607 C   0  0  0  0  0  0  0  0  0  0  0  0
    2.2543   -2.6582   -3.1027 C   0  0  0  0  0  0  0  0  0  0  0  0
    2.7959   -3.4588   -2.0810 C   0  0  0  0  0  0  0  0  0  0  0  0
    4.1521   -3.3131   -1.7068 C   0  0  0  0  0  0  0  0  0  0  0  0
    5.0556   -3.9922   -0.7318 C   0  0  0  0  0  0  0  0  0  0  0  0
    4.8699   -4.9591    0.2114 C   0  0  0  0  0  0  0  0  0  0  0  0
    3.6206   -5.5440    0.6328 C   0  0  0  0  0  0  0  0  0  0  0  0
    2.2692   -5.0748    0.5861 C   0  0  0  0  0  0  0  0  0  0  0  0
    1.3402   -5.9425    0.9946 N   0  0  0  0  0  0  0  0  0  0  0  0
    2.0186   -7.0154    1.4733 N   0  0  0  0  0  0  0  0  0  0  0  0
    1.4482   -8.0597    2.0561 N   0  0  0  0  0  0  0  0  0  0  0  0
    2.3558   -8.9607    2.4845 C   0  0  0  0  0  0  0  0  0  0  0  0
    3.7506   -8.7819    2.3079 C   0  0  0  0  0  0  0  0  0  0  0  0
    4.3116   -7.7026    1.6956 N   0  0  0  0  0  0  0  0  0  0  0  0
    3.3780   -6.7949    1.2749 C   0  0  0  0  0  0  0  0  0  0  0  0
    6.9971   -1.9446   -2.3140 H   0  0  0  0  0  0  0  0  0  0  0  0
    5.0250   -0.8487   -3.9524 H   0  0  0  0  0  0  0  0  0  0  0  0
    2.6116   -1.0744   -4.5304 H   0  0  0  0  0  0  0  0  0  0  0  0
    1.2142   -2.7760   -3.3609 H   0  0  0  0  0  0  0  0  0  0  0  0
    2.1615   -4.2585   -1.7306 H   0  0  0  0  0  0  0  0  0  0  0  0
    5.7538   -5.2469    0.7774 H   0  0  0  0  0  0  0  0  0  0  0  0
    1.9248   -4.1010    0.2599 H   0  0  0  0  0  0  0  0  0  0  0  0
    1.9555   -9.8353    2.9746 H   0  0  0  0  0  0  0  0  0  0  0  0
    4.4291   -9.5305    2.6783 H   0  0  0  0  0  0  0  0  0  0  0  0
  1  2  2  0
  2 10  1  0
  2  3  1  0
  3  4  1  0
  3 21  1  0
  4  9  2  0
  4  5  1  0
  5  6  2  0
  5 22  1  0
  6  7  1  0
  6 23  1  0
  7  8  2  0
  7 24  1  0
  8  9  1  0
  8 25  1  0
  9 10  1  0
 10 11  2  3
 11 12  1  0
 11 26  1  0
 12 20  2  0
 12 13  1  0
 13 14  2  0
 13 27  1  0
 14 15  1  0
 15 20  1  0
 15 16  1  0
 16 17  2  0
 17 18  1  0
 17 28  1  0
 18 19  2  0
 18 29  1  0
 19 20  1  0
M  END
>  <i_m_ct_stereo_status>  (203) 
1

>  <s_m_source_file>  (203) 
/var/tmp/pbs.5076255.sched01/tmp7w47f283/46ruht8ay8.sdf

>  <i_m_source_file_index>  (203) 
42

>  <i_lp_mmshare_version>  (203) 
48012

>  <i_f3d_flags>  (203) 
0

>  <s_epik_input>  (203) 
W2NIXTFbY0hdW2NIXVtjSF1jKGMxMilDKFxDKD1PKVtOSF0yKT1bQ0hdXGMoW2NIXW4zKWMobjM0KW5bY0hdW2NIXW40

>  <s_epik_cmdline>  (203) 
J2VwaWtfcHl0aG9uJywgJy1waHQnLCAnMi4wJywgJy1waCcsICc3LjAnLCAnLXRuJywgJzgnLCAnLW1hJywgJzIwMCcsICctaW1hZScsICc8aW5maWxlLm1hZT4nLCAnLW9tYWUnLCAnPG91dGZpbGUubWFlPic=

>  <r_lp_tautomer_probability>  (203) 
1

>  <r_epik_Ionization_Penalty>  (203) 
1.19927e-05

>  <r_epik_Ionization_Penalty_Charging>  (203) 
0

>  <r_epik_Ionization_Penalty_Neutral>  (203) 
1.19927e-05

>  <r_epik_State_Penalty>  (203) 
-0

>  <r_epik_Charging_Adjusted_Penalty>  (203) 
0

>  <i_epik_Tot_Q>  (203) 
0

>  <i_epik_Tot_abs_Q>  (203) 
0

>  <s_lp_Force_Field>  (203) 
OPLS3e

>  <r_lp_Energy>  (203) 
31.8113

>  <b_lp_Chiralities_Consistent>  (203) 
1

>  <s_lp_Variant>  (203) 
59:0-2

>  <s_i_glide_gridfile>  (203) 
pfpi4k_grid

>  <i_i_glide_lignum>  (203) 
42

>  <i_i_glide_rotatable_bonds>  (203) 
1

>  <r_i_docking_score>  (203) 
-4.28287

>  <r_i_glide_ligand_efficiency>  (203) 
-0.214144

>  <r_i_glide_ligand_efficiency_sa>  (203) 
-0.581275

>  <r_i_glide_ligand_efficiency_ln>  (203) 
-1.07186

>  <r_i_glide_gscore>  (203) 
-4.28287

>  <r_i_glide_lipo>  (203) 
-0.650972

>  <r_i_glide_hbond>  (203) 
-0.16

>  <r_i_glide_metal>  (203) 
-0

>  <r_i_glide_rewards>  (203) 
-1.87

>  <r_i_glide_evdw>  (203) 
-23.1542

>  <r_i_glide_ecoul>  (203) 
-2.57255

>  <r_i_glide_erotb>  (203) 
0

>  <r_i_glide_esite>  (203) 
-0.0583034

>  <r_i_glide_emodel>  (203) 
-31.7517

>  <r_i_glide_energy>  (203) 
-25.7267

>  <r_i_glide_einternal>  (203) 
0.941261

>  <r_i_glide_intrahb_reward>  (203) 
-0

>  <i_i_glide_confnum>  (203) 
2

>  <i_i_glide_posenum>  (203) 
6

>  <r_i_glide_eff_state_penalty>  (203) 
0

>  <ligand_id>  (203) 
59

>  <original_smiles>  (203) 
O=C1Nc2ccccc2C1=Cc1cnn2nccnc12

>  <smiles>  (203) 
[H]C(=C1C(=O)N([H])c2c([H])c([H])c([H])c([H])c21)c1c([H])nn2nc([H])c([H])nc12

$$$$
59:1:1
     RDKit          3D

 29 32  0  0  1  0  0  0  0  0999 V2000
    1.4218   -1.0106    2.4831 O   0  0  0  0  0  0  0  0  0  0  0  0
    0.6992   -0.1799    3.0242 C   0  0  0  0  0  0  0  0  0  0  0  0
    0.0879    0.8427    2.4030 N   0  0  0  0  0  0  0  0  0  0  0  0
   -0.6827    1.6046    3.2905 C   0  0  0  0  0  0  0  0  0  0  0  0
   -1.4876    2.7329    3.0022 C   0  0  0  0  0  0  0  0  0  0  0  0
   -2.1848    3.3201    4.1021 C   0  0  0  0  0  0  0  0  0  0  0  0
   -2.1390    2.7522    5.3823 C   0  0  0  0  0  0  0  0  0  0  0  0
   -1.4482    1.5431    5.5497 C   0  0  0  0  0  0  0  0  0  0  0  0
   -0.6173    1.0339    4.5445 C   0  0  0  0  0  0  0  0  0  0  0  0
    0.3225   -0.0947    4.4514 C   0  0  0  0  0  0  0  0  0  0  0  0
    0.8156   -0.9637    5.3518 C   0  0  0  0  0  0  0  0  0  0  0  0
    0.6715   -1.0193    6.7930 C   0  0  0  0  0  0  0  0  0  0  0  0
    0.7497   -2.1553    7.6231 C   0  0  0  0  0  0  0  0  0  0  0  0
    0.4680   -1.9101    8.9215 N   0  0  0  0  0  0  0  0  0  0  0  0
    0.2440   -0.5760    9.0437 N   0  0  0  0  0  0  0  0  0  0  0  0
   -0.1137    0.0763   10.1459 N   0  0  0  0  0  0  0  0  0  0  0  0
   -0.3798    1.3765    9.9407 C   0  0  0  0  0  0  0  0  0  0  0  0
   -0.1995    2.0034    8.6837 C   0  0  0  0  0  0  0  0  0  0  0  0
    0.3787    1.3446    7.5989 N   0  0  0  0  0  0  0  0  0  0  0  0
    0.4320   -0.0042    7.7825 C   0  0  0  0  0  0  0  0  0  0  0  0
    0.1413    1.0408    1.4106 H   0  0  0  0  0  0  0  0  0  0  0  0
   -1.5675    3.1353    2.0664 H   0  0  0  0  0  0  0  0  0  0  0  0
   -2.8228    4.1861    3.9348 H   0  0  0  0  0  0  0  0  0  0  0  0
   -2.6662    3.1747    6.2206 H   0  0  0  0  0  0  0  0  0  0  0  0
   -1.6015    1.0588    6.4991 H   0  0  0  0  0  0  0  0  0  0  0  0
    1.4623   -1.7447    4.9668 H   0  0  0  0  0  0  0  0  0  0  0  0
    1.0101   -3.1683    7.3425 H   0  0  0  0  0  0  0  0  0  0  0  0
   -0.6756    1.9678   10.7844 H   0  0  0  0  0  0  0  0  0  0  0  0
   -0.5125    3.0096    8.5103 H   0  0  0  0  0  0  0  0  0  0  0  0
  1  2  2  0
  2 10  1  0
  2  3  1  0
  3  4  1  0
  3 21  1  0
  4  9  2  0
  4  5  1  0
  5  6  2  0
  5 22  1  0
  6  7  1  0
  6 23  1  0
  7  8  2  0
  7 24  1  0
  8  9  1  0
  8 25  1  0
  9 10  1  0
 10 11  2  3
 11 12  1  0
 11 26  1  0
 12 20  2  0
 12 13  1  0
 13 14  2  0
 13 27  1  0
 14 15  1  0
 15 20  1  0
 15 16  1  0
 16 17  2  0
 17 18  1  0
 17 28  1  0
 18 19  2  0
 18 29  1  0
 19 20  1  0
M  END
>  <i_m_ct_stereo_status>  (204) 
1

>  <s_m_source_file>  (204) 
/var/tmp/pbs.5076255.sched01/tmp7w47f283/46ruht8ay8.sdf

>  <i_m_source_file_index>  (204) 
42

>  <i_lp_mmshare_version>  (204) 
48012

>  <i_f3d_flags>  (204) 
0

>  <s_epik_input>  (204) 
W2NIXTFbY0hdW2NIXVtjSF1jKGMxMilDKFxDKD1PKVtOSF0yKT1bQ0hdXGMoW2NIXW4zKWMobjM0KW5bY0hdW2NIXW40

>  <s_epik_cmdline>  (204) 
J2VwaWtfcHl0aG9uJywgJy1waHQnLCAnMi4wJywgJy1waCcsICc3LjAnLCAnLXRuJywgJzgnLCAnLW1hJywgJzIwMCcsICctaW1hZScsICc8aW5maWxlLm1hZT4nLCAnLW9tYWUnLCAnPG91dGZpbGUubWFlPic=

>  <r_lp_tautomer_probability>  (204) 
1

>  <r_epik_Ionization_Penalty>  (204) 
1.19927e-05

>  <r_epik_Ionization_Penalty_Charging>  (204) 
0

>  <r_epik_Ionization_Penalty_Neutral>  (204) 
1.19927e-05

>  <r_epik_State_Penalty>  (204) 
-0

>  <r_epik_Charging_Adjusted_Penalty>  (204) 
0

>  <i_epik_Tot_Q>  (204) 
0

>  <i_epik_Tot_abs_Q>  (204) 
0

>  <s_lp_Force_Field>  (204) 
OPLS3e

>  <r_lp_Energy>  (204) 
31.8113

>  <b_lp_Chiralities_Consistent>  (204) 
1

>  <s_lp_Variant>  (204) 
59:0-2

>  <s_i_glide_gridfile>  (204) 
pfpi4k_grid

>  <i_i_glide_lignum>  (204) 
42

>  <i_i_glide_rotatable_bonds>  (204) 
1

>  <r_i_docking_score>  (204) 
-2.72012

>  <r_i_glide_ligand_efficiency>  (204) 
-0.136006

>  <r_i_glide_ligand_efficiency_sa>  (204) 
-0.369178

>  <r_i_glide_ligand_efficiency_ln>  (204) 
-0.680757

>  <r_i_glide_gscore>  (204) 
-2.72012

>  <r_i_glide_lipo>  (204) 
-0.0269582

>  <r_i_glide_hbond>  (204) 
-0.0288029

>  <r_i_glide_metal>  (204) 
-0

>  <r_i_glide_rewards>  (204) 
-1.61418

>  <r_i_glide_evdw>  (204) 
-17.1666

>  <r_i_glide_ecoul>  (204) 
-0.23106

>  <r_i_glide_erotb>  (204) 
0

>  <r_i_glide_esite>  (204) 
-0.157199

>  <r_i_glide_emodel>  (204) 
-19.278

>  <r_i_glide_energy>  (204) 
-17.3976

>  <r_i_glide_einternal>  (204) 
1.44328

>  <r_i_glide_intrahb_reward>  (204) 
-0

>  <i_i_glide_confnum>  (204) 
2

>  <i_i_glide_posenum>  (204) 
40

>  <r_i_glide_eff_state_penalty>  (204) 
0

>  <ligand_id>  (204) 
59

>  <original_smiles>  (204) 
O=C1Nc2ccccc2C1=Cc1cnn2nccnc12

>  <smiles>  (204) 
[H]C(=C1C(=O)N([H])c2c([H])c([H])c([H])c([H])c21)c1c([H])nn2nc([H])c([H])nc12

$$$$
60:0:0
     RDKit          3D

 59 63  0  0  1  0  0  0  0  0999 V2000
    3.2742   -0.2879   -4.0388 C   0  0  0  0  0  0  0  0  0  0  0  0
    2.7654   -1.5461   -3.3251 C   0  0  0  0  0  0  0  0  0  0  0  0
    3.8236   -2.4694   -3.1429 O   0  0  0  0  0  0  0  0  0  0  0  0
    4.3964   -2.5833   -1.8309 C   0  0  2  0  0  0  0  0  0  0  0  0
    5.5390   -3.6200   -2.0723 C   0  0  0  0  0  0  0  0  0  0  0  0
    6.5566   -3.4550   -0.9898 C   0  0  0  0  0  0  0  0  0  0  0  0
    6.1556   -3.3024    0.2852 C   0  0  0  0  0  0  0  0  0  0  0  0
    6.2959   -1.8966    0.8289 C   0  0  1  0  0  0  0  0  0  0  0  0
    7.7001   -1.2530    0.7707 C   0  0  0  0  0  0  0  0  0  0  0  0
    8.9608   -2.1116    0.4982 C   0  0  0  0  0  0  0  0  0  0  0  0
    5.1865   -0.9330    0.1884 C   0  0  2  0  0  0  0  0  0  0  0  0
    3.8030   -0.8482    0.9299 C   0  0  0  0  0  0  0  0  0  0  0  0
    3.4467   -2.2341    1.4612 C   0  0  0  0  0  0  0  0  0  0  0  0
    3.7162   -3.2727    0.6421 C   0  0  0  0  0  0  0  0  0  0  0  0
    3.3571   -3.1546   -0.8093 C   0  0  0  0  0  0  0  0  0  0  0  0
    2.2308   -3.4959   -1.1694 O   0  0  0  0  0  0  0  0  0  0  0  0
    4.9713   -4.1550    0.9077 C   0  0  1  0  0  0  0  0  0  0  0  0
    4.8989   -5.4247    0.2373 O   0  0  0  0  0  0  0  0  0  0  0  0
    3.6845   -6.1841    0.2241 C   0  0  0  0  0  0  0  0  0  0  0  0
    5.3435   -4.5021    2.3961 C   0  0  2  0  0  0  0  0  0  0  0  0
    4.6090   -5.5931    3.0275 N   0  0  0  0  0  0  0  0  0  0  0  0
    4.4457   -4.3031    3.6109 C   0  0  2  0  0  0  0  0  0  0  0  0
    3.1142   -3.6631    3.3766 C   0  0  0  0  0  0  0  0  0  0  0  0
    3.3681   -2.3269    2.8654 N   0  0  0  0  0  0  0  0  0  0  0  0
    3.7459   -1.3419    3.8857 C   0  0  0  0  0  0  0  0  0  0  0  0
    5.2685   -1.1393    4.0636 C   0  0  0  0  0  0  0  0  0  0  0  0
    4.9174   -1.1618   -1.3404 C   0  0  0  0  0  0  0  0  0  0  0  0
    2.4456    0.4004   -4.1811 H   0  0  0  0  0  0  0  0  0  0  0  0
    3.6712   -0.5614   -5.0205 H   0  0  0  0  0  0  0  0  0  0  0  0
    4.0533    0.2355   -3.4831 H   0  0  0  0  0  0  0  0  0  0  0  0
    2.2258   -1.3024   -2.4004 H   0  0  0  0  0  0  0  0  0  0  0  0
    2.0205   -2.0615   -3.9192 H   0  0  0  0  0  0  0  0  0  0  0  0
    5.1964   -4.6631   -2.1490 H   0  0  0  0  0  0  0  0  0  0  0  0
    6.0669   -3.3768   -2.9933 H   0  0  0  0  0  0  0  0  0  0  0  0
    7.2587   -2.7148   -1.3324 H   0  0  0  0  0  0  0  0  0  0  0  0
    6.1050   -2.0411    1.8860 H   0  0  0  0  0  0  0  0  0  0  0  0
    7.7065   -0.3779    0.1076 H   0  0  0  0  0  0  0  0  0  0  0  0
    7.7839   -0.6796    1.6553 H   0  0  0  0  0  0  0  0  0  0  0  0
    9.8443   -1.5071    0.7214 H   0  0  0  0  0  0  0  0  0  0  0  0
    9.0556   -2.5071   -0.5043 H   0  0  0  0  0  0  0  0  0  0  0  0
    8.9683   -2.9360    1.2009 H   0  0  0  0  0  0  0  0  0  0  0  0
    5.5417    0.0901    0.2215 H   0  0  0  0  0  0  0  0  0  0  0  0
    3.8738   -0.0851    1.6987 H   0  0  0  0  0  0  0  0  0  0  0  0
    2.9937   -0.4877    0.2852 H   0  0  0  0  0  0  0  0  0  0  0  0
    3.9151   -7.1298   -0.2710 H   0  0  0  0  0  0  0  0  0  0  0  0
    2.8896   -5.7113   -0.3409 H   0  0  0  0  0  0  0  0  0  0  0  0
    3.2812   -6.3934    1.2121 H   0  0  0  0  0  0  0  0  0  0  0  0
    6.4224   -4.5821    2.6195 H   0  0  0  0  0  0  0  0  0  0  0  0
    5.2569   -6.1018    3.6085 H   0  0  0  0  0  0  0  0  0  0  0  0
    4.8599   -4.2190    4.6250 H   0  0  0  0  0  0  0  0  0  0  0  0
    2.5117   -4.2527    2.6904 H   0  0  0  0  0  0  0  0  0  0  0  0
    2.5506   -3.6145    4.2960 H   0  0  0  0  0  0  0  0  0  0  0  0
    3.2674   -0.3942    3.6690 H   0  0  0  0  0  0  0  0  0  0  0  0
    3.2904   -1.6584    4.8252 H   0  0  0  0  0  0  0  0  0  0  0  0
    5.4914   -0.5934    4.9845 H   0  0  0  0  0  0  0  0  0  0  0  0
    5.6810   -0.6022    3.2042 H   0  0  0  0  0  0  0  0  0  0  0  0
    5.7898   -2.0909    4.1180 H   0  0  0  0  0  0  0  0  0  0  0  0
    5.8009   -0.9014   -1.9301 H   0  0  0  0  0  0  0  0  0  0  0  0
    4.1745   -0.4013   -1.5639 H   0  0  0  0  0  0  0  0  0  0  0  0
  1  2  1  0
  1 28  1  0
  1 29  1  0
  1 30  1  0
  2  3  1  0
  2 31  1  0
  2 32  1  0
  4  3  1  6
  4 15  1  0
  4 27  1  0
  4  5  1  0
  5  6  1  0
  5 33  1  0
  5 34  1  0
  6  7  2  0
  6 35  1  0
  7 17  1  0
  7  8  1  0
  8  9  1  0
  8 11  1  0
  8 36  1  1
  9 10  1  0
  9 37  1  0
  9 38  1  0
 10 39  1  0
 10 40  1  0
 10 41  1  0
 11 12  1  0
 11 27  1  0
 11 42  1  6
 12 13  1  0
 12 43  1  0
 12 44  1  0
 13 24  1  0
 13 14  2  0
 14 15  1  0
 14 17  1  0
 15 16  2  0
 17 18  1  6
 17 20  1  0
 18 19  1  0
 19 45  1  0
 19 46  1  0
 19 47  1  0
 20 22  1  0
 20 21  1  0
 20 48  1  1
 21 22  1  0
 21 49  1  0
 22 23  1  0
 22 50  1  1
 23 24  1  0
 23 51  1  0
 23 52  1  0
 24 25  1  0
 25 26  1  0
 25 53  1  0
 25 54  1  0
 26 55  1  0
 26 56  1  0
 26 57  1  0
 27 58  1  0
 27 59  1  0
M  END
>  <i_m_ct_stereo_status>  (205) 
1

>  <s_m_source_file>  (205) 
/var/tmp/pbs.5076255.sched01/tmp7w47f283/46ruht8ay8.sdf

>  <i_m_source_file_index>  (205) 
43

>  <i_lp_mmshare_version>  (205) 
48012

>  <i_f3d_flags>  (205) 
0

>  <s_epik_input>  (205) 
W0NIM11bQ0gyXU9bQ0BdMTJbQ0gyXVtDSF09QzNbQ0BdNChPW0NIM10pQyhDMT1PKT1DKFtDSDJdW0NASF0oW0NIMl0yKVtDQEBIXTNbQ0gyXVtDSDNdKU4oW0NIMl1bQ0gzXSlbQ0gyXVtDQEBIXTVbQ0BIXTRbTkhdNQ==

>  <s_epik_cmdline>  (205) 
J2VwaWtfcHl0aG9uJywgJy1waHQnLCAnMi4wJywgJy1waCcsICc3LjAnLCAnLXRuJywgJzgnLCAnLW1hJywgJzIwMCcsICctaW1hZScsICc8aW5maWxlLm1hZT4nLCAnLW9tYWUnLCAnPG91dGZpbGUubWFlPic=

>  <r_epik_Ionization_Penalty>  (205) 
0.0104028

>  <r_epik_Ionization_Penalty_Charging>  (205) 
0

>  <r_epik_Ionization_Penalty_Neutral>  (205) 
0.0104028

>  <r_epik_State_Penalty>  (205) 
0.00792839

>  <r_epik_Charging_Adjusted_Penalty>  (205) 
0.00792839

>  <i_epik_Tot_Q>  (205) 
0

>  <i_epik_Tot_abs_Q>  (205) 
0

>  <s_lp_Force_Field>  (205) 
OPLS3e

>  <r_lp_Energy>  (205) 
137.951

>  <b_lp_Chiralities_Consistent>  (205) 
1

>  <s_lp_Variant>  (205) 
60:0-1

>  <s_i_glide_gridfile>  (205) 
pfpi4k_grid

>  <i_i_glide_lignum>  (205) 
43

>  <i_i_glide_rotatable_bonds>  (205) 
5

>  <r_i_docking_score>  (205) 
-2.8086

>  <r_i_glide_ligand_efficiency>  (205) 
-0.104022

>  <r_i_glide_ligand_efficiency_sa>  (205) 
-0.312067

>  <r_i_glide_ligand_efficiency_ln>  (205) 
-0.653797

>  <r_i_glide_gscore>  (205) 
-2.8086

>  <r_i_glide_lipo>  (205) 
-0.962761

>  <r_i_glide_hbond>  (205) 
0

>  <r_i_glide_metal>  (205) 
-0

>  <r_i_glide_rewards>  (205) 
-0.892306

>  <r_i_glide_evdw>  (205) 
-24.883

>  <r_i_glide_ecoul>  (205) 
0.515541

>  <r_i_glide_erotb>  (205) 
0.139199

>  <r_i_glide_esite>  (205) 
-3.98191e-05

>  <r_i_glide_emodel>  (205) 
-17.2508

>  <r_i_glide_energy>  (205) 
-24.3674

>  <r_i_glide_einternal>  (205) 
15.3147

>  <r_i_glide_intrahb_reward>  (205) 
-0

>  <i_i_glide_confnum>  (205) 
6

>  <i_i_glide_posenum>  (205) 
14

>  <r_i_glide_eff_state_penalty>  (205) 
0

>  <ligand_id>  (205) 
60

>  <original_smiles>  (205) 
CCOC12CC=C3C(CC)C(CC4=C(C1=O)C3(OC)C1NC1CN4CC)C2

>  <smiles>  (205) 
[H]C1=C2C3(OC([H])([H])[H])C4=C(N(C([H])([H])C([H])([H])[H])C([H])([H])C5([H])N([H])C35[H])C([H])([H])C([H])(C([H])([H])C(OC([H])([H])C([H])([H])[H])(C4=O)C1([H])[H])C2([H])C([H])([H])C([H])([H])[H]

$$$$
60:0:1
     RDKit          3D

 59 63  0  0  1  0  0  0  0  0999 V2000
    0.1000  -10.1569    2.6955 C   0  0  0  0  0  0  0  0  0  0  0  0
    0.5236   -8.6963    2.6757 C   0  0  0  0  0  0  0  0  0  0  0  0
    1.8254   -8.6203    2.0838 O   0  0  0  0  0  0  0  0  0  0  0  0
    2.6047   -7.3921    2.2251 C   0  0  2  0  0  0  0  0  0  0  0  0
    2.6618   -7.0924    3.7736 C   0  0  0  0  0  0  0  0  0  0  0  0
    3.8482   -6.2568    4.1304 C   0  0  0  0  0  0  0  0  0  0  0  0
    4.1618   -5.2585    3.2937 C   0  0  0  0  0  0  0  0  0  0  0  0
    5.3969   -5.5398    2.4162 C   0  0  1  0  0  0  0  0  0  0  0  0
    6.6770   -6.0091    3.1848 C   0  0  0  0  0  0  0  0  0  0  0  0
    7.9787   -5.8367    2.3783 C   0  0  0  0  0  0  0  0  0  0  0  0
    5.0186   -6.6027    1.2631 C   0  0  2  0  0  0  0  0  0  0  0  0
    4.5505   -5.9519   -0.0687 C   0  0  0  0  0  0  0  0  0  0  0  0
    3.6418   -4.7802    0.2401 C   0  0  0  0  0  0  0  0  0  0  0  0
    2.8102   -4.9285    1.3022 C   0  0  0  0  0  0  0  0  0  0  0  0
    2.0088   -6.2021    1.3832 C   0  0  0  0  0  0  0  0  0  0  0  0
    0.9304   -6.2918    0.8322 O   0  0  0  0  0  0  0  0  0  0  0  0
    3.1027   -4.2936    2.6702 C   0  0  1  0  0  0  0  0  0  0  0  0
    1.8759   -4.2599    3.4139 O   0  0  0  0  0  0  0  0  0  0  0  0
    1.9011   -3.7987    4.7622 C   0  0  0  0  0  0  0  0  0  0  0  0
    3.6687   -2.8401    2.6592 C   0  0  2  0  0  0  0  0  0  0  0  0
    2.6534   -1.8101    2.4341 N   0  0  0  0  0  0  0  0  0  0  0  0
    3.7116   -1.9096    1.4613 C   0  0  2  0  0  0  0  0  0  0  0  0
    3.2579   -2.4128    0.1352 C   0  0  0  0  0  0  0  0  0  0  0  0
    4.1109   -3.5199   -0.1884 N   0  0  0  0  0  0  0  0  0  0  0  0
    5.3938   -3.1303   -0.7793 C   0  0  0  0  0  0  0  0  0  0  0  0
    6.5699   -3.0948    0.2368 C   0  0  0  0  0  0  0  0  0  0  0  0
    4.0322   -7.7666    1.6678 C   0  0  0  0  0  0  0  0  0  0  0  0
   -0.8386  -10.2481    3.2373 H   0  0  0  0  0  0  0  0  0  0  0  0
    0.8416  -10.7524    3.2273 H   0  0  0  0  0  0  0  0  0  0  0  0
   -0.0307  -10.5838    1.7011 H   0  0  0  0  0  0  0  0  0  0  0  0
   -0.1910   -8.0811    2.1294 H   0  0  0  0  0  0  0  0  0  0  0  0
    0.4920   -8.3857    3.7206 H   0  0  0  0  0  0  0  0  0  0  0  0
    1.7615   -6.5804    4.1050 H   0  0  0  0  0  0  0  0  0  0  0  0
    2.7525   -8.0463    4.3103 H   0  0  0  0  0  0  0  0  0  0  0  0
    4.6370   -6.9140    4.4434 H   0  0  0  0  0  0  0  0  0  0  0  0
    5.5982   -4.5632    2.0410 H   0  0  0  0  0  0  0  0  0  0  0  0
    6.7522   -5.4107    4.0785 H   0  0  0  0  0  0  0  0  0  0  0  0
    6.6237   -7.0427    3.5204 H   0  0  0  0  0  0  0  0  0  0  0  0
    8.8361   -6.1763    2.9507 H   0  0  0  0  0  0  0  0  0  0  0  0
    8.1760   -4.7902    2.1280 H   0  0  0  0  0  0  0  0  0  0  0  0
    7.9874   -6.4022    1.4439 H   0  0  0  0  0  0  0  0  0  0  0  0
    5.9177   -7.1400    0.9805 H   0  0  0  0  0  0  0  0  0  0  0  0
    5.4218   -5.6583   -0.6485 H   0  0  0  0  0  0  0  0  0  0  0  0
    4.0518   -6.6835   -0.7074 H   0  0  0  0  0  0  0  0  0  0  0  0
    0.9126   -3.9441    5.1935 H   0  0  0  0  0  0  0  0  0  0  0  0
    2.1369   -2.7367    4.8314 H   0  0  0  0  0  0  0  0  0  0  0  0
    2.6065   -4.3463    5.3875 H   0  0  0  0  0  0  0  0  0  0  0  0
    4.3419   -2.5753    3.4670 H   0  0  0  0  0  0  0  0  0  0  0  0
    2.8906   -1.0181    3.0094 H   0  0  0  0  0  0  0  0  0  0  0  0
    4.3932   -1.0495    1.4580 H   0  0  0  0  0  0  0  0  0  0  0  0
    2.2025   -2.6895    0.1740 H   0  0  0  0  0  0  0  0  0  0  0  0
    3.3235   -1.6253   -0.6148 H   0  0  0  0  0  0  0  0  0  0  0  0
    5.6532   -3.7931   -1.5901 H   0  0  0  0  0  0  0  0  0  0  0  0
    5.2593   -2.1625   -1.2671 H   0  0  0  0  0  0  0  0  0  0  0  0
    7.4476   -2.5412   -0.1545 H   0  0  0  0  0  0  0  0  0  0  0  0
    6.8192   -4.1181    0.4903 H   0  0  0  0  0  0  0  0  0  0  0  0
    6.2840   -2.6067    1.1773 H   0  0  0  0  0  0  0  0  0  0  0  0
    4.5268   -8.3990    2.4101 H   0  0  0  0  0  0  0  0  0  0  0  0
    3.9013   -8.4375    0.8128 H   0  0  0  0  0  0  0  0  0  0  0  0
  1  2  1  0
  1 28  1  0
  1 29  1  0
  1 30  1  0
  2  3  1  0
  2 31  1  0
  2 32  1  0
  4  3  1  1
  4 15  1  0
  4 27  1  0
  4  5  1  0
  5  6  1  0
  5 33  1  0
  5 34  1  0
  6  7  2  0
  6 35  1  0
  7 17  1  0
  7  8  1  0
  8  9  1  0
  8 11  1  0
  8 36  1  6
  9 10  1  0
  9 37  1  0
  9 38  1  0
 10 39  1  0
 10 40  1  0
 10 41  1  0
 11 12  1  0
 11 27  1  0
 11 42  1  6
 12 13  1  0
 12 43  1  0
 12 44  1  0
 13 24  1  0
 13 14  2  0
 14 15  1  0
 14 17  1  0
 15 16  2  0
 17 18  1  1
 17 20  1  0
 18 19  1  0
 19 45  1  0
 19 46  1  0
 19 47  1  0
 20 22  1  0
 20 21  1  0
 20 48  1  1
 21 22  1  0
 21 49  1  0
 22 23  1  0
 22 50  1  6
 23 24  1  0
 23 51  1  0
 23 52  1  0
 24 25  1  0
 25 26  1  0
 25 53  1  0
 25 54  1  0
 26 55  1  0
 26 56  1  0
 26 57  1  0
 27 58  1  0
 27 59  1  0
M  END
>  <i_m_ct_stereo_status>  (206) 
1

>  <s_m_source_file>  (206) 
/var/tmp/pbs.5076255.sched01/tmp7w47f283/46ruht8ay8.sdf

>  <i_m_source_file_index>  (206) 
43

>  <i_lp_mmshare_version>  (206) 
48012

>  <i_f3d_flags>  (206) 
0

>  <s_epik_input>  (206) 
W0NIM11bQ0gyXU9bQ0BdMTJbQ0gyXVtDSF09QzNbQ0BdNChPW0NIM10pQyhDMT1PKT1DKFtDSDJdW0NASF0oW0NIMl0yKVtDQEBIXTNbQ0gyXVtDSDNdKU4oW0NIMl1bQ0gzXSlbQ0gyXVtDQEBIXTVbQ0BIXTRbTkhdNQ==

>  <s_epik_cmdline>  (206) 
J2VwaWtfcHl0aG9uJywgJy1waHQnLCAnMi4wJywgJy1waCcsICc3LjAnLCAnLXRuJywgJzgnLCAnLW1hJywgJzIwMCcsICctaW1hZScsICc8aW5maWxlLm1hZT4nLCAnLW9tYWUnLCAnPG91dGZpbGUubWFlPic=

>  <r_epik_Ionization_Penalty>  (206) 
0.0104028

>  <r_epik_Ionization_Penalty_Charging>  (206) 
0

>  <r_epik_Ionization_Penalty_Neutral>  (206) 
0.0104028

>  <r_epik_State_Penalty>  (206) 
0.00792839

>  <r_epik_Charging_Adjusted_Penalty>  (206) 
0.00792839

>  <i_epik_Tot_Q>  (206) 
0

>  <i_epik_Tot_abs_Q>  (206) 
0

>  <s_lp_Force_Field>  (206) 
OPLS3e

>  <r_lp_Energy>  (206) 
137.951

>  <b_lp_Chiralities_Consistent>  (206) 
1

>  <s_lp_Variant>  (206) 
60:0-1

>  <s_i_glide_gridfile>  (206) 
pfpi4k_grid

>  <i_i_glide_lignum>  (206) 
43

>  <i_i_glide_rotatable_bonds>  (206) 
5

>  <r_i_docking_score>  (206) 
-2.6219

>  <r_i_glide_ligand_efficiency>  (206) 
-0.0971074

>  <r_i_glide_ligand_efficiency_sa>  (206) 
-0.291322

>  <r_i_glide_ligand_efficiency_ln>  (206) 
-0.610335

>  <r_i_glide_gscore>  (206) 
-2.6219

>  <r_i_glide_lipo>  (206) 
-0.359801

>  <r_i_glide_hbond>  (206) 
-0.16

>  <r_i_glide_metal>  (206) 
-0

>  <r_i_glide_rewards>  (206) 
-0.901244

>  <r_i_glide_evdw>  (206) 
-22.2655

>  <r_i_glide_ecoul>  (206) 
-1.28591

>  <r_i_glide_erotb>  (206) 
0.139199

>  <r_i_glide_esite>  (206) 
-0.0338928

>  <r_i_glide_emodel>  (206) 
-24.7552

>  <r_i_glide_energy>  (206) 
-23.5514

>  <r_i_glide_einternal>  (206) 
2.90584

>  <r_i_glide_intrahb_reward>  (206) 
-0

>  <i_i_glide_confnum>  (206) 
5

>  <i_i_glide_posenum>  (206) 
30

>  <r_i_glide_eff_state_penalty>  (206) 
0

>  <ligand_id>  (206) 
60

>  <original_smiles>  (206) 
CCOC12CC=C3C(CC)C(CC4=C(C1=O)C3(OC)C1NC1CN4CC)C2

>  <smiles>  (206) 
[H]C1=C2C3(OC([H])([H])[H])C4=C(N(C([H])([H])C([H])([H])[H])C([H])([H])C5([H])N([H])C35[H])C([H])([H])C([H])(C([H])([H])C(OC([H])([H])C([H])([H])[H])(C4=O)C1([H])[H])C2([H])C([H])([H])C([H])([H])[H]

$$$$
60:0:2
     RDKit          3D

 59 63  0  0  1  0  0  0  0  0999 V2000
    1.3399   -9.2536    3.6388 C   0  0  0  0  0  0  0  0  0  0  0  0
    2.1051   -8.3130    2.7319 C   0  0  0  0  0  0  0  0  0  0  0  0
    2.8411   -7.3781    3.5578 O   0  0  0  0  0  0  0  0  0  0  0  0
    3.6022   -6.3142    2.9229 C   0  0  2  0  0  0  0  0  0  0  0  0
    4.2138   -5.5346    4.1636 C   0  0  0  0  0  0  0  0  0  0  0  0
    5.3931   -4.6911    3.7715 C   0  0  0  0  0  0  0  0  0  0  0  0
    5.3724   -4.0808    2.5629 C   0  0  0  0  0  0  0  0  0  0  0  0
    6.1621   -4.7971    1.4487 C   0  0  1  0  0  0  0  0  0  0  0  0
    7.6701   -5.1727    1.7372 C   0  0  0  0  0  0  0  0  0  0  0  0
    8.4865   -5.6557    0.5050 C   0  0  0  0  0  0  0  0  0  0  0  0
    5.3831   -6.0940    0.9500 C   0  0  2  0  0  0  0  0  0  0  0  0
    4.3873   -5.8551   -0.2181 C   0  0  0  0  0  0  0  0  0  0  0  0
    3.6658   -4.5406   -0.0086 C   0  0  0  0  0  0  0  0  0  0  0  0
    3.3268   -4.2594    1.2767 C   0  0  0  0  0  0  0  0  0  0  0  0
    2.7067   -5.3834    2.0861 C   0  0  0  0  0  0  0  0  0  0  0  0
    1.4730   -5.5015    2.0687 O   0  0  0  0  0  0  0  0  0  0  0  0
    4.1083   -3.2432    2.0993 C   0  0  1  0  0  0  0  0  0  0  0  0
    3.4067   -2.7885    3.2660 O   0  0  0  0  0  0  0  0  0  0  0  0
    2.0020   -2.3978    3.1700 C   0  0  0  0  0  0  0  0  0  0  0  0
    4.6741   -1.9602    1.3912 C   0  0  2  0  0  0  0  0  0  0  0  0
    3.7239   -0.8519    1.2405 N   0  0  0  0  0  0  0  0  0  0  0  0
    4.2214   -1.4445    0.0278 C   0  0  2  0  0  0  0  0  0  0  0  0
    3.2443   -2.2740   -0.7237 C   0  0  0  0  0  0  0  0  0  0  0  0
    3.9190   -3.5454   -0.9623 N   0  0  0  0  0  0  0  0  0  0  0  0
    4.8229   -3.5248   -2.1193 C   0  0  0  0  0  0  0  0  0  0  0  0
    6.3037   -3.2210   -1.7430 C   0  0  0  0  0  0  0  0  0  0  0  0
    4.7567   -6.9768    2.0611 C   0  0  0  0  0  0  0  0  0  0  0  0
    0.8461   -9.9963    3.0104 H   0  0  0  0  0  0  0  0  0  0  0  0
    0.5848   -8.7432    4.2372 H   0  0  0  0  0  0  0  0  0  0  0  0
    2.0374   -9.7761    4.2899 H   0  0  0  0  0  0  0  0  0  0  0  0
    2.7587   -8.9267    2.1334 H   0  0  0  0  0  0  0  0  0  0  0  0
    1.3977   -7.8486    2.0567 H   0  0  0  0  0  0  0  0  0  0  0  0
    3.4836   -4.8818    4.6474 H   0  0  0  0  0  0  0  0  0  0  0  0
    4.5668   -6.2432    4.9195 H   0  0  0  0  0  0  0  0  0  0  0  0
    6.2699   -5.2752    3.9475 H   0  0  0  0  0  0  0  0  0  0  0  0
    6.1758   -3.9943    0.7134 H   0  0  0  0  0  0  0  0  0  0  0  0
    8.1549   -4.2807    2.0847 H   0  0  0  0  0  0  0  0  0  0  0  0
    7.8012   -5.9241    2.5159 H   0  0  0  0  0  0  0  0  0  0  0  0
    9.5018   -5.8683    0.8034 H   0  0  0  0  0  0  0  0  0  0  0  0
    8.5433   -4.9002   -0.2768 H   0  0  0  0  0  0  0  0  0  0  0  0
    8.1276   -6.5859    0.0713 H   0  0  0  0  0  0  0  0  0  0  0  0
    6.0681   -6.8146    0.5204 H   0  0  0  0  0  0  0  0  0  0  0  0
    4.9550   -5.8829   -1.1458 H   0  0  0  0  0  0  0  0  0  0  0  0
    3.6675   -6.6677   -0.3111 H   0  0  0  0  0  0  0  0  0  0  0  0
    1.6958   -1.9890    4.1369 H   0  0  0  0  0  0  0  0  0  0  0  0
    1.3468   -3.2262    2.9740 H   0  0  0  0  0  0  0  0  0  0  0  0
    1.7927   -1.6726    2.4016 H   0  0  0  0  0  0  0  0  0  0  0  0
    5.6359   -1.5839    1.7384 H   0  0  0  0  0  0  0  0  0  0  0  0
    4.2050    0.0084    1.3651 H   0  0  0  0  0  0  0  0  0  0  0  0
    4.8234   -0.7333   -0.5481 H   0  0  0  0  0  0  0  0  0  0  0  0
    2.3214   -2.4057   -0.1619 H   0  0  0  0  0  0  0  0  0  0  0  0
    2.9729   -1.8022   -1.6546 H   0  0  0  0  0  0  0  0  0  0  0  0
    4.7766   -4.4622   -2.6521 H   0  0  0  0  0  0  0  0  0  0  0  0
    4.4443   -2.8085   -2.8352 H   0  0  0  0  0  0  0  0  0  0  0  0
    6.9139   -2.9806   -2.6319 H   0  0  0  0  0  0  0  0  0  0  0  0
    6.7086   -4.0904   -1.2265 H   0  0  0  0  0  0  0  0  0  0  0  0
    6.4024   -2.3900   -1.0393 H   0  0  0  0  0  0  0  0  0  0  0  0
    5.5217   -7.3529    2.7473 H   0  0  0  0  0  0  0  0  0  0  0  0
    4.3996   -7.8394    1.5142 H   0  0  0  0  0  0  0  0  0  0  0  0
  1  2  1  0
  1 28  1  0
  1 29  1  0
  1 30  1  0
  2  3  1  0
  2 31  1  0
  2 32  1  0
  4  3  1  1
  4 15  1  0
  4 27  1  0
  4  5  1  0
  5  6  1  0
  5 33  1  0
  5 34  1  0
  6  7  2  0
  6 35  1  0
  7 17  1  0
  7  8  1  0
  8  9  1  0
  8 11  1  0
  8 36  1  6
  9 10  1  0
  9 37  1  0
  9 38  1  0
 10 39  1  0
 10 40  1  0
 10 41  1  0
 11 12  1  0
 11 27  1  0
 11 42  1  6
 12 13  1  0
 12 43  1  0
 12 44  1  0
 13 24  1  0
 13 14  2  0
 14 15  1  0
 14 17  1  0
 15 16  2  0
 17 18  1  1
 17 20  1  0
 18 19  1  0
 19 45  1  0
 19 46  1  0
 19 47  1  0
 20 22  1  0
 20 21  1  0
 20 48  1  6
 21 22  1  0
 21 49  1  0
 22 23  1  0
 22 50  1  6
 23 24  1  0
 23 51  1  0
 23 52  1  0
 24 25  1  0
 25 26  1  0
 25 53  1  0
 25 54  1  0
 26 55  1  0
 26 56  1  0
 26 57  1  0
 27 58  1  0
 27 59  1  0
M  END
>  <i_m_ct_stereo_status>  (207) 
1

>  <s_m_source_file>  (207) 
/var/tmp/pbs.5076255.sched01/tmp7w47f283/46ruht8ay8.sdf

>  <i_m_source_file_index>  (207) 
43

>  <i_lp_mmshare_version>  (207) 
48012

>  <i_f3d_flags>  (207) 
0

>  <s_epik_input>  (207) 
W0NIM11bQ0gyXU9bQ0BdMTJbQ0gyXVtDSF09QzNbQ0BdNChPW0NIM10pQyhDMT1PKT1DKFtDSDJdW0NASF0oW0NIMl0yKVtDQEBIXTNbQ0gyXVtDSDNdKU4oW0NIMl1bQ0gzXSlbQ0gyXVtDQEBIXTVbQ0BIXTRbTkhdNQ==

>  <s_epik_cmdline>  (207) 
J2VwaWtfcHl0aG9uJywgJy1waHQnLCAnMi4wJywgJy1waCcsICc3LjAnLCAnLXRuJywgJzgnLCAnLW1hJywgJzIwMCcsICctaW1hZScsICc8aW5maWxlLm1hZT4nLCAnLW9tYWUnLCAnPG91dGZpbGUubWFlPic=

>  <r_epik_Ionization_Penalty>  (207) 
0.0104028

>  <r_epik_Ionization_Penalty_Charging>  (207) 
0

>  <r_epik_Ionization_Penalty_Neutral>  (207) 
0.0104028

>  <r_epik_State_Penalty>  (207) 
0.00792839

>  <r_epik_Charging_Adjusted_Penalty>  (207) 
0.00792839

>  <i_epik_Tot_Q>  (207) 
0

>  <i_epik_Tot_abs_Q>  (207) 
0

>  <s_lp_Force_Field>  (207) 
OPLS3e

>  <r_lp_Energy>  (207) 
137.951

>  <b_lp_Chiralities_Consistent>  (207) 
1

>  <s_lp_Variant>  (207) 
60:0-1

>  <s_i_glide_gridfile>  (207) 
pfpi4k_grid

>  <i_i_glide_lignum>  (207) 
43

>  <i_i_glide_rotatable_bonds>  (207) 
5

>  <r_i_docking_score>  (207) 
-2.48134

>  <r_i_glide_ligand_efficiency>  (207) 
-0.0919013

>  <r_i_glide_ligand_efficiency_sa>  (207) 
-0.275704

>  <r_i_glide_ligand_efficiency_ln>  (207) 
-0.577614

>  <r_i_glide_gscore>  (207) 
-2.48134

>  <r_i_glide_lipo>  (207) 
-0.512755

>  <r_i_glide_hbond>  (207) 
-0.0468698

>  <r_i_glide_metal>  (207) 
-0

>  <r_i_glide_rewards>  (207) 
-0.869311

>  <r_i_glide_evdw>  (207) 
-20.3461

>  <r_i_glide_ecoul>  (207) 
-1.08799

>  <r_i_glide_erotb>  (207) 
0.139199

>  <r_i_glide_esite>  (207) 
-0.0110936

>  <r_i_glide_emodel>  (207) 
-19.04

>  <r_i_glide_energy>  (207) 
-21.4341

>  <r_i_glide_einternal>  (207) 
7.6569

>  <r_i_glide_intrahb_reward>  (207) 
-0

>  <i_i_glide_confnum>  (207) 
3

>  <i_i_glide_posenum>  (207) 
16

>  <r_i_glide_eff_state_penalty>  (207) 
0

>  <ligand_id>  (207) 
60

>  <original_smiles>  (207) 
CCOC12CC=C3C(CC)C(CC4=C(C1=O)C3(OC)C1NC1CN4CC)C2

>  <smiles>  (207) 
[H]C1=C2C3(OC([H])([H])[H])C4=C(N(C([H])([H])C([H])([H])[H])C([H])([H])C5([H])N([H])C35[H])C([H])([H])C([H])(C([H])([H])C(OC([H])([H])C([H])([H])[H])(C4=O)C1([H])[H])C2([H])C([H])([H])C([H])([H])[H]

$$$$
60:1:0
     RDKit          3D

 60 64  0  0  1  0  0  0  0  0999 V2000
    2.9702  -10.5693    2.9613 C   0  0  0  0  0  0  0  0  0  0  0  0
    2.8913   -9.0982    2.5613 C   0  0  0  0  0  0  0  0  0  0  0  0
    4.0448   -8.3953    3.0415 O   0  0  0  0  0  0  0  0  0  0  0  0
    4.1758   -6.9781    2.8559 C   0  0  2  0  0  0  0  0  0  0  0  0
    2.8497   -6.3491    3.4049 C   0  0  0  0  0  0  0  0  0  0  0  0
    2.9772   -4.8640    3.7709 C   0  0  0  0  0  0  0  0  0  0  0  0
    3.7492   -4.1473    2.9442 C   0  0  0  0  0  0  0  0  0  0  0  0
    5.1867   -3.9041    3.5062 C   0  0  1  0  0  0  0  0  0  0  0  0
    5.2587   -3.3155    4.9619 C   0  0  0  0  0  0  0  0  0  0  0  0
    5.2473   -4.2926    6.1852 C   0  0  0  0  0  0  0  0  0  0  0  0
    6.1244   -5.1808    3.3330 C   0  0  2  0  0  0  0  0  0  0  0  0
    6.8984   -5.2685    1.9612 C   0  0  0  0  0  0  0  0  0  0  0  0
    5.9655   -4.7963    0.8278 C   0  0  0  0  0  0  0  0  0  0  0  0
    4.6793   -5.2323    0.9316 C   0  0  0  0  0  0  0  0  0  0  0  0
    4.4131   -6.6347    1.3485 C   0  0  0  0  0  0  0  0  0  0  0  0
    4.4696   -7.5051    0.4932 O   0  0  0  0  0  0  0  0  0  0  0  0
    3.5783   -4.2049    1.3905 C   0  0  1  0  0  0  0  0  0  0  0  0
    2.2322   -4.6771    1.0661 O   0  0  0  0  0  0  0  0  0  0  0  0
    1.9423   -5.2900   -0.1940 C   0  0  0  0  0  0  0  0  0  0  0  0
    3.6073   -2.7294    0.8745 C   0  0  2  0  0  0  0  0  0  0  0  0
    3.1189   -2.4802   -0.4900 N   0  0  0  0  0  0  0  0  0  0  0  0
    4.5094   -2.2203   -0.2090 C   0  0  2  0  0  0  0  0  0  0  0  0
    5.4563   -3.1830   -0.8768 C   0  0  0  0  0  0  0  0  0  0  0  0
    6.3713   -3.6527    0.1376 N   0  0  0  0  0  0  0  0  0  0  0  0
    7.3446   -2.6565    0.5989 C   0  0  0  0  0  0  0  0  0  0  0  0
    8.7926   -2.9250    0.1198 C   0  0  0  0  0  0  0  0  0  0  0  0
    5.4364   -6.5534    3.6728 C   0  0  0  0  0  0  0  0  0  0  0  0
    2.0518  -11.0878    2.6783 H   0  0  0  0  0  0  0  0  0  0  0  0
    3.0776  -10.6563    4.0420 H   0  0  0  0  0  0  0  0  0  0  0  0
    3.8086  -11.0724    2.4823 H   0  0  0  0  0  0  0  0  0  0  0  0
    2.7501   -9.0194    1.4845 H   0  0  0  0  0  0  0  0  0  0  0  0
    1.9748   -8.7337    3.0155 H   0  0  0  0  0  0  0  0  0  0  0  0
    2.0046   -6.5023    2.7343 H   0  0  0  0  0  0  0  0  0  0  0  0
    2.6164   -6.8575    4.3392 H   0  0  0  0  0  0  0  0  0  0  0  0
    3.1582   -4.7797    4.8287 H   0  0  0  0  0  0  0  0  0  0  0  0
    5.5923   -3.0990    2.8975 H   0  0  0  0  0  0  0  0  0  0  0  0
    6.2128   -2.7688    5.0344 H   0  0  0  0  0  0  0  0  0  0  0  0
    4.4565   -2.5714    5.0846 H   0  0  0  0  0  0  0  0  0  0  0  0
    5.3721   -3.7090    7.1244 H   0  0  0  0  0  0  0  0  0  0  0  0
    6.1637   -4.9095    6.1750 H   0  0  0  0  0  0  0  0  0  0  0  0
    4.3434   -4.9115    6.1922 H   0  0  0  0  0  0  0  0  0  0  0  0
    6.9282   -5.0874    4.0556 H   0  0  0  0  0  0  0  0  0  0  0  0
    7.8186   -4.6831    2.0216 H   0  0  0  0  0  0  0  0  0  0  0  0
    7.2517   -6.2955    1.7859 H   0  0  0  0  0  0  0  0  0  0  0  0
    0.8675   -5.4862   -0.2898 H   0  0  0  0  0  0  0  0  0  0  0  0
    2.4493   -6.2558   -0.2676 H   0  0  0  0  0  0  0  0  0  0  0  0
    2.2358   -4.6644   -1.0371 H   0  0  0  0  0  0  0  0  0  0  0  0
    3.1555   -1.9802    1.5232 H   0  0  0  0  0  0  0  0  0  0  0  0
    2.9040   -3.3508   -0.9452 H   0  0  0  0  0  0  0  0  0  0  0  0
    4.6927   -1.1547   -0.2892 H   0  0  0  0  0  0  0  0  0  0  0  0
    4.9229   -4.0215   -1.3489 H   0  0  0  0  0  0  0  0  0  0  0  0
    5.9941   -2.6818   -1.6756 H   0  0  0  0  0  0  0  0  0  0  0  0
    7.0693   -1.6578    0.2650 H   0  0  0  0  0  0  0  0  0  0  0  0
    7.2830   -2.5998    1.6737 H   0  0  0  0  0  0  0  0  0  0  0  0
    9.4536   -2.2199    0.6143 H   0  0  0  0  0  0  0  0  0  0  0  0
    8.9431   -2.7818   -0.9583 H   0  0  0  0  0  0  0  0  0  0  0  0
    9.1634   -3.9193    0.3764 H   0  0  0  0  0  0  0  0  0  0  0  0
    5.1627   -6.6156    4.7255 H   0  0  0  0  0  0  0  0  0  0  0  0
    6.1821   -7.3386    3.5559 H   0  0  0  0  0  0  0  0  0  0  0  0
    2.4794   -1.7002   -0.5029 H   0  0  0  0  0  0  0  0  0  0  0  0
  1  2  1  0
  1 28  1  0
  1 29  1  0
  1 30  1  0
  2  3  1  0
  2 31  1  0
  2 32  1  0
  4  3  1  6
  4 15  1  0
  4 27  1  0
  4  5  1  0
  5  6  1  0
  5 33  1  0
  5 34  1  0
  6  7  2  0
  6 35  1  0
  7 17  1  0
  7  8  1  0
  8  9  1  0
  8 11  1  0
  8 36  1  6
  9 10  1  0
  9 37  1  0
  9 38  1  0
 10 39  1  0
 10 40  1  0
 10 41  1  0
 11 12  1  0
 11 27  1  0
 11 42  1  1
 12 13  1  0
 12 43  1  0
 12 44  1  0
 13 24  1  0
 13 14  2  0
 14 15  1  0
 14 17  1  0
 15 16  2  0
 17 18  1  1
 17 20  1  0
 18 19  1  0
 19 45  1  0
 19 46  1  0
 19 47  1  0
 20 22  1  0
 20 21  1  0
 20 48  1  1
 21 22  1  0
 21 49  1  0
 21 60  1  0
 22 23  1  0
 22 50  1  1
 23 24  1  0
 23 51  1  0
 23 52  1  0
 24 25  1  0
 25 26  1  0
 25 53  1  0
 25 54  1  0
 26 55  1  0
 26 56  1  0
 26 57  1  0
 27 58  1  0
 27 59  1  0
M  CHG  1  21   1
M  END
>  <i_m_ct_stereo_status>  (208) 
1

>  <s_m_source_file>  (208) 
/var/tmp/pbs.5076255.sched01/tmp7w47f283/46ruht8ay8.sdf

>  <i_m_source_file_index>  (208) 
44

>  <i_lp_mmshare_version>  (208) 
48012

>  <i_f3d_flags>  (208) 
0

>  <s_epik_input>  (208) 
W0NIM11bQ0gyXU9bQ0BdMTJbQ0gyXVtDSF09QzNbQ0BdNChPW0NIM10pQyhDMT1PKT1DKFtDSDJdW0NASF0oW0NIMl0yKVtDQEBIXTNbQ0gyXVtDSDNdKU4oW0NIMl1bQ0gzXSlbQ0gyXVtDQEBIXTVbQ0BIXTRbTkhdNQ==

>  <s_epik_cmdline>  (208) 
J2VwaWtfcHl0aG9uJywgJy1waHQnLCAnMi4wJywgJy1waCcsICc3LjAnLCAnLXRuJywgJzgnLCAnLW1hJywgJzIwMCcsICctaW1hZScsICc8aW5maWxlLm1hZT4nLCAnLW9tYWUnLCAnPG91dGZpbGUubWFlPic=

>  <r_epik_Ionization_Penalty>  (208) 
2.40189

>  <r_epik_Ionization_Penalty_Charging>  (208) 
2.40189

>  <r_epik_Ionization_Penalty_Neutral>  (208) 
1.8607e-07

>  <r_epik_State_Penalty>  (208) 
2.55987

>  <r_epik_Charging_Adjusted_Penalty>  (208) 
4.96176

>  <i_epik_Tot_Q>  (208) 
1

>  <i_epik_Tot_abs_Q>  (208) 
1

>  <s_lp_Force_Field>  (208) 
OPLS3e

>  <r_lp_Energy>  (208) 
139.508

>  <b_lp_Chiralities_Consistent>  (208) 
1

>  <s_lp_Variant>  (208) 
60:0-2

>  <s_i_glide_gridfile>  (208) 
pfpi4k_grid

>  <i_i_glide_lignum>  (208) 
44

>  <i_i_glide_rotatable_bonds>  (208) 
5

>  <r_i_docking_score>  (208) 
-3.55237

>  <r_i_glide_ligand_efficiency>  (208) 
-0.131569

>  <r_i_glide_ligand_efficiency_sa>  (208) 
-0.394708

>  <r_i_glide_ligand_efficiency_ln>  (208) 
-0.826934

>  <r_i_glide_gscore>  (208) 
-3.55237

>  <r_i_glide_lipo>  (208) 
-0.455158

>  <r_i_glide_hbond>  (208) 
-0.21061

>  <r_i_glide_metal>  (208) 
-0

>  <r_i_glide_rewards>  (208) 
-1.09324

>  <r_i_glide_evdw>  (208) 
-18.413

>  <r_i_glide_ecoul>  (208) 
-6.30128

>  <r_i_glide_erotb>  (208) 
0.138528

>  <r_i_glide_esite>  (208) 
-0.0660542

>  <r_i_glide_emodel>  (208) 
-26.5328

>  <r_i_glide_energy>  (208) 
-24.7143

>  <r_i_glide_einternal>  (208) 
8.91375

>  <r_i_glide_intrahb_reward>  (208) 
-0

>  <i_i_glide_confnum>  (208) 
2

>  <i_i_glide_posenum>  (208) 
18

>  <r_i_glide_eff_state_penalty>  (208) 
0

>  <ligand_id>  (208) 
60

>  <original_smiles>  (208) 
CCOC12CC=C3C(CC)C(CC4=C(C1=O)C3(OC)C1NC1CN4CC)C2

>  <smiles>  (208) 
[H]C1=C2C3(OC([H])([H])[H])C4=C(N(C([H])([H])C([H])([H])[H])C([H])([H])C5([H])C3([H])[N+]5([H])[H])C([H])([H])C([H])(C([H])([H])C(OC([H])([H])C([H])([H])[H])(C4=O)C1([H])[H])C2([H])C([H])([H])C([H])([H])[H]

$$$$
60:1:1
     RDKit          3D

 60 64  0  0  1  0  0  0  0  0999 V2000
    1.8741   -7.3603    4.4092 C   0  0  0  0  0  0  0  0  0  0  0  0
    1.8656   -6.1779    3.4490 C   0  0  0  0  0  0  0  0  0  0  0  0
    3.1298   -5.4984    3.5037 O   0  0  0  0  0  0  0  0  0  0  0  0
    3.4089   -4.4522    2.5521 C   0  0  2  0  0  0  0  0  0  0  0  0
    2.2044   -3.4765    2.5699 C   0  0  0  0  0  0  0  0  0  0  0  0
    2.4366   -2.1312    1.9265 C   0  0  0  0  0  0  0  0  0  0  0  0
    3.3362   -2.0630    0.9364 C   0  0  0  0  0  0  0  0  0  0  0  0
    4.7705   -1.6883    1.3916 C   0  0  1  0  0  0  0  0  0  0  0  0
    4.9056   -0.3777    2.2392 C   0  0  0  0  0  0  0  0  0  0  0  0
    4.8842   -0.4184    3.8029 C   0  0  0  0  0  0  0  0  0  0  0  0
    5.5170   -2.9158    2.0494 C   0  0  2  0  0  0  0  0  0  0  0  0
    6.2964   -3.8389    1.0780 C   0  0  0  0  0  0  0  0  0  0  0  0
    5.4625   -4.0384   -0.1855 C   0  0  0  0  0  0  0  0  0  0  0  0
    4.1381   -4.2007   -0.0020 C   0  0  0  0  0  0  0  0  0  0  0  0
    3.6819   -5.0666    1.1391 C   0  0  0  0  0  0  0  0  0  0  0  0
    3.6069   -6.2814    0.9590 O   0  0  0  0  0  0  0  0  0  0  0  0
    3.1988   -3.0122   -0.3027 C   0  0  1  0  0  0  0  0  0  0  0  0
    1.8417   -3.4641   -0.3977 O   0  0  0  0  0  0  0  0  0  0  0  0
    1.3998   -4.6198   -1.1169 C   0  0  0  0  0  0  0  0  0  0  0  0
    3.4068   -2.0941   -1.5426 C   0  0  2  0  0  0  0  0  0  0  0  0
    2.9698   -2.6342   -2.8298 N   0  0  0  0  0  0  0  0  0  0  0  0
    4.3686   -2.3972   -2.6605 C   0  0  2  0  0  0  0  0  0  0  0  0
    5.1760   -3.6600   -2.5629 C   0  0  0  0  0  0  0  0  0  0  0  0
    6.0263   -3.5648   -1.3809 N   0  0  0  0  0  0  0  0  0  0  0  0
    7.1329   -2.6282   -1.5173 C   0  0  0  0  0  0  0  0  0  0  0  0
    8.5517   -3.1858   -1.2278 C   0  0  0  0  0  0  0  0  0  0  0  0
    4.6976   -3.7541    3.0879 C   0  0  0  0  0  0  0  0  0  0  0  0
    0.9032   -7.8555    4.4145 H   0  0  0  0  0  0  0  0  0  0  0  0
    2.0834   -7.0271    5.4250 H   0  0  0  0  0  0  0  0  0  0  0  0
    2.6211   -8.1007    4.1232 H   0  0  0  0  0  0  0  0  0  0  0  0
    1.6139   -6.5297    2.4520 H   0  0  0  0  0  0  0  0  0  0  0  0
    1.0613   -5.5128    3.7523 H   0  0  0  0  0  0  0  0  0  0  0  0
    1.3968   -3.9659    2.0620 H   0  0  0  0  0  0  0  0  0  0  0  0
    1.9033   -3.3138    3.6011 H   0  0  0  0  0  0  0  0  0  0  0  0
    2.5412   -1.4422    2.7214 H   0  0  0  0  0  0  0  0  0  0  0  0
    5.2919   -1.4405    0.4681 H   0  0  0  0  0  0  0  0  0  0  0  0
    5.8906    0.0053    1.9918 H   0  0  0  0  0  0  0  0  0  0  0  0
    4.2428    0.3888    1.8421 H   0  0  0  0  0  0  0  0  0  0  0  0
    5.0728    0.5823    4.2115 H   0  0  0  0  0  0  0  0  0  0  0  0
    5.7012   -1.0327    4.1941 H   0  0  0  0  0  0  0  0  0  0  0  0
    3.9546   -0.7802    4.2391 H   0  0  0  0  0  0  0  0  0  0  0  0
    6.3154   -2.4736    2.6216 H   0  0  0  0  0  0  0  0  0  0  0  0
    7.1955   -3.2792    0.9199 H   0  0  0  0  0  0  0  0  0  0  0  0
    6.5279   -4.8124    1.5371 H   0  0  0  0  0  0  0  0  0  0  0  0
    0.2995   -4.6852   -1.1173 H   0  0  0  0  0  0  0  0  0  0  0  0
    1.7702   -5.5560   -0.6931 H   0  0  0  0  0  0  0  0  0  0  0  0
    1.6351   -4.5762   -2.1676 H   0  0  0  0  0  0  0  0  0  0  0  0
    3.0201   -1.0703   -1.4952 H   0  0  0  0  0  0  0  0  0  0  0  0
    2.6057   -3.5742   -2.6948 H   0  0  0  0  0  0  0  0  0  0  0  0
    4.6752   -1.6063   -3.3425 H   0  0  0  0  0  0  0  0  0  0  0  0
    4.5518   -4.5512   -2.5060 H   0  0  0  0  0  0  0  0  0  0  0  0
    5.7593   -3.7821   -3.4642 H   0  0  0  0  0  0  0  0  0  0  0  0
    7.1399   -2.2722   -2.5445 H   0  0  0  0  0  0  0  0  0  0  0  0
    6.8756   -1.7441   -0.9273 H   0  0  0  0  0  0  0  0  0  0  0  0
    9.1541   -2.2872   -1.1905 H   0  0  0  0  0  0  0  0  0  0  0  0
    8.9303   -3.8286   -2.0328 H   0  0  0  0  0  0  0  0  0  0  0  0
    8.7711   -3.6709   -0.2752 H   0  0  0  0  0  0  0  0  0  0  0  0
    4.4229   -3.1634    3.9662 H   0  0  0  0  0  0  0  0  0  0  0  0
    5.3573   -4.5347    3.4807 H   0  0  0  0  0  0  0  0  0  0  0  0
    2.4402   -1.9183   -3.3202 H   0  0  0  0  0  0  0  0  0  0  0  0
  1  2  1  0
  1 28  1  0
  1 29  1  0
  1 30  1  0
  2  3  1  0
  2 31  1  0
  2 32  1  0
  4  3  1  1
  4 15  1  0
  4 27  1  0
  4  5  1  0
  5  6  1  0
  5 33  1  0
  5 34  1  0
  6  7  2  0
  6 35  1  0
  7 17  1  0
  7  8  1  0
  8  9  1  0
  8 11  1  0
  8 36  1  6
  9 10  1  0
  9 37  1  0
  9 38  1  0
 10 39  1  0
 10 40  1  0
 10 41  1  0
 11 12  1  0
 11 27  1  0
 11 42  1  1
 12 13  1  0
 12 43  1  0
 12 44  1  0
 13 24  1  0
 13 14  2  0
 14 15  1  0
 14 17  1  0
 15 16  2  0
 17 18  1  6
 17 20  1  0
 18 19  1  0
 19 45  1  0
 19 46  1  0
 19 47  1  0
 20 22  1  0
 20 21  1  0
 20 48  1  1
 21 22  1  0
 21 49  1  0
 21 60  1  0
 22 23  1  0
 22 50  1  6
 23 24  1  0
 23 51  1  0
 23 52  1  0
 24 25  1  0
 25 26  1  0
 25 53  1  0
 25 54  1  0
 26 55  1  0
 26 56  1  0
 26 57  1  0
 27 58  1  0
 27 59  1  0
M  CHG  1  21   1
M  END
>  <i_m_ct_stereo_status>  (209) 
1

>  <s_m_source_file>  (209) 
/var/tmp/pbs.5076255.sched01/tmp7w47f283/46ruht8ay8.sdf

>  <i_m_source_file_index>  (209) 
44

>  <i_lp_mmshare_version>  (209) 
48012

>  <i_f3d_flags>  (209) 
0

>  <s_epik_input>  (209) 
W0NIM11bQ0gyXU9bQ0BdMTJbQ0gyXVtDSF09QzNbQ0BdNChPW0NIM10pQyhDMT1PKT1DKFtDSDJdW0NASF0oW0NIMl0yKVtDQEBIXTNbQ0gyXVtDSDNdKU4oW0NIMl1bQ0gzXSlbQ0gyXVtDQEBIXTVbQ0BIXTRbTkhdNQ==

>  <s_epik_cmdline>  (209) 
J2VwaWtfcHl0aG9uJywgJy1waHQnLCAnMi4wJywgJy1waCcsICc3LjAnLCAnLXRuJywgJzgnLCAnLW1hJywgJzIwMCcsICctaW1hZScsICc8aW5maWxlLm1hZT4nLCAnLW9tYWUnLCAnPG91dGZpbGUubWFlPic=

>  <r_epik_Ionization_Penalty>  (209) 
2.40189

>  <r_epik_Ionization_Penalty_Charging>  (209) 
2.40189

>  <r_epik_Ionization_Penalty_Neutral>  (209) 
1.8607e-07

>  <r_epik_State_Penalty>  (209) 
2.55987

>  <r_epik_Charging_Adjusted_Penalty>  (209) 
4.96176

>  <i_epik_Tot_Q>  (209) 
1

>  <i_epik_Tot_abs_Q>  (209) 
1

>  <s_lp_Force_Field>  (209) 
OPLS3e

>  <r_lp_Energy>  (209) 
139.508

>  <b_lp_Chiralities_Consistent>  (209) 
1

>  <s_lp_Variant>  (209) 
60:0-2

>  <s_i_glide_gridfile>  (209) 
pfpi4k_grid

>  <i_i_glide_lignum>  (209) 
44

>  <i_i_glide_rotatable_bonds>  (209) 
5

>  <r_i_docking_score>  (209) 
-3.20741

>  <r_i_glide_ligand_efficiency>  (209) 
-0.118793

>  <r_i_glide_ligand_efficiency_sa>  (209) 
-0.356379

>  <r_i_glide_ligand_efficiency_ln>  (209) 
-0.746633

>  <r_i_glide_gscore>  (209) 
-3.20741

>  <r_i_glide_lipo>  (209) 
-0.708612

>  <r_i_glide_hbond>  (209) 
-0.0349553

>  <r_i_glide_metal>  (209) 
-0

>  <r_i_glide_rewards>  (209) 
-1.02986

>  <r_i_glide_evdw>  (209) 
-17.2576

>  <r_i_glide_ecoul>  (209) 
-4.63293

>  <r_i_glide_erotb>  (209) 
0.138528

>  <r_i_glide_esite>  (209) 
-0.0146972

>  <r_i_glide_emodel>  (209) 
-20.9535

>  <r_i_glide_energy>  (209) 
-21.8905

>  <r_i_glide_einternal>  (209) 
10.3236

>  <r_i_glide_intrahb_reward>  (209) 
-0

>  <i_i_glide_confnum>  (209) 
2

>  <i_i_glide_posenum>  (209) 
10

>  <r_i_glide_eff_state_penalty>  (209) 
0

>  <ligand_id>  (209) 
60

>  <original_smiles>  (209) 
CCOC12CC=C3C(CC)C(CC4=C(C1=O)C3(OC)C1NC1CN4CC)C2

>  <smiles>  (209) 
[H]C1=C2C3(OC([H])([H])[H])C4=C(N(C([H])([H])C([H])([H])[H])C([H])([H])C5([H])C3([H])[N+]5([H])[H])C([H])([H])C([H])(C([H])([H])C(OC([H])([H])C([H])([H])[H])(C4=O)C1([H])[H])C2([H])C([H])([H])C([H])([H])[H]

$$$$
60:1:2
     RDKit          3D

 60 64  0  0  1  0  0  0  0  0999 V2000
   -0.5935   -3.5550    9.5603 C   0  0  0  0  0  0  0  0  0  0  0  0
    0.0659   -2.2448    9.1182 C   0  0  0  0  0  0  0  0  0  0  0  0
   -0.1736   -2.0827    7.7187 O   0  0  0  0  0  0  0  0  0  0  0  0
    0.4859   -1.0241    6.9742 C   0  0  2  0  0  0  0  0  0  0  0  0
   -0.2446    0.3132    7.3260 C   0  0  0  0  0  0  0  0  0  0  0  0
    0.5976    1.4970    6.9042 C   0  0  0  0  0  0  0  0  0  0  0  0
    1.2640    1.4343    5.7374 C   0  0  0  0  0  0  0  0  0  0  0  0
    2.7780    1.1458    5.8820 C   0  0  1  0  0  0  0  0  0  0  0  0
    3.5425    2.1116    6.8330 C   0  0  0  0  0  0  0  0  0  0  0  0
    3.4643    3.5913    6.4330 C   0  0  0  0  0  0  0  0  0  0  0  0
    3.0116   -0.3684    6.3006 C   0  0  2  0  0  0  0  0  0  0  0  0
    3.1729   -1.3509    5.1007 C   0  0  0  0  0  0  0  0  0  0  0  0
    2.2049   -0.9680    3.9961 C   0  0  0  0  0  0  0  0  0  0  0  0
    0.9727   -0.5434    4.3962 C   0  0  0  0  0  0  0  0  0  0  0  0
    0.2908   -1.3685    5.4632 C   0  0  0  0  0  0  0  0  0  0  0  0
   -0.4817   -2.2779    5.1613 O   0  0  0  0  0  0  0  0  0  0  0  0
    0.5672    0.9353    4.4218 C   0  0  1  0  0  0  0  0  0  0  0  0
   -0.8642    1.0091    4.4933 O   0  0  0  0  0  0  0  0  0  0  0  0
   -1.4970    2.2823    4.6433 C   0  0  0  0  0  0  0  0  0  0  0  0
    1.0119    1.8284    3.2373 C   0  0  2  0  0  0  0  0  0  0  0  0
    0.2291    1.6802    2.0235 N   0  0  0  0  0  0  0  0  0  0  0  0
    1.6106    1.3273    1.9512 C   0  0  2  0  0  0  0  0  0  0  0  0
    1.8410   -0.1384    1.7388 C   0  0  0  0  0  0  0  0  0  0  0  0
    2.7802   -0.5569    2.7631 N   0  0  0  0  0  0  0  0  0  0  0  0
    4.1779   -0.1248    2.5574 C   0  0  0  0  0  0  0  0  0  0  0  0
    4.7157   -0.2059    1.1212 C   0  0  0  0  0  0  0  0  0  0  0  0
    2.0126   -0.9764    7.3336 C   0  0  0  0  0  0  0  0  0  0  0  0
   -0.4208   -3.7293   10.6211 H   0  0  0  0  0  0  0  0  0  0  0  0
   -0.1686   -4.4012    9.0194 H   0  0  0  0  0  0  0  0  0  0  0  0
   -1.6679   -3.5587    9.3932 H   0  0  0  0  0  0  0  0  0  0  0  0
   -0.3352   -1.4037    9.6777 H   0  0  0  0  0  0  0  0  0  0  0  0
    1.1214   -2.3141    9.3515 H   0  0  0  0  0  0  0  0  0  0  0  0
   -1.2264    0.3569    6.8605 H   0  0  0  0  0  0  0  0  0  0  0  0
   -0.4060    0.4006    8.3975 H   0  0  0  0  0  0  0  0  0  0  0  0
    1.1587    1.7962    7.7693 H   0  0  0  0  0  0  0  0  0  0  0  0
    3.2427    1.3157    4.9105 H   0  0  0  0  0  0  0  0  0  0  0  0
    3.2406    1.9926    7.8737 H   0  0  0  0  0  0  0  0  0  0  0  0
    4.5991    1.8339    6.8313 H   0  0  0  0  0  0  0  0  0  0  0  0
    4.0790    4.2020    7.0963 H   0  0  0  0  0  0  0  0  0  0  0  0
    2.4447    3.9696    6.4888 H   0  0  0  0  0  0  0  0  0  0  0  0
    3.8331    3.7406    5.4186 H   0  0  0  0  0  0  0  0  0  0  0  0
    3.9811   -0.4098    6.8084 H   0  0  0  0  0  0  0  0  0  0  0  0
    4.2215   -1.3428    4.8282 H   0  0  0  0  0  0  0  0  0  0  0  0
    2.9995   -2.3903    5.3934 H   0  0  0  0  0  0  0  0  0  0  0  0
   -2.5707    2.1283    4.7576 H   0  0  0  0  0  0  0  0  0  0  0  0
   -1.3602    2.9194    3.7724 H   0  0  0  0  0  0  0  0  0  0  0  0
   -1.1539    2.8281    5.5202 H   0  0  0  0  0  0  0  0  0  0  0  0
    1.1336    2.8857    3.4316 H   0  0  0  0  0  0  0  0  0  0  0  0
   -0.4474    0.9393    2.0107 H   0  0  0  0  0  0  0  0  0  0  0  0
    2.1619    2.0289    1.3328 H   0  0  0  0  0  0  0  0  0  0  0  0
    0.9101   -0.7066    1.7878 H   0  0  0  0  0  0  0  0  0  0  0  0
    2.2322   -0.3083    0.7366 H   0  0  0  0  0  0  0  0  0  0  0  0
    4.2921    0.8905    2.9473 H   0  0  0  0  0  0  0  0  0  0  0  0
    4.8623   -0.7574    3.1036 H   0  0  0  0  0  0  0  0  0  0  0  0
    5.7807    0.0426    1.1285 H   0  0  0  0  0  0  0  0  0  0  0  0
    4.2369    0.5127    0.4555 H   0  0  0  0  0  0  0  0  0  0  0  0
    4.6278   -1.2063    0.6947 H   0  0  0  0  0  0  0  0  0  0  0  0
    2.1400   -0.4571    8.2857 H   0  0  0  0  0  0  0  0  0  0  0  0
    2.3501   -2.0000    7.5218 H   0  0  0  0  0  0  0  0  0  0  0  0
    0.0116    2.5877    1.5665 H   0  0  0  0  0  0  0  0  0  0  0  0
  1  2  1  0
  1 28  1  0
  1 29  1  0
  1 30  1  0
  2  3  1  0
  2 31  1  0
  2 32  1  0
  4  3  1  1
  4 15  1  0
  4 27  1  0
  4  5  1  0
  5  6  1  0
  5 33  1  0
  5 34  1  0
  6  7  2  0
  6 35  1  0
  7 17  1  0
  7  8  1  0
  8  9  1  0
  8 11  1  0
  8 36  1  6
  9 10  1  0
  9 37  1  0
  9 38  1  0
 10 39  1  0
 10 40  1  0
 10 41  1  0
 11 12  1  0
 11 27  1  0
 11 42  1  1
 12 13  1  0
 12 43  1  0
 12 44  1  0
 13 24  1  0
 13 14  2  0
 14 15  1  0
 14 17  1  0
 15 16  2  0
 17 18  1  1
 17 20  1  0
 18 19  1  0
 19 45  1  0
 19 46  1  0
 19 47  1  0
 20 22  1  0
 20 21  1  0
 20 48  1  1
 21 22  1  0
 21 49  1  0
 21 60  1  0
 22 23  1  0
 22 50  1  6
 23 24  1  0
 23 51  1  0
 23 52  1  0
 24 25  1  0
 25 26  1  0
 25 53  1  0
 25 54  1  0
 26 55  1  0
 26 56  1  0
 26 57  1  0
 27 58  1  0
 27 59  1  0
M  CHG  1  21   1
M  END
>  <i_m_ct_stereo_status>  (210) 
1

>  <s_m_source_file>  (210) 
/var/tmp/pbs.5076255.sched01/tmp7w47f283/46ruht8ay8.sdf

>  <i_m_source_file_index>  (210) 
44

>  <i_lp_mmshare_version>  (210) 
48012

>  <i_f3d_flags>  (210) 
0

>  <s_epik_input>  (210) 
W0NIM11bQ0gyXU9bQ0BdMTJbQ0gyXVtDSF09QzNbQ0BdNChPW0NIM10pQyhDMT1PKT1DKFtDSDJdW0NASF0oW0NIMl0yKVtDQEBIXTNbQ0gyXVtDSDNdKU4oW0NIMl1bQ0gzXSlbQ0gyXVtDQEBIXTVbQ0BIXTRbTkhdNQ==

>  <s_epik_cmdline>  (210) 
J2VwaWtfcHl0aG9uJywgJy1waHQnLCAnMi4wJywgJy1waCcsICc3LjAnLCAnLXRuJywgJzgnLCAnLW1hJywgJzIwMCcsICctaW1hZScsICc8aW5maWxlLm1hZT4nLCAnLW9tYWUnLCAnPG91dGZpbGUubWFlPic=

>  <r_epik_Ionization_Penalty>  (210) 
2.40189

>  <r_epik_Ionization_Penalty_Charging>  (210) 
2.40189

>  <r_epik_Ionization_Penalty_Neutral>  (210) 
1.8607e-07

>  <r_epik_State_Penalty>  (210) 
2.55987

>  <r_epik_Charging_Adjusted_Penalty>  (210) 
4.96176

>  <i_epik_Tot_Q>  (210) 
1

>  <i_epik_Tot_abs_Q>  (210) 
1

>  <s_lp_Force_Field>  (210) 
OPLS3e

>  <r_lp_Energy>  (210) 
139.508

>  <b_lp_Chiralities_Consistent>  (210) 
1

>  <s_lp_Variant>  (210) 
60:0-2

>  <s_i_glide_gridfile>  (210) 
pfpi4k_grid

>  <i_i_glide_lignum>  (210) 
44

>  <i_i_glide_rotatable_bonds>  (210) 
5

>  <r_i_docking_score>  (210) 
-2.8991

>  <r_i_glide_ligand_efficiency>  (210) 
-0.107374

>  <r_i_glide_ligand_efficiency_sa>  (210) 
-0.322122

>  <r_i_glide_ligand_efficiency_ln>  (210) 
-0.674862

>  <r_i_glide_gscore>  (210) 
-2.8991

>  <r_i_glide_lipo>  (210) 
-0.167116

>  <r_i_glide_hbond>  (210) 
-0.279657

>  <r_i_glide_metal>  (210) 
-0

>  <r_i_glide_rewards>  (210) 
-0.862438

>  <r_i_glide_evdw>  (210) 
-16.7669

>  <r_i_glide_ecoul>  (210) 
-5.30507

>  <r_i_glide_erotb>  (210) 
0.138528

>  <r_i_glide_esite>  (210) 
-0.0943079

>  <r_i_glide_emodel>  (210) 
-27.4998

>  <r_i_glide_energy>  (210) 
-22.072

>  <r_i_glide_einternal>  (210) 
1.97866

>  <r_i_glide_intrahb_reward>  (210) 
-0

>  <i_i_glide_confnum>  (210) 
2

>  <i_i_glide_posenum>  (210) 
32

>  <r_i_glide_eff_state_penalty>  (210) 
0

>  <ligand_id>  (210) 
60

>  <original_smiles>  (210) 
CCOC12CC=C3C(CC)C(CC4=C(C1=O)C3(OC)C1NC1CN4CC)C2

>  <smiles>  (210) 
[H]C1=C2C3(OC([H])([H])[H])C4=C(N(C([H])([H])C([H])([H])[H])C([H])([H])C5([H])C3([H])[N+]5([H])[H])C([H])([H])C([H])(C([H])([H])C(OC([H])([H])C([H])([H])[H])(C4=O)C1([H])[H])C2([H])C([H])([H])C([H])([H])[H]

$$$$
61:0:0
     RDKit          3D

 32 34  0  0  1  0  0  0  0  0999 V2000
    0.6394   -8.0929    2.7600 N   0  0  0  0  0  0  0  0  0  0  0  0
    1.6721   -7.2466    2.6752 C   0  0  0  0  0  0  0  0  0  0  0  0
    2.5905   -7.2119    3.6642 N   0  0  0  0  0  0  0  0  0  0  0  0
    3.6156   -6.3596    3.5762 C   0  0  0  0  0  0  0  0  0  0  0  0
    3.8901   -5.4759    2.6013 N   0  0  0  0  0  0  0  0  0  0  0  0
    2.9583   -5.5177    1.6070 C   0  0  0  0  0  0  0  0  0  0  0  0
    1.8320   -6.3770    1.5719 C   0  0  0  0  0  0  0  0  0  0  0  0
    1.1022   -6.1716    0.4227 N   0  0  0  0  0  0  0  0  0  0  0  0
    1.8058   -5.2784   -0.2203 C   0  0  0  0  0  0  0  0  0  0  0  0
    2.8924   -4.7617    0.4532 N   0  0  0  0  0  0  0  0  0  0  0  0
    3.8746   -3.7452   -0.0227 C   0  0  2  0  0  0  0  0  0  0  0  0
    4.1803   -2.8641    1.0185 O   0  0  0  0  0  0  0  0  0  0  0  0
    4.0689   -1.5036    0.5901 C   0  0  1  0  0  0  0  0  0  0  0  0
    5.2487   -0.6674    1.1180 C   0  0  0  0  0  0  0  0  0  0  0  0
    5.0293   -0.2648    2.4529 O   0  0  0  0  0  0  0  0  0  0  0  0
    3.9972   -1.5756   -0.9430 C   0  0  1  0  0  0  0  0  0  0  0  0
    5.3016   -1.6177   -1.5075 O   0  0  0  0  0  0  0  0  0  0  0  0
    3.2757   -2.8932   -1.1418 C   0  0  1  0  0  0  0  0  0  0  0  0
    3.4871   -3.4371   -2.4320 O   0  0  0  0  0  0  0  0  0  0  0  0
    0.5897   -8.7382    3.5331 H   0  0  0  0  0  0  0  0  0  0  0  0
    0.0104   -8.1655    1.9737 H   0  0  0  0  0  0  0  0  0  0  0  0
    4.3165   -6.3823    4.3980 H   0  0  0  0  0  0  0  0  0  0  0  0
    1.4583   -4.9278   -1.1840 H   0  0  0  0  0  0  0  0  0  0  0  0
    4.7640   -4.3104   -0.3015 H   0  0  0  0  0  0  0  0  0  0  0  0
    3.1165   -1.1148    0.9614 H   0  0  0  0  0  0  0  0  0  0  0  0
    6.1887   -1.2158    1.0335 H   0  0  0  0  0  0  0  0  0  0  0  0
    5.3500    0.2364    0.5170 H   0  0  0  0  0  0  0  0  0  0  0  0
    4.2283    0.2400    2.4827 H   0  0  0  0  0  0  0  0  0  0  0  0
    3.4356   -0.7373   -1.3648 H   0  0  0  0  0  0  0  0  0  0  0  0
    5.6792   -2.4508   -1.2691 H   0  0  0  0  0  0  0  0  0  0  0  0
    2.2205   -2.7037   -0.9361 H   0  0  0  0  0  0  0  0  0  0  0  0
    3.1962   -4.3468   -2.4508 H   0  0  0  0  0  0  0  0  0  0  0  0
  1  2  1  0
  1 21  1  0
  1 20  1  0
  2  3  2  0
  2  7  1  0
  3  4  1  0
  4 22  1  0
  4  5  2  0
  5  6  1  0
  6 10  1  0
  6  7  2  0
  7  8  1  0
  8  9  2  0
  9 23  1  0
  9 10  1  0
 10 11  1  0
 11 18  1  0
 11 12  1  0
 11 24  1  6
 12 13  1  0
 13 14  1  0
 13 16  1  0
 13 25  1  1
 14 15  1  0
 14 26  1  0
 14 27  1  0
 15 28  1  0
 16 17  1  0
 16 18  1  0
 16 29  1  6
 17 30  1  0
 18 19  1  0
 18 31  1  1
 19 32  1  0
M  END
>  <i_m_ct_stereo_status>  (211) 
1

>  <s_m_source_file>  (211) 
/var/tmp/pbs.5076255.sched01/tmp7w47f283/46ruht8ay8.sdf

>  <i_m_source_file_index>  (211) 
45

>  <i_lp_mmshare_version>  (211) 
48012

>  <i_f3d_flags>  (211) 
0

>  <s_epik_input>  (211) 
bjFbY0hdW25IXVxjKD1OXFtIXSljKGMxMiluW2NIXW4yW0NAQEhdM09bQ0BASF0oW0NIMl1bT0hdKVtDQEBIXShbT0hdKVtDQEhdM1tPSF0=

>  <s_epik_cmdline>  (211) 
J2VwaWtfcHl0aG9uJywgJy1waHQnLCAnMi4wJywgJy1waCcsICc3LjAnLCAnLXRuJywgJzgnLCAnLW1hJywgJzIwMCcsICctaW1hZScsICc8aW5maWxlLm1hZT4nLCAnLW9tYWUnLCAnPG91dGZpbGUubWFlPic=

>  <r_lp_tautomer_probability>  (211) 
1

>  <r_epik_Ionization_Penalty>  (211) 
0.000428445

>  <r_epik_Ionization_Penalty_Charging>  (211) 
0

>  <r_epik_Ionization_Penalty_Neutral>  (211) 
0.000428445

>  <r_epik_State_Penalty>  (211) 
-0

>  <r_epik_Charging_Adjusted_Penalty>  (211) 
0

>  <i_epik_Tot_Q>  (211) 
0

>  <i_epik_Tot_abs_Q>  (211) 
0

>  <s_epik_Chemistry_Notes>  (211) 
This compound contains an acetal/aminal-like group ( X-CH(R)-Y where X, Y are N, S, or O) that may be acid/base labile, releasing an aldehyde.

>  <s_lp_Force_Field>  (211) 
OPLS3e

>  <r_lp_Energy>  (211) 
18.2998

>  <b_lp_Chiralities_Consistent>  (211) 
1

>  <s_lp_Variant>  (211) 
61:0-1

>  <s_i_glide_gridfile>  (211) 
pfpi4k_grid

>  <i_i_glide_lignum>  (211) 
45

>  <i_i_glide_rotatable_bonds>  (211) 
5

>  <r_i_docking_score>  (211) 
-4.16285

>  <r_i_glide_ligand_efficiency>  (211) 
-0.219098

>  <r_i_glide_ligand_efficiency_sa>  (211) 
-0.58464

>  <r_i_glide_ligand_efficiency_ln>  (211) 
-1.05537

>  <r_i_glide_gscore>  (211) 
-4.16285

>  <r_i_glide_lipo>  (211) 
-0.142185

>  <r_i_glide_hbond>  (211) 
-0.203774

>  <r_i_glide_metal>  (211) 
-0

>  <r_i_glide_rewards>  (211) 
-1.58796

>  <r_i_glide_evdw>  (211) 
-15.8814

>  <r_i_glide_ecoul>  (211) 
-11.8119

>  <r_i_glide_erotb>  (211) 
0.499276

>  <r_i_glide_esite>  (211) 
-0.162363

>  <r_i_glide_emodel>  (211) 
-36.1462

>  <r_i_glide_energy>  (211) 
-27.6932

>  <r_i_glide_einternal>  (211) 
2.08758

>  <r_i_glide_intrahb_reward>  (211) 
-0

>  <i_i_glide_confnum>  (211) 
3

>  <i_i_glide_posenum>  (211) 
38

>  <r_i_glide_eff_state_penalty>  (211) 
0

>  <ligand_id>  (211) 
61

>  <original_smiles>  (211) 
N=c1[nH]cnc2c1ncn2C1OC(CO)C(O)C1O

>  <smiles>  (211) 
[H]OC([H])([H])C1([H])OC([H])(n2c([H])nc3c(N([H])[H])nc([H])nc32)C([H])(O[H])C1([H])O[H]

$$$$
61:0:1
     RDKit          3D

 32 34  0  0  1  0  0  0  0  0999 V2000
    7.8101   -6.5850    1.2906 N   0  0  0  0  0  0  0  0  0  0  0  0
    6.5100   -6.8206    1.4946 C   0  0  0  0  0  0  0  0  0  0  0  0
    5.6538   -5.7788    1.4356 N   0  0  0  0  0  0  0  0  0  0  0  0
    4.3475   -6.0024    1.6349 C   0  0  0  0  0  0  0  0  0  0  0  0
    3.7300   -7.1555    1.8953 N   0  0  0  0  0  0  0  0  0  0  0  0
    4.5955   -8.2075    1.9374 C   0  0  0  0  0  0  0  0  0  0  0  0
    6.0021   -8.1153    1.7463 C   0  0  0  0  0  0  0  0  0  0  0  0
    6.5789   -9.3778    1.8503 N   0  0  0  0  0  0  0  0  0  0  0  0
    5.5628  -10.1662    2.0733 C   0  0  0  0  0  0  0  0  0  0  0  0
    4.3350   -9.5425    2.1575 N   0  0  0  0  0  0  0  0  0  0  0  0
    3.0246  -10.2226    2.3846 C   0  0  2  0  0  0  0  0  0  0  0  0
    1.9655   -9.3634    2.0825 O   0  0  0  0  0  0  0  0  0  0  0  0
    1.0278   -9.3372    3.1584 C   0  0  1  0  0  0  0  0  0  0  0  0
   -0.4115   -9.2613    2.6089 C   0  0  0  0  0  0  0  0  0  0  0  0
   -1.3320   -8.9938    3.6519 O   0  0  0  0  0  0  0  0  0  0  0  0
    1.3771  -10.5653    4.0198 C   0  0  1  0  0  0  0  0  0  0  0  0
    0.7671  -11.7323    3.4776 O   0  0  0  0  0  0  0  0  0  0  0  0
    2.8860  -10.6384    3.8552 C   0  0  1  0  0  0  0  0  0  0  0  0
    3.3515  -11.9488    4.1010 O   0  0  0  0  0  0  0  0  0  0  0  0
    8.1116   -5.6386    1.1258 H   0  0  0  0  0  0  0  0  0  0  0  0
    8.4656   -7.3594    1.3401 H   0  0  0  0  0  0  0  0  0  0  0  0
    3.6985   -5.1366    1.5636 H   0  0  0  0  0  0  0  0  0  0  0  0
    5.6674  -11.2405    2.1875 H   0  0  0  0  0  0  0  0  0  0  0  0
    3.0181  -11.0490    1.6937 H   0  0  0  0  0  0  0  0  0  0  0  0
    1.2604   -8.4345    3.7265 H   0  0  0  0  0  0  0  0  0  0  0  0
   -0.4772   -8.4563    1.8752 H   0  0  0  0  0  0  0  0  0  0  0  0
   -0.6947  -10.1658    2.0676 H   0  0  0  0  0  0  0  0  0  0  0  0
   -1.4452   -9.7832    4.1827 H   0  0  0  0  0  0  0  0  0  0  0  0
    1.0840  -10.4444    5.0663 H   0  0  0  0  0  0  0  0  0  0  0  0
    1.0924  -12.4976    3.9288 H   0  0  0  0  0  0  0  0  0  0  0  0
    3.3871   -9.9015    4.4876 H   0  0  0  0  0  0  0  0  0  0  0  0
    2.9246  -12.5505    3.5054 H   0  0  0  0  0  0  0  0  0  0  0  0
  1  2  1  0
  1 21  1  0
  1 20  1  0
  2  3  2  0
  2  7  1  0
  3  4  1  0
  4 22  1  0
  4  5  2  0
  5  6  1  0
  6 10  1  0
  6  7  2  0
  7  8  1  0
  8  9  2  0
  9 23  1  0
  9 10  1  0
 10 11  1  0
 11 18  1  0
 11 12  1  0
 11 24  1  6
 12 13  1  0
 13 14  1  0
 13 16  1  0
 13 25  1  1
 14 15  1  0
 14 26  1  0
 14 27  1  0
 15 28  1  0
 16 17  1  0
 16 18  1  0
 16 29  1  1
 17 30  1  0
 18 19  1  0
 18 31  1  1
 19 32  1  0
M  END
>  <i_m_ct_stereo_status>  (212) 
1

>  <s_m_source_file>  (212) 
/var/tmp/pbs.5076255.sched01/tmp7w47f283/46ruht8ay8.sdf

>  <i_m_source_file_index>  (212) 
45

>  <i_lp_mmshare_version>  (212) 
48012

>  <i_f3d_flags>  (212) 
0

>  <s_epik_input>  (212) 
bjFbY0hdW25IXVxjKD1OXFtIXSljKGMxMiluW2NIXW4yW0NAQEhdM09bQ0BASF0oW0NIMl1bT0hdKVtDQEBIXShbT0hdKVtDQEhdM1tPSF0=

>  <s_epik_cmdline>  (212) 
J2VwaWtfcHl0aG9uJywgJy1waHQnLCAnMi4wJywgJy1waCcsICc3LjAnLCAnLXRuJywgJzgnLCAnLW1hJywgJzIwMCcsICctaW1hZScsICc8aW5maWxlLm1hZT4nLCAnLW9tYWUnLCAnPG91dGZpbGUubWFlPic=

>  <r_lp_tautomer_probability>  (212) 
1

>  <r_epik_Ionization_Penalty>  (212) 
0.000428445

>  <r_epik_Ionization_Penalty_Charging>  (212) 
0

>  <r_epik_Ionization_Penalty_Neutral>  (212) 
0.000428445

>  <r_epik_State_Penalty>  (212) 
-0

>  <r_epik_Charging_Adjusted_Penalty>  (212) 
0

>  <i_epik_Tot_Q>  (212) 
0

>  <i_epik_Tot_abs_Q>  (212) 
0

>  <s_epik_Chemistry_Notes>  (212) 
This compound contains an acetal/aminal-like group ( X-CH(R)-Y where X, Y are N, S, or O) that may be acid/base labile, releasing an aldehyde.

>  <s_lp_Force_Field>  (212) 
OPLS3e

>  <r_lp_Energy>  (212) 
18.2998

>  <b_lp_Chiralities_Consistent>  (212) 
1

>  <s_lp_Variant>  (212) 
61:0-1

>  <s_i_glide_gridfile>  (212) 
pfpi4k_grid

>  <i_i_glide_lignum>  (212) 
45

>  <i_i_glide_rotatable_bonds>  (212) 
5

>  <r_i_docking_score>  (212) 
-3.92563

>  <r_i_glide_ligand_efficiency>  (212) 
-0.206612

>  <r_i_glide_ligand_efficiency_sa>  (212) 
-0.551324

>  <r_i_glide_ligand_efficiency_ln>  (212) 
-0.995232

>  <r_i_glide_gscore>  (212) 
-3.92563

>  <r_i_glide_lipo>  (212) 
-0.195757

>  <r_i_glide_hbond>  (212) 
-0.00373387

>  <r_i_glide_metal>  (212) 
-0

>  <r_i_glide_rewards>  (212) 
-1.64771

>  <r_i_glide_evdw>  (212) 
-19.888

>  <r_i_glide_ecoul>  (212) 
-9.27148

>  <r_i_glide_erotb>  (212) 
0.499276

>  <r_i_glide_esite>  (212) 
-0.192582

>  <r_i_glide_emodel>  (212) 
-37.2661

>  <r_i_glide_energy>  (212) 
-29.1595

>  <r_i_glide_einternal>  (212) 
2.49117

>  <r_i_glide_intrahb_reward>  (212) 
-0

>  <i_i_glide_confnum>  (212) 
6

>  <i_i_glide_posenum>  (212) 
2

>  <r_i_glide_eff_state_penalty>  (212) 
0

>  <ligand_id>  (212) 
61

>  <original_smiles>  (212) 
N=c1[nH]cnc2c1ncn2C1OC(CO)C(O)C1O

>  <smiles>  (212) 
[H]OC([H])([H])C1([H])OC([H])(n2c([H])nc3c(N([H])[H])nc([H])nc32)C([H])(O[H])C1([H])O[H]

$$$$
61:0:2
     RDKit          3D

 32 34  0  0  1  0  0  0  0  0999 V2000
    7.8095   -7.0506    1.3335 N   0  0  0  0  0  0  0  0  0  0  0  0
    6.5208   -7.2123    1.6533 C   0  0  0  0  0  0  0  0  0  0  0  0
    5.7059   -6.1380    1.6038 N   0  0  0  0  0  0  0  0  0  0  0  0
    4.4123   -6.2851    1.9207 C   0  0  0  0  0  0  0  0  0  0  0  0
    3.7636   -7.3930    2.2893 N   0  0  0  0  0  0  0  0  0  0  0  0
    4.5834   -8.4842    2.3072 C   0  0  0  0  0  0  0  0  0  0  0  0
    5.9762   -8.4676    2.0085 C   0  0  0  0  0  0  0  0  0  0  0  0
    6.5023   -9.7504    2.1380 N   0  0  0  0  0  0  0  0  0  0  0  0
    5.4689  -10.4816    2.4674 C   0  0  0  0  0  0  0  0  0  0  0  0
    4.2760   -9.7988    2.5917 N   0  0  0  0  0  0  0  0  0  0  0  0
    2.9552  -10.3823    2.9698 C   0  0  2  0  0  0  0  0  0  0  0  0
    1.9341   -9.6513    2.3625 O   0  0  0  0  0  0  0  0  0  0  0  0
    0.9387   -9.2949    3.3276 C   0  0  1  0  0  0  0  0  0  0  0  0
   -0.4667   -9.4172    2.7104 C   0  0  0  0  0  0  0  0  0  0  0  0
   -1.4595   -9.0239    3.6460 O   0  0  0  0  0  0  0  0  0  0  0  0
    1.2348  -10.1801    4.5523 C   0  0  1  0  0  0  0  0  0  0  0  0
    0.6101  -11.4484    4.4318 O   0  0  0  0  0  0  0  0  0  0  0  0
    2.7497  -10.3019    4.4894 C   0  0  1  0  0  0  0  0  0  0  0  0
    3.2049  -11.4428    5.1981 O   0  0  0  0  0  0  0  0  0  0  0  0
    8.1409   -6.1344    1.0866 H   0  0  0  0  0  0  0  0  0  0  0  0
    8.4388   -7.8463    1.3731 H   0  0  0  0  0  0  0  0  0  0  0  0
    3.8045   -5.3913    1.8493 H   0  0  0  0  0  0  0  0  0  0  0  0
    5.5379  -11.5490    2.6334 H   0  0  0  0  0  0  0  0  0  0  0  0
    2.9496  -11.3916    2.5566 H   0  0  0  0  0  0  0  0  0  0  0  0
    1.1382   -8.2552    3.6001 H   0  0  0  0  0  0  0  0  0  0  0  0
   -0.5385   -8.7766    1.8316 H   0  0  0  0  0  0  0  0  0  0  0  0
   -0.6320  -10.4289    2.3477 H   0  0  0  0  0  0  0  0  0  0  0  0
   -1.6385   -9.7480    4.2496 H   0  0  0  0  0  0  0  0  0  0  0  0
    0.9015   -9.7196    5.4847 H   0  0  0  0  0  0  0  0  0  0  0  0
   -0.3297  -11.3555    4.5805 H   0  0  0  0  0  0  0  0  0  0  0  0
    3.2151   -9.3934    4.8756 H   0  0  0  0  0  0  0  0  0  0  0  0
    2.6025  -11.6367    5.9084 H   0  0  0  0  0  0  0  0  0  0  0  0
  1  2  1  0
  1 21  1  0
  1 20  1  0
  2  3  2  0
  2  7  1  0
  3  4  1  0
  4 22  1  0
  4  5  2  0
  5  6  1  0
  6 10  1  0
  6  7  2  0
  7  8  1  0
  8  9  2  0
  9 23  1  0
  9 10  1  0
 10 11  1  0
 11 18  1  0
 11 12  1  0
 11 24  1  6
 12 13  1  0
 13 14  1  0
 13 16  1  0
 13 25  1  1
 14 15  1  0
 14 26  1  0
 14 27  1  0
 15 28  1  0
 16 17  1  0
 16 18  1  0
 16 29  1  1
 17 30  1  0
 18 19  1  0
 18 31  1  1
 19 32  1  0
M  END
>  <i_m_ct_stereo_status>  (213) 
1

>  <s_m_source_file>  (213) 
/var/tmp/pbs.5076255.sched01/tmp7w47f283/46ruht8ay8.sdf

>  <i_m_source_file_index>  (213) 
45

>  <i_lp_mmshare_version>  (213) 
48012

>  <i_f3d_flags>  (213) 
0

>  <s_epik_input>  (213) 
bjFbY0hdW25IXVxjKD1OXFtIXSljKGMxMiluW2NIXW4yW0NAQEhdM09bQ0BASF0oW0NIMl1bT0hdKVtDQEBIXShbT0hdKVtDQEhdM1tPSF0=

>  <s_epik_cmdline>  (213) 
J2VwaWtfcHl0aG9uJywgJy1waHQnLCAnMi4wJywgJy1waCcsICc3LjAnLCAnLXRuJywgJzgnLCAnLW1hJywgJzIwMCcsICctaW1hZScsICc8aW5maWxlLm1hZT4nLCAnLW9tYWUnLCAnPG91dGZpbGUubWFlPic=

>  <r_lp_tautomer_probability>  (213) 
1

>  <r_epik_Ionization_Penalty>  (213) 
0.000428445

>  <r_epik_Ionization_Penalty_Charging>  (213) 
0

>  <r_epik_Ionization_Penalty_Neutral>  (213) 
0.000428445

>  <r_epik_State_Penalty>  (213) 
-0

>  <r_epik_Charging_Adjusted_Penalty>  (213) 
0

>  <i_epik_Tot_Q>  (213) 
0

>  <i_epik_Tot_abs_Q>  (213) 
0

>  <s_epik_Chemistry_Notes>  (213) 
This compound contains an acetal/aminal-like group ( X-CH(R)-Y where X, Y are N, S, or O) that may be acid/base labile, releasing an aldehyde.

>  <s_lp_Force_Field>  (213) 
OPLS3e

>  <r_lp_Energy>  (213) 
18.2998

>  <b_lp_Chiralities_Consistent>  (213) 
1

>  <s_lp_Variant>  (213) 
61:0-1

>  <s_i_glide_gridfile>  (213) 
pfpi4k_grid

>  <i_i_glide_lignum>  (213) 
45

>  <i_i_glide_rotatable_bonds>  (213) 
5

>  <r_i_docking_score>  (213) 
-3.84522

>  <r_i_glide_ligand_efficiency>  (213) 
-0.20238

>  <r_i_glide_ligand_efficiency_sa>  (213) 
-0.540032

>  <r_i_glide_ligand_efficiency_ln>  (213) 
-0.974847

>  <r_i_glide_gscore>  (213) 
-3.84522

>  <r_i_glide_lipo>  (213) 
-0.140289

>  <r_i_glide_hbond>  (213) 
-0.010129

>  <r_i_glide_metal>  (213) 
-0

>  <r_i_glide_rewards>  (213) 
-1.62957

>  <r_i_glide_evdw>  (213) 
-19.7499

>  <r_i_glide_ecoul>  (213) 
-9.29844

>  <r_i_glide_erotb>  (213) 
0.499276

>  <r_i_glide_esite>  (213) 
-0.182252

>  <r_i_glide_emodel>  (213) 
-36.7757

>  <r_i_glide_energy>  (213) 
-29.0483

>  <r_i_glide_einternal>  (213) 
2.51135

>  <r_i_glide_intrahb_reward>  (213) 
-0

>  <i_i_glide_confnum>  (213) 
6

>  <i_i_glide_posenum>  (213) 
18

>  <r_i_glide_eff_state_penalty>  (213) 
0

>  <ligand_id>  (213) 
61

>  <original_smiles>  (213) 
N=c1[nH]cnc2c1ncn2C1OC(CO)C(O)C1O

>  <smiles>  (213) 
[H]OC([H])([H])C1([H])OC([H])(n2c([H])nc3c(N([H])[H])nc([H])nc32)C([H])(O[H])C1([H])O[H]

$$$$
62:0:0
     RDKit          3D

 26 30  0  0  1  0  0  0  0  0999 V2000
    3.1957   -0.0036   -4.5982 C   0  0  0  0  0  0  0  0  0  0  0  0
    4.1286   -1.0980   -4.1027 C   0  0  2  0  0  0  0  0  0  0  0  0
    3.5479   -2.3893   -4.3224 O   0  0  0  0  0  0  0  0  0  0  0  0
    3.4319   -3.2930   -3.2175 C   0  0  2  0  0  0  0  0  0  0  0  0
    2.6578   -2.6572   -2.0410 C   0  0  1  0  0  0  0  0  0  0  0  0
    2.9018   -3.6705   -0.9009 C   0  0  0  0  0  0  0  0  0  0  0  0
    4.4096   -3.6329   -0.9942 C   0  0  1  0  0  0  0  0  0  0  0  0
    4.7734   -3.5390   -2.5048 C   0  0  2  0  0  0  0  0  0  0  0  0
    5.4273   -2.1834   -2.2249 C   0  0  1  0  0  0  0  0  0  0  0  0
    4.5725   -0.9829   -2.6544 C   0  0  2  0  0  0  0  0  0  0  0  0
    3.5365   -1.4532   -1.6048 C   0  0  2  0  0  0  0  0  0  0  0  0
    4.7096   -2.1560   -0.8999 C   0  0  1  0  0  0  0  0  0  0  0  0
    3.6257    0.9874   -4.4655 H   0  0  0  0  0  0  0  0  0  0  0  0
    2.2322   -0.0218   -4.0829 H   0  0  0  0  0  0  0  0  0  0  0  0
    2.9941   -0.1330   -5.6631 H   0  0  0  0  0  0  0  0  0  0  0  0
    5.0068   -1.0463   -4.7389 H   0  0  0  0  0  0  0  0  0  0  0  0
    2.9581   -4.2085   -3.5605 H   0  0  0  0  0  0  0  0  0  0  0  0
    1.6225   -2.4252   -2.3121 H   0  0  0  0  0  0  0  0  0  0  0  0
    2.5360   -3.3315    0.0611 H   0  0  0  0  0  0  0  0  0  0  0  0
    2.4700   -4.6510   -1.1085 H   0  0  0  0  0  0  0  0  0  0  0  0
    5.0440   -4.2918   -0.3932 H   0  0  0  0  0  0  0  0  0  0  0  0
    5.4502   -4.2889   -2.9047 H   0  0  0  0  0  0  0  0  0  0  0  0
    6.5142   -2.1203   -2.1551 H   0  0  0  0  0  0  0  0  0  0  0  0
    5.0248   -0.0311   -2.3648 H   0  0  0  0  0  0  0  0  0  0  0  0
    3.1021   -0.6825   -0.9829 H   0  0  0  0  0  0  0  0  0  0  0  0
    5.2268   -1.6941   -0.0615 H   0  0  0  0  0  0  0  0  0  0  0  0
  1  2  1  0
  1 13  1  0
  1 14  1  0
  1 15  1  0
  2 10  1  0
  2  3  1  0
  2 16  1  6
  3  4  1  0
  4  8  1  0
  4  5  1  0
  4 17  1  6
  5 11  1  0
  5  6  1  0
  5 18  1  6
  6  7  1  0
  6 19  1  0
  6 20  1  0
  7 12  1  0
  7  8  1  0
  7 21  1  1
  8  9  1  0
  8 22  1  6
  9 12  1  0
  9 10  1  0
  9 23  1  1
 10 11  1  0
 10 24  1  1
 11 12  1  0
 11 25  1  1
 12 26  1  1
M  END
>  <i_m_ct_stereo_status>  (214) 
1

>  <s_m_source_file>  (214) 
/var/tmp/pbs.5076255.sched01/tmp7w47f283/46ruht8ay8.sdf

>  <i_m_source_file_index>  (214) 
46

>  <i_lp_mmshare_version>  (214) 
48012

>  <i_f3d_flags>  (214) 
0

>  <s_epik_input>  (214) 
W0NASF0xMltDQEBIXTNbQ0BASF00W0NASF0oW0NAQEhdKE8xKVtDSDNdKVtDQEBIXTVbQ0BIXTJbQ0BIXShbQ0gyXTMpW0NASF00NQ==

>  <s_epik_cmdline>  (214) 
J2VwaWtfcHl0aG9uJywgJy1waHQnLCAnMi4wJywgJy1waCcsICc3LjAnLCAnLXRuJywgJzgnLCAnLW1hJywgJzIwMCcsICctaW1hZScsICc8aW5maWxlLm1hZT4nLCAnLW9tYWUnLCAnPG91dGZpbGUubWFlPic=

>  <r_lp_tautomer_probability>  (214) 
1

>  <r_epik_Ionization_Penalty>  (214) 
1.0077e-10

>  <r_epik_Ionization_Penalty_Charging>  (214) 
0

>  <r_epik_Ionization_Penalty_Neutral>  (214) 
1.0077e-10

>  <r_epik_State_Penalty>  (214) 
-0

>  <r_epik_Charging_Adjusted_Penalty>  (214) 
0

>  <i_epik_Tot_Q>  (214) 
0

>  <i_epik_Tot_abs_Q>  (214) 
0

>  <s_lp_Force_Field>  (214) 
OPLS3e

>  <r_lp_Energy>  (214) 
67.5804

>  <b_lp_Chiralities_Consistent>  (214) 
1

>  <s_lp_Variant>  (214) 
62:0-1

>  <s_i_glide_gridfile>  (214) 
pfpi4k_grid

>  <i_i_glide_lignum>  (214) 
46

>  <i_i_glide_rotatable_bonds>  (214) 
0

>  <r_i_docking_score>  (214) 
-4.15495

>  <r_i_glide_ligand_efficiency>  (214) 
-0.346246

>  <r_i_glide_ligand_efficiency_sa>  (214) 
-0.792705

>  <r_i_glide_ligand_efficiency_ln>  (214) 
-1.19227

>  <r_i_glide_gscore>  (214) 
-4.15495

>  <r_i_glide_lipo>  (214) 
-0.366007

>  <r_i_glide_hbond>  (214) 
-0.32

>  <r_i_glide_metal>  (214) 
-0

>  <r_i_glide_rewards>  (214) 
-2.25

>  <r_i_glide_evdw>  (214) 
-17.5453

>  <r_i_glide_ecoul>  (214) 
-2.27785

>  <r_i_glide_erotb>  (214) 
0

>  <r_i_glide_esite>  (214) 
0

>  <r_i_glide_emodel>  (214) 
-24.4959

>  <r_i_glide_energy>  (214) 
-19.8232

>  <r_i_glide_einternal>  (214) 
0

>  <r_i_glide_intrahb_reward>  (214) 
-0

>  <i_i_glide_confnum>  (214) 
1

>  <i_i_glide_posenum>  (214) 
12

>  <r_i_glide_eff_state_penalty>  (214) 
0

>  <ligand_id>  (214) 
62

>  <original_smiles>  (214) 
CC1OC2C3CC4C2C2C1C3C42

>  <smiles>  (214) 
[H]C([H])([H])C1([H])OC2([H])C3([H])C([H])([H])C4([H])C2([H])C2([H])C1([H])C3([H])C42[H]

$$$$
62:0:1
     RDKit          3D

 26 30  0  0  1  0  0  0  0  0999 V2000
    3.0495   -0.9310   -3.1085 C   0  0  0  0  0  0  0  0  0  0  0  0
    4.4106   -1.1478   -2.4472 C   0  0  2  0  0  0  0  0  0  0  0  0
    4.9945   -2.3608   -2.9721 O   0  0  0  0  0  0  0  0  0  0  0  0
    5.3992   -3.3714   -2.0277 C   0  0  2  0  0  0  0  0  0  0  0  0
    4.2279   -3.7836   -1.0748 C   0  0  1  0  0  0  0  0  0  0  0  0
    5.0160   -4.6555   -0.0632 C   0  0  0  0  0  0  0  0  0  0  0  0
    5.9960   -3.5691    0.3323 C   0  0  1  0  0  0  0  0  0  0  0  0
    6.3798   -2.8209   -0.9720 C   0  0  2  0  0  0  0  0  0  0  0  0
    5.7916   -1.5370   -0.3525 C   0  0  1  0  0  0  0  0  0  0  0  0
    4.4029   -1.1807   -0.9145 C   0  0  2  0  0  0  0  0  0  0  0  0
    3.8935   -2.4974   -0.2735 C   0  0  2  0  0  0  0  0  0  0  0  0
    5.0956   -2.3865    0.6733 C   0  0  1  0  0  0  0  0  0  0  0  0
    2.5867   -0.0189   -2.7523 H   0  0  0  0  0  0  0  0  0  0  0  0
    2.3672   -1.7514   -2.9065 H   0  0  0  0  0  0  0  0  0  0  0  0
    3.1557   -0.8376   -4.1899 H   0  0  0  0  0  0  0  0  0  0  0  0
    5.0513   -0.3241   -2.7550 H   0  0  0  0  0  0  0  0  0  0  0  0
    5.8051   -4.2304   -2.5658 H   0  0  0  0  0  0  0  0  0  0  0  0
    3.3705   -4.2495   -1.5447 H   0  0  0  0  0  0  0  0  0  0  0  0
    4.4029   -4.9934    0.7724 H   0  0  0  0  0  0  0  0  0  0  0  0
    5.4945   -5.5266   -0.5159 H   0  0  0  0  0  0  0  0  0  0  0  0
    6.8025   -3.7749    1.0360 H   0  0  0  0  0  0  0  0  0  0  0  0
    7.4417   -2.7763   -1.2268 H   0  0  0  0  0  0  0  0  0  0  0  0
    6.4534   -0.7652    0.0450 H   0  0  0  0  0  0  0  0  0  0  0  0
    3.9869   -0.2959   -0.4276 H   0  0  0  0  0  0  0  0  0  0  0  0
    2.9262   -2.4519    0.2322 H   0  0  0  0  0  0  0  0  0  0  0  0
    4.9853   -1.9919    1.6857 H   0  0  0  0  0  0  0  0  0  0  0  0
  1  2  1  0
  1 13  1  0
  1 14  1  0
  1 15  1  0
  2 10  1  0
  2  3  1  0
  2 16  1  1
  3  4  1  0
  4  8  1  0
  4  5  1  0
  4 17  1  6
  5 11  1  0
  5  6  1  0
  5 18  1  6
  6  7  1  0
  6 19  1  0
  6 20  1  0
  7 12  1  0
  7  8  1  0
  7 21  1  1
  8  9  1  0
  8 22  1  6
  9 12  1  0
  9 10  1  0
  9 23  1  1
 10 11  1  0
 10 24  1  1
 11 12  1  0
 11 25  1  1
 12 26  1  1
M  END
>  <i_m_ct_stereo_status>  (215) 
1

>  <s_m_source_file>  (215) 
/var/tmp/pbs.5076255.sched01/tmp7w47f283/46ruht8ay8.sdf

>  <i_m_source_file_index>  (215) 
46

>  <i_lp_mmshare_version>  (215) 
48012

>  <i_f3d_flags>  (215) 
0

>  <s_epik_input>  (215) 
W0NASF0xMltDQEBIXTNbQ0BASF00W0NASF0oW0NAQEhdKE8xKVtDSDNdKVtDQEBIXTVbQ0BIXTJbQ0BIXShbQ0gyXTMpW0NASF00NQ==

>  <s_epik_cmdline>  (215) 
J2VwaWtfcHl0aG9uJywgJy1waHQnLCAnMi4wJywgJy1waCcsICc3LjAnLCAnLXRuJywgJzgnLCAnLW1hJywgJzIwMCcsICctaW1hZScsICc8aW5maWxlLm1hZT4nLCAnLW9tYWUnLCAnPG91dGZpbGUubWFlPic=

>  <r_lp_tautomer_probability>  (215) 
1

>  <r_epik_Ionization_Penalty>  (215) 
1.0077e-10

>  <r_epik_Ionization_Penalty_Charging>  (215) 
0

>  <r_epik_Ionization_Penalty_Neutral>  (215) 
1.0077e-10

>  <r_epik_State_Penalty>  (215) 
-0

>  <r_epik_Charging_Adjusted_Penalty>  (215) 
0

>  <i_epik_Tot_Q>  (215) 
0

>  <i_epik_Tot_abs_Q>  (215) 
0

>  <s_lp_Force_Field>  (215) 
OPLS3e

>  <r_lp_Energy>  (215) 
67.5804

>  <b_lp_Chiralities_Consistent>  (215) 
1

>  <s_lp_Variant>  (215) 
62:0-1

>  <s_i_glide_gridfile>  (215) 
pfpi4k_grid

>  <i_i_glide_lignum>  (215) 
46

>  <i_i_glide_rotatable_bonds>  (215) 
0

>  <r_i_docking_score>  (215) 
-3.6609

>  <r_i_glide_ligand_efficiency>  (215) 
-0.305075

>  <r_i_glide_ligand_efficiency_sa>  (215) 
-0.698447

>  <r_i_glide_ligand_efficiency_ln>  (215) 
-1.0505

>  <r_i_glide_gscore>  (215) 
-3.6609

>  <r_i_glide_lipo>  (215) 
-0.308444

>  <r_i_glide_hbond>  (215) 
0

>  <r_i_glide_metal>  (215) 
-0

>  <r_i_glide_rewards>  (215) 
-2.25

>  <r_i_glide_evdw>  (215) 
-17.5506

>  <r_i_glide_ecoul>  (215) 
-1.49948

>  <r_i_glide_erotb>  (215) 
0

>  <r_i_glide_esite>  (215) 
0

>  <r_i_glide_emodel>  (215) 
-23.1967

>  <r_i_glide_energy>  (215) 
-19.0501

>  <r_i_glide_einternal>  (215) 
0

>  <r_i_glide_intrahb_reward>  (215) 
-0

>  <i_i_glide_confnum>  (215) 
1

>  <i_i_glide_posenum>  (215) 
1

>  <r_i_glide_eff_state_penalty>  (215) 
0

>  <ligand_id>  (215) 
62

>  <original_smiles>  (215) 
CC1OC2C3CC4C2C2C1C3C42

>  <smiles>  (215) 
[H]C([H])([H])C1([H])OC2([H])C3([H])C([H])([H])C4([H])C2([H])C2([H])C1([H])C3([H])C42[H]

$$$$
62:0:2
     RDKit          3D

 26 30  0  0  1  0  0  0  0  0999 V2000
    3.3000   -3.0554   -3.8999 C   0  0  0  0  0  0  0  0  0  0  0  0
    3.2462   -2.3123   -2.5620 C   0  0  2  0  0  0  0  0  0  0  0  0
    4.2152   -1.2435   -2.5928 O   0  0  0  0  0  0  0  0  0  0  0  0
    5.1611   -1.1772   -1.5133 C   0  0  2  0  0  0  0  0  0  0  0  0
    5.9923   -2.4956   -1.4077 C   0  0  1  0  0  0  0  0  0  0  0  0
    6.7369   -2.2314   -0.0697 C   0  0  0  0  0  0  0  0  0  0  0  0
    5.4835   -2.0217    0.7556 C   0  0  1  0  0  0  0  0  0  0  0  0
    4.5068   -1.1894   -0.1202 C   0  0  2  0  0  0  0  0  0  0  0  0
    3.5131   -2.3548   -0.0410 C   0  0  1  0  0  0  0  0  0  0  0  0
    3.4668   -3.1930   -1.3303 C   0  0  2  0  0  0  0  0  0  0  0  0
    4.9420   -3.5804   -1.0320 C   0  0  2  0  0  0  0  0  0  0  0  0
    4.6337   -3.2402    0.4314 C   0  0  1  0  0  0  0  0  0  0  0  0
    2.5810   -3.8749   -3.9209 H   0  0  0  0  0  0  0  0  0  0  0  0
    4.2882   -3.4687   -4.0912 H   0  0  0  0  0  0  0  0  0  0  0  0
    3.0495   -2.3789   -4.7131 H   0  0  0  0  0  0  0  0  0  0  0  0
    2.2617   -1.8500   -2.4870 H   0  0  0  0  0  0  0  0  0  0  0  0
    5.8021   -0.3047   -1.6561 H   0  0  0  0  0  0  0  0  0  0  0  0
    6.6203   -2.7293   -2.2662 H   0  0  0  0  0  0  0  0  0  0  0  0
    7.3197   -3.0898    0.2647 H   0  0  0  0  0  0  0  0  0  0  0  0
    7.3862   -1.3549   -0.0833 H   0  0  0  0  0  0  0  0  0  0  0  0
    5.5576   -1.7442    1.8082 H   0  0  0  0  0  0  0  0  0  0  0  0
    4.1500   -0.2418    0.2911 H   0  0  0  0  0  0  0  0  0  0  0  0
    2.6388   -2.2765    0.6077 H   0  0  0  0  0  0  0  0  0  0  0  0
    2.7862   -4.0440   -1.2337 H   0  0  0  0  0  0  0  0  0  0  0  0
    5.2154   -4.6259   -1.1907 H   0  0  0  0  0  0  0  0  0  0  0  0
    4.4133   -4.0203    1.1621 H   0  0  0  0  0  0  0  0  0  0  0  0
  1  2  1  0
  1 13  1  0
  1 14  1  0
  1 15  1  0
  2 10  1  0
  2  3  1  0
  2 16  1  1
  3  4  1  0
  4  8  1  0
  4  5  1  0
  4 17  1  6
  5 11  1  0
  5  6  1  0
  5 18  1  6
  6  7  1  0
  6 19  1  0
  6 20  1  0
  7 12  1  0
  7  8  1  0
  7 21  1  1
  8  9  1  0
  8 22  1  1
  9 12  1  0
  9 10  1  0
  9 23  1  1
 10 11  1  0
 10 24  1  1
 11 12  1  0
 11 25  1  1
 12 26  1  1
M  END
>  <i_m_ct_stereo_status>  (216) 
1

>  <s_m_source_file>  (216) 
/var/tmp/pbs.5076255.sched01/tmp7w47f283/46ruht8ay8.sdf

>  <i_m_source_file_index>  (216) 
46

>  <i_lp_mmshare_version>  (216) 
48012

>  <i_f3d_flags>  (216) 
0

>  <s_epik_input>  (216) 
W0NASF0xMltDQEBIXTNbQ0BASF00W0NASF0oW0NAQEhdKE8xKVtDSDNdKVtDQEBIXTVbQ0BIXTJbQ0BIXShbQ0gyXTMpW0NASF00NQ==

>  <s_epik_cmdline>  (216) 
J2VwaWtfcHl0aG9uJywgJy1waHQnLCAnMi4wJywgJy1waCcsICc3LjAnLCAnLXRuJywgJzgnLCAnLW1hJywgJzIwMCcsICctaW1hZScsICc8aW5maWxlLm1hZT4nLCAnLW9tYWUnLCAnPG91dGZpbGUubWFlPic=

>  <r_lp_tautomer_probability>  (216) 
1

>  <r_epik_Ionization_Penalty>  (216) 
1.0077e-10

>  <r_epik_Ionization_Penalty_Charging>  (216) 
0

>  <r_epik_Ionization_Penalty_Neutral>  (216) 
1.0077e-10

>  <r_epik_State_Penalty>  (216) 
-0

>  <r_epik_Charging_Adjusted_Penalty>  (216) 
0

>  <i_epik_Tot_Q>  (216) 
0

>  <i_epik_Tot_abs_Q>  (216) 
0

>  <s_lp_Force_Field>  (216) 
OPLS3e

>  <r_lp_Energy>  (216) 
67.5804

>  <b_lp_Chiralities_Consistent>  (216) 
1

>  <s_lp_Variant>  (216) 
62:0-1

>  <s_i_glide_gridfile>  (216) 
pfpi4k_grid

>  <i_i_glide_lignum>  (216) 
46

>  <i_i_glide_rotatable_bonds>  (216) 
0

>  <r_i_docking_score>  (216) 
-3.52262

>  <r_i_glide_ligand_efficiency>  (216) 
-0.293552

>  <r_i_glide_ligand_efficiency_sa>  (216) 
-0.672066

>  <r_i_glide_ligand_efficiency_ln>  (216) 
-1.01082

>  <r_i_glide_gscore>  (216) 
-3.52262

>  <r_i_glide_lipo>  (216) 
-0.252836

>  <r_i_glide_hbond>  (216) 
0

>  <r_i_glide_metal>  (216) 
-0

>  <r_i_glide_rewards>  (216) 
-2.25

>  <r_i_glide_evdw>  (216) 
-19.6145

>  <r_i_glide_ecoul>  (216) 
-0.260425

>  <r_i_glide_erotb>  (216) 
0

>  <r_i_glide_esite>  (216) 
0

>  <r_i_glide_emodel>  (216) 
-23.8649

>  <r_i_glide_energy>  (216) 
-19.8749

>  <r_i_glide_einternal>  (216) 
0

>  <r_i_glide_intrahb_reward>  (216) 
-0

>  <i_i_glide_confnum>  (216) 
2

>  <i_i_glide_posenum>  (216) 
36

>  <r_i_glide_eff_state_penalty>  (216) 
0

>  <ligand_id>  (216) 
62

>  <original_smiles>  (216) 
CC1OC2C3CC4C2C2C1C3C42

>  <smiles>  (216) 
[H]C([H])([H])C1([H])OC2([H])C3([H])C([H])([H])C4([H])C2([H])C2([H])C1([H])C3([H])C42[H]

$$$$
63:0:0
     RDKit          3D

 80 85  0  0  1  0  0  0  0  0999 V2000
    1.1981  -10.9817    3.4930 C   0  0  0  0  0  0  0  0  0  0  0  0
    1.1028   -9.5434    2.9938 C   0  0  0  0  0  0  0  0  0  0  0  0
   -0.0321   -8.8909    2.6223 C   0  0  0  0  0  0  0  0  0  0  0  0
   -1.4358   -9.5009    2.5362 C   0  0  0  0  0  0  0  0  0  0  0  0
    0.0166   -7.4186    2.3436 C   0  0  0  0  0  0  0  0  0  0  0  0
   -0.9843   -6.7376    2.1316 O   0  0  0  0  0  0  0  0  0  0  0  0
    1.2291   -6.8477    2.4131 O   0  0  0  0  0  0  0  0  0  0  0  0
    2.3954   -7.5713    2.0929 C   0  0  1  0  0  0  0  0  0  0  0  0
    3.6114   -6.6242    2.2665 C   0  0  2  0  0  0  0  0  0  0  0  0
    3.7562   -6.0792    3.6910 C   0  0  0  0  0  0  0  0  0  0  0  0
    4.2878   -4.6596    3.5743 C   0  0  0  0  0  0  0  0  0  0  0  0
    4.8044   -4.4818    2.1277 C   0  0  2  0  0  0  0  0  0  0  0  0
    6.2505   -5.0785    2.0968 C   0  0  0  0  0  0  0  0  0  0  0  0
    4.8709   -2.9725    1.6147 C   0  0  2  0  0  0  0  0  0  0  0  0
    5.6335   -1.9857    2.5123 C   0  0  0  0  0  0  0  0  0  0  0  0
    4.8591   -1.4818    3.7373 C   0  0  0  0  0  0  0  0  0  0  0  0
    3.4615   -0.9201    3.4607 C   0  0  1  0  0  0  0  0  0  0  0  0
    3.3400    0.6247    3.3405 C   0  0  1  0  0  0  0  0  0  0  0  0
    3.3754    1.2354    2.0839 O   0  0  0  0  0  0  0  0  0  0  0  0
    1.9536    0.4458    3.9656 C   0  0  1  0  0  0  0  0  0  0  0  0
    0.8675    0.0544    2.9627 C   0  0  0  0  0  0  0  0  0  0  0  0
    1.4029   -0.9650    1.9298 C   0  0  0  0  0  0  0  0  0  0  0  0
    2.7109   -1.7171    2.3385 C   0  0  1  0  0  0  0  0  0  0  0  0
    3.5622   -2.2785    1.1255 C   0  0  1  0  0  0  0  0  0  0  0  0
    3.9693   -1.1480    0.1292 C   0  0  0  0  0  0  0  0  0  0  0  0
    2.7730   -3.2893    0.2709 C   0  0  0  0  0  0  0  0  0  0  0  0
    2.5341   -4.6578    0.9262 C   0  0  1  0  0  0  0  0  0  0  0  0
    1.7603   -5.4266    0.0115 O   0  0  0  0  0  0  0  0  0  0  0  0
    3.8450   -5.4156    1.2882 C   0  0  2  0  0  0  0  0  0  0  0  0
    4.5185   -5.9122   -0.0203 C   0  0  0  0  0  0  0  0  0  0  0  0
    2.5911   -0.7116    4.7629 C   0  0  0  0  0  0  0  0  0  0  0  0
    1.6510   -1.8390    5.2010 C   0  0  0  0  0  0  0  0  0  0  0  0
    3.3049   -0.3078    6.0683 C   0  0  0  0  0  0  0  0  0  0  0  0
    2.4370   -8.8185    2.9968 C   0  0  0  0  0  0  0  0  0  0  0  0
    1.8779  -11.0277    4.3566 H   0  0  0  0  0  0  0  0  0  0  0  0
    1.6448  -11.5903    2.7047 H   0  0  0  0  0  0  0  0  0  0  0  0
    0.2132  -11.3985    3.7634 H   0  0  0  0  0  0  0  0  0  0  0  0
   -2.0312   -9.0767    1.7178 H   0  0  0  0  0  0  0  0  0  0  0  0
   -1.9746   -9.3119    3.4700 H   0  0  0  0  0  0  0  0  0  0  0  0
   -1.3196  -10.5731    2.3734 H   0  0  0  0  0  0  0  0  0  0  0  0
    2.3421   -7.8969    1.0535 H   0  0  0  0  0  0  0  0  0  0  0  0
    4.4704   -7.2709    2.1254 H   0  0  0  0  0  0  0  0  0  0  0  0
    2.8102   -6.0639    4.2321 H   0  0  0  0  0  0  0  0  0  0  0  0
    4.4474   -6.6990    4.2619 H   0  0  0  0  0  0  0  0  0  0  0  0
    3.4613   -3.9989    3.8142 H   0  0  0  0  0  0  0  0  0  0  0  0
    5.0606   -4.4711    4.3227 H   0  0  0  0  0  0  0  0  0  0  0  0
    6.7253   -4.9224    1.1204 H   0  0  0  0  0  0  0  0  0  0  0  0
    6.2548   -6.1511    2.2896 H   0  0  0  0  0  0  0  0  0  0  0  0
    6.8866   -4.6754    2.8782 H   0  0  0  0  0  0  0  0  0  0  0  0
    5.4963   -3.0517    0.7232 H   0  0  0  0  0  0  0  0  0  0  0  0
    6.5469   -2.4574    2.8222 H   0  0  0  0  0  0  0  0  0  0  0  0
    5.9635   -1.1160    1.9414 H   0  0  0  0  0  0  0  0  0  0  0  0
    4.7741   -2.2662    4.4826 H   0  0  0  0  0  0  0  0  0  0  0  0
    5.4768   -0.7154    4.2133 H   0  0  0  0  0  0  0  0  0  0  0  0
    4.0073    1.1822    4.0018 H   0  0  0  0  0  0  0  0  0  0  0  0
    4.0393    1.9222    2.0890 H   0  0  0  0  0  0  0  0  0  0  0  0
    1.6762    1.2943    4.5994 H   0  0  0  0  0  0  0  0  0  0  0  0
   -0.0076   -0.3466    3.4777 H   0  0  0  0  0  0  0  0  0  0  0  0
    0.4913    0.9279    2.4208 H   0  0  0  0  0  0  0  0  0  0  0  0
    0.6301   -1.7005    1.7014 H   0  0  0  0  0  0  0  0  0  0  0  0
    1.6154   -0.3678    1.0464 H   0  0  0  0  0  0  0  0  0  0  0  0
    2.3308   -2.6003    2.8177 H   0  0  0  0  0  0  0  0  0  0  0  0
    3.1067   -0.6883   -0.3484 H   0  0  0  0  0  0  0  0  0  0  0  0
    4.5694   -1.5473   -0.6861 H   0  0  0  0  0  0  0  0  0  0  0  0
    4.5511   -0.3469    0.5728 H   0  0  0  0  0  0  0  0  0  0  0  0
    1.8152   -2.8437    0.0021 H   0  0  0  0  0  0  0  0  0  0  0  0
    3.2929   -3.4456   -0.6696 H   0  0  0  0  0  0  0  0  0  0  0  0
    1.9546   -4.4950    1.8323 H   0  0  0  0  0  0  0  0  0  0  0  0
    2.2336   -5.4746   -0.8080 H   0  0  0  0  0  0  0  0  0  0  0  0
    4.8403   -5.0883   -0.6635 H   0  0  0  0  0  0  0  0  0  0  0  0
    3.8502   -6.5491   -0.5947 H   0  0  0  0  0  0  0  0  0  0  0  0
    5.3855   -6.5409    0.1684 H   0  0  0  0  0  0  0  0  0  0  0  0
    1.0035   -1.5172    6.0137 H   0  0  0  0  0  0  0  0  0  0  0  0
    2.2165   -2.7093    5.5236 H   0  0  0  0  0  0  0  0  0  0  0  0
    0.9793   -2.1686    4.4010 H   0  0  0  0  0  0  0  0  0  0  0  0
    2.5865    0.0414    6.8089 H   0  0  0  0  0  0  0  0  0  0  0  0
    4.0486    0.4818    5.9576 H   0  0  0  0  0  0  0  0  0  0  0  0
    3.8239   -1.1673    6.4878 H   0  0  0  0  0  0  0  0  0  0  0  0
    2.6323   -8.5260    4.0292 H   0  0  0  0  0  0  0  0  0  0  0  0
    3.2460   -9.4748    2.6719 H   0  0  0  0  0  0  0  0  0  0  0  0
  1  2  1  0
  1 35  1  0
  1 36  1  0
  1 37  1  0
  2 34  1  0
  2  3  2  0
  3  4  1  0
  3  5  1  0
  4 38  1  0
  4 39  1  0
  4 40  1  0
  5  6  2  0
  5  7  1  0
  7  8  1  0
  8  9  1  0
  8 34  1  0
  8 41  1  6
  9 29  1  0
  9 10  1  0
  9 42  1  6
 10 11  1  0
 10 43  1  0
 10 44  1  0
 11 12  1  0
 11 45  1  0
 11 46  1  0
 12 29  1  0
 12 13  1  1
 12 14  1  0
 13 47  1  0
 13 48  1  0
 13 49  1  0
 14 24  1  0
 14 15  1  0
 14 50  1  6
 15 16  1  0
 15 51  1  0
 15 52  1  0
 17 16  1  1
 16 53  1  0
 16 54  1  0
 17 23  1  0
 17 31  1  0
 17 18  1  0
 18 19  1  0
 18 20  1  0
 18 55  1  1
 19 56  1  0
 20 21  1  0
 20 31  1  0
 20 57  1  1
 21 22  1  0
 21 58  1  0
 21 59  1  0
 22 23  1  0
 22 60  1  0
 22 61  1  0
 23 24  1  0
 23 62  1  1
 24 25  1  6
 24 26  1  0
 25 63  1  0
 25 64  1  0
 25 65  1  0
 26 27  1  0
 26 66  1  0
 26 67  1  0
 27 28  1  0
 27 29  1  0
 27 68  1  1
 28 69  1  0
 29 30  1  6
 30 70  1  0
 30 71  1  0
 30 72  1  0
 31 32  1  0
 31 33  1  0
 32 73  1  0
 32 74  1  0
 32 75  1  0
 33 76  1  0
 33 77  1  0
 33 78  1  0
 34 79  1  0
 34 80  1  0
M  END
>  <i_m_ct_stereo_status>  (217) 
1

>  <s_m_source_file>  (217) 
/var/tmp/pbs.5076255.sched01/tmpos3i1bch/920fm1no0n.sdf

>  <i_m_source_file_index>  (217) 
1

>  <i_lp_mmshare_version>  (217) 
48012

>  <i_f3d_flags>  (217) 
0

>  <s_epik_input>  (217) 
W0NIM11DMT1DKFtDSDNdKUMoPU8pT1tDQEhdKFtDSDJdMSlbQ0BIXShbQ0gyXVtDSDJdMilbQ0BAXShbQ0gzXSkoW0NAQEhdKFtDSDJdMylbT0hdKVtDQEBdMihbQ0gzXSlbQ0BIXShbQ0gyXVtDSDJdNClbQ0BdMyhbQ0gzXSlbQ0BASF0oW0NAQF00NTYpW0NIMl1bQ0gyXVtDQEhdKFtDQEBIXTVbT0hdKUM2KFtDSDNdKVtDSDNd

>  <s_epik_cmdline>  (217) 
J2VwaWtfcHl0aG9uJywgJy1waHQnLCAnMi4wJywgJy1waCcsICc3LjAnLCAnLXRuJywgJzgnLCAnLW1hJywgJzIwMCcsICctaW1hZScsICc8aW5maWxlLm1hZT4nLCAnLW9tYWUnLCAnPG91dGZpbGUubWFlPic=

>  <r_lp_tautomer_probability>  (217) 
1

>  <r_epik_Ionization_Penalty>  (217) 
3.65749e-06

>  <r_epik_Ionization_Penalty_Charging>  (217) 
0

>  <r_epik_Ionization_Penalty_Neutral>  (217) 
3.65749e-06

>  <r_epik_State_Penalty>  (217) 
-0

>  <r_epik_Charging_Adjusted_Penalty>  (217) 
0

>  <i_epik_Tot_Q>  (217) 
0

>  <i_epik_Tot_abs_Q>  (217) 
0

>  <s_epik_Chemistry_Notes>  (217) 
This compound has an ester and may undergo hydrolysis at high or low pH.

>  <s_lp_Force_Field>  (217) 
OPLS3e

>  <r_lp_Energy>  (217) 
94.1726

>  <b_lp_Chiralities_Consistent>  (217) 
1

>  <s_lp_Variant>  (217) 
63:0-1

>  <s_i_glide_gridfile>  (217) 
pfpi4k_grid

>  <i_i_glide_lignum>  (217) 
1

>  <i_i_glide_rotatable_bonds>  (217) 
3

>  <r_i_docking_score>  (217) 
-4.19804

>  <r_i_glide_ligand_efficiency>  (217) 
-0.123472

>  <r_i_glide_ligand_efficiency_sa>  (217) 
-0.4

>  <r_i_glide_ligand_efficiency_ln>  (217) 
-0.927464

>  <r_i_glide_gscore>  (217) 
-4.19804

>  <r_i_glide_lipo>  (217) 
-0.67842

>  <r_i_glide_hbond>  (217) 
-0.456

>  <r_i_glide_metal>  (217) 
-0

>  <r_i_glide_rewards>  (217) 
-0.199883

>  <r_i_glide_evdw>  (217) 
-14.3418

>  <r_i_glide_ecoul>  (217) 
-14.4901

>  <r_i_glide_erotb>  (217) 
0.0912097

>  <r_i_glide_esite>  (217) 
-0.0643371

>  <r_i_glide_emodel>  (217) 
-34.0644

>  <r_i_glide_energy>  (217) 
-28.8319

>  <r_i_glide_einternal>  (217) 
3.6957

>  <r_i_glide_intrahb_reward>  (217) 
-0

>  <i_i_glide_confnum>  (217) 
3

>  <i_i_glide_posenum>  (217) 
32

>  <r_i_glide_eff_state_penalty>  (217) 
0

>  <ligand_id>  (217) 
63

>  <original_smiles>  (217) 
CC1=C(C)C(=O)OC(C2CCC3(C)C4CCC56C(O)C(CCC5C4(C)CC(O)C23C)C6(C)C)C1

>  <smiles>  (217) 
[H]OC1([H])C([H])([H])C2(C([H])([H])[H])C([H])(C([H])([H])C([H])([H])C34C([H])(O[H])C([H])(C([H])([H])C([H])([H])C23[H])C4(C([H])([H])[H])C([H])([H])[H])C2(C([H])([H])[H])C([H])([H])C([H])([H])C([H])(C3([H])OC(=O)C(C([H])([H])[H])=C(C([H])([H])[H])C3([H])[H])C12C([H])([H])[H]

$$$$
63:0:1
     RDKit          3D

 80 85  0  0  1  0  0  0  0  0999 V2000
    3.0280  -11.2550    3.3873 C   0  0  0  0  0  0  0  0  0  0  0  0
    2.6523   -9.8204    3.0362 C   0  0  0  0  0  0  0  0  0  0  0  0
    1.3763   -9.3668    2.9625 C   0  0  0  0  0  0  0  0  0  0  0  0
    0.1393  -10.2250    3.1779 C   0  0  0  0  0  0  0  0  0  0  0  0
    1.1110   -7.9042    2.7572 C   0  0  0  0  0  0  0  0  0  0  0  0
   -0.0009   -7.3963    2.8205 O   0  0  0  0  0  0  0  0  0  0  0  0
    2.2143   -7.1355    2.5747 O   0  0  0  0  0  0  0  0  0  0  0  0
    3.4156   -7.6533    2.0216 C   0  0  1  0  0  0  0  0  0  0  0  0
    4.5108   -6.5543    2.0177 C   0  0  2  0  0  0  0  0  0  0  0  0
    4.8446   -6.0083    3.4084 C   0  0  0  0  0  0  0  0  0  0  0  0
    5.1411   -4.5232    3.2351 C   0  0  0  0  0  0  0  0  0  0  0  0
    5.3570   -4.2600    1.7270 C   0  0  2  0  0  0  0  0  0  0  0  0
    6.8505   -4.6119    1.4267 C   0  0  0  0  0  0  0  0  0  0  0  0
    5.1212   -2.7641    1.2454 C   0  0  2  0  0  0  0  0  0  0  0  0
    5.9072   -1.6793    2.0070 C   0  0  0  0  0  0  0  0  0  0  0  0
    5.2971   -1.2919    3.3640 C   0  0  0  0  0  0  0  0  0  0  0  0
    3.7954   -0.9235    3.3499 C   0  0  1  0  0  0  0  0  0  0  0  0
    3.4315    0.5897    3.3082 C   0  0  1  0  0  0  0  0  0  0  0  0
    3.1453    1.2271    2.0860 O   0  0  0  0  0  0  0  0  0  0  0  0
    2.2279    0.2027    4.1517 C   0  0  1  0  0  0  0  0  0  0  0  0
    1.0397   -0.3386    3.3536 C   0  0  0  0  0  0  0  0  0  0  0  0
    1.5033   -1.2875    2.2160 C   0  0  0  0  0  0  0  0  0  0  0  0
    2.9658   -1.8234    2.3635 C   0  0  1  0  0  0  0  0  0  0  0  0
    3.6648   -2.2558    1.0135 C   0  0  1  0  0  0  0  0  0  0  0  0
    3.7384   -1.0840   -0.0082 C   0  0  0  0  0  0  0  0  0  0  0  0
    2.8684   -3.3620    0.2982 C   0  0  0  0  0  0  0  0  0  0  0  0
    2.9299   -4.7322    0.9770 C   0  0  1  0  0  0  0  0  0  0  0  0
    2.0352   -5.5379    0.2211 O   0  0  0  0  0  0  0  0  0  0  0  0
    4.3857   -5.3128    1.0594 C   0  0  2  0  0  0  0  0  0  0  0  0
    4.8747   -5.7278   -0.3470 C   0  0  0  0  0  0  0  0  0  0  0  0
    3.1563   -0.8513    4.7949 C   0  0  0  0  0  0  0  0  0  0  0  0
    2.4734   -2.1081    5.3661 C   0  0  0  0  0  0  0  0  0  0  0  0
    4.0370   -0.3548    5.9611 C   0  0  0  0  0  0  0  0  0  0  0  0
    3.8364   -8.9041    2.8093 C   0  0  0  0  0  0  0  0  0  0  0  0
    3.8619  -11.2756    4.1006 H   0  0  0  0  0  0  0  0  0  0  0  0
    3.3689  -11.7773    2.4876 H   0  0  0  0  0  0  0  0  0  0  0  0
    2.1940  -11.8256    3.8073 H   0  0  0  0  0  0  0  0  0  0  0  0
   -0.6789   -9.9140    2.5207 H   0  0  0  0  0  0  0  0  0  0  0  0
   -0.1982  -10.1165    4.2094 H   0  0  0  0  0  0  0  0  0  0  0  0
    0.3422  -11.2820    2.9983 H   0  0  0  0  0  0  0  0  0  0  0  0
    3.2248   -7.9524    0.9878 H   0  0  0  0  0  0  0  0  0  0  0  0
    5.4154   -7.0765    1.7037 H   0  0  0  0  0  0  0  0  0  0  0  0
    4.0247   -6.1417    4.1116 H   0  0  0  0  0  0  0  0  0  0  0  0
    5.7104   -6.5267    3.8212 H   0  0  0  0  0  0  0  0  0  0  0  0
    4.2858   -3.9886    3.6291 H   0  0  0  0  0  0  0  0  0  0  0  0
    5.9947   -4.2377    3.8486 H   0  0  0  0  0  0  0  0  0  0  0  0
    7.1123   -4.4275    0.3805 H   0  0  0  0  0  0  0  0  0  0  0  0
    7.0865   -5.6558    1.6249 H   0  0  0  0  0  0  0  0  0  0  0  0
    7.5375   -4.0510    2.0519 H   0  0  0  0  0  0  0  0  0  0  0  0
    5.5723   -2.7622    0.2511 H   0  0  0  0  0  0  0  0  0  0  0  0
    6.9404   -1.9825    2.0764 H   0  0  0  0  0  0  0  0  0  0  0  0
    5.9838   -0.7696    1.4148 H   0  0  0  0  0  0  0  0  0  0  0  0
    5.4518   -2.0778    4.0928 H   0  0  0  0  0  0  0  0  0  0  0  0
    5.8685   -0.4506    3.7509 H   0  0  0  0  0  0  0  0  0  0  0  0
    4.1332    1.2215    3.8372 H   0  0  0  0  0  0  0  0  0  0  0  0
    3.8680    1.8254    1.9324 H   0  0  0  0  0  0  0  0  0  0  0  0
    1.9534    0.9957    4.8536 H   0  0  0  0  0  0  0  0  0  0  0  0
    0.3393   -0.8481    4.0225 H   0  0  0  0  0  0  0  0  0  0  0  0
    0.4627    0.4850    2.9186 H   0  0  0  0  0  0  0  0  0  0  0  0
    0.8185   -2.1249    2.1560 H   0  0  0  0  0  0  0  0  0  0  0  0
    1.3995   -0.7354    1.2918 H   0  0  0  0  0  0  0  0  0  0  0  0
    2.8231   -2.7547    2.8865 H   0  0  0  0  0  0  0  0  0  0  0  0
    2.7574   -0.7302   -0.3012 H   0  0  0  0  0  0  0  0  0  0  0  0
    4.2218   -1.3957   -0.9346 H   0  0  0  0  0  0  0  0  0  0  0  0
    4.2775   -0.2116    0.3488 H   0  0  0  0  0  0  0  0  0  0  0  0
    1.8311   -3.0495    0.1948 H   0  0  0  0  0  0  0  0  0  0  0  0
    3.2277   -3.4681   -0.7254 H   0  0  0  0  0  0  0  0  0  0  0  0
    2.5209   -4.6579    1.9798 H   0  0  0  0  0  0  0  0  0  0  0  0
    2.4196   -5.6945   -0.6275 H   0  0  0  0  0  0  0  0  0  0  0  0
    4.9559   -4.8847   -1.0366 H   0  0  0  0  0  0  0  0  0  0  0  0
    4.2165   -6.4804   -0.7681 H   0  0  0  0  0  0  0  0  0  0  0  0
    5.8509   -6.2080   -0.3099 H   0  0  0  0  0  0  0  0  0  0  0  0
    1.9480   -1.8857    6.2925 H   0  0  0  0  0  0  0  0  0  0  0  0
    3.1996   -2.8925    5.5664 H   0  0  0  0  0  0  0  0  0  0  0  0
    1.7252   -2.5307    4.7015 H   0  0  0  0  0  0  0  0  0  0  0  0
    3.4320   -0.1067    6.8350 H   0  0  0  0  0  0  0  0  0  0  0  0
    4.6302    0.5360    5.7404 H   0  0  0  0  0  0  0  0  0  0  0  0
    4.7447   -1.1235    6.2684 H   0  0  0  0  0  0  0  0  0  0  0  0
    4.2335   -8.6308    3.7845 H   0  0  0  0  0  0  0  0  0  0  0  0
    4.6308   -9.4261    2.2758 H   0  0  0  0  0  0  0  0  0  0  0  0
  1  2  1  0
  1 35  1  0
  1 36  1  0
  1 37  1  0
  2 34  1  0
  2  3  2  0
  3  4  1  0
  3  5  1  0
  4 38  1  0
  4 39  1  0
  4 40  1  0
  5  6  2  0
  5  7  1  0
  7  8  1  0
  8  9  1  0
  8 34  1  0
  8 41  1  6
  9 29  1  0
  9 10  1  0
  9 42  1  6
 10 11  1  0
 10 43  1  0
 10 44  1  0
 11 12  1  0
 11 45  1  0
 11 46  1  0
 12 29  1  0
 12 13  1  6
 12 14  1  0
 13 47  1  0
 13 48  1  0
 13 49  1  0
 14 24  1  0
 14 15  1  0
 14 50  1  6
 15 16  1  0
 15 51  1  0
 15 52  1  0
 17 16  1  1
 16 53  1  0
 16 54  1  0
 17 23  1  0
 17 31  1  0
 17 18  1  0
 18 19  1  0
 18 20  1  0
 18 55  1  1
 19 56  1  0
 20 21  1  0
 20 31  1  0
 20 57  1  1
 21 22  1  0
 21 58  1  0
 21 59  1  0
 22 23  1  0
 22 60  1  0
 22 61  1  0
 23 24  1  0
 23 62  1  1
 24 25  1  6
 24 26  1  0
 25 63  1  0
 25 64  1  0
 25 65  1  0
 26 27  1  0
 26 66  1  0
 26 67  1  0
 27 28  1  0
 27 29  1  0
 27 68  1  1
 28 69  1  0
 29 30  1  6
 30 70  1  0
 30 71  1  0
 30 72  1  0
 31 32  1  0
 31 33  1  0
 32 73  1  0
 32 74  1  0
 32 75  1  0
 33 76  1  0
 33 77  1  0
 33 78  1  0
 34 79  1  0
 34 80  1  0
M  END
>  <i_m_ct_stereo_status>  (218) 
1

>  <s_m_source_file>  (218) 
/var/tmp/pbs.5076255.sched01/tmpos3i1bch/920fm1no0n.sdf

>  <i_m_source_file_index>  (218) 
1

>  <i_lp_mmshare_version>  (218) 
48012

>  <i_f3d_flags>  (218) 
0

>  <s_epik_input>  (218) 
W0NIM11DMT1DKFtDSDNdKUMoPU8pT1tDQEhdKFtDSDJdMSlbQ0BIXShbQ0gyXVtDSDJdMilbQ0BAXShbQ0gzXSkoW0NAQEhdKFtDSDJdMylbT0hdKVtDQEBdMihbQ0gzXSlbQ0BIXShbQ0gyXVtDSDJdNClbQ0BdMyhbQ0gzXSlbQ0BASF0oW0NAQF00NTYpW0NIMl1bQ0gyXVtDQEhdKFtDQEBIXTVbT0hdKUM2KFtDSDNdKVtDSDNd

>  <s_epik_cmdline>  (218) 
J2VwaWtfcHl0aG9uJywgJy1waHQnLCAnMi4wJywgJy1waCcsICc3LjAnLCAnLXRuJywgJzgnLCAnLW1hJywgJzIwMCcsICctaW1hZScsICc8aW5maWxlLm1hZT4nLCAnLW9tYWUnLCAnPG91dGZpbGUubWFlPic=

>  <r_lp_tautomer_probability>  (218) 
1

>  <r_epik_Ionization_Penalty>  (218) 
3.65749e-06

>  <r_epik_Ionization_Penalty_Charging>  (218) 
0

>  <r_epik_Ionization_Penalty_Neutral>  (218) 
3.65749e-06

>  <r_epik_State_Penalty>  (218) 
-0

>  <r_epik_Charging_Adjusted_Penalty>  (218) 
0

>  <i_epik_Tot_Q>  (218) 
0

>  <i_epik_Tot_abs_Q>  (218) 
0

>  <s_epik_Chemistry_Notes>  (218) 
This compound has an ester and may undergo hydrolysis at high or low pH.

>  <s_lp_Force_Field>  (218) 
OPLS3e

>  <r_lp_Energy>  (218) 
94.1726

>  <b_lp_Chiralities_Consistent>  (218) 
1

>  <s_lp_Variant>  (218) 
63:0-1

>  <s_i_glide_gridfile>  (218) 
pfpi4k_grid

>  <i_i_glide_lignum>  (218) 
1

>  <i_i_glide_rotatable_bonds>  (218) 
3

>  <r_i_docking_score>  (218) 
-3.20931

>  <r_i_glide_ligand_efficiency>  (218) 
-0.0943914

>  <r_i_glide_ligand_efficiency_sa>  (218) 
-0.305792

>  <r_i_glide_ligand_efficiency_ln>  (218) 
-0.709026

>  <r_i_glide_gscore>  (218) 
-3.20931

>  <r_i_glide_lipo>  (218) 
-0.492449

>  <r_i_glide_hbond>  (218) 
-0.305445

>  <r_i_glide_metal>  (218) 
-0

>  <r_i_glide_rewards>  (218) 
-0.199883

>  <r_i_glide_evdw>  (218) 
-21.3415

>  <r_i_glide_ecoul>  (218) 
-8.07822

>  <r_i_glide_erotb>  (218) 
0.0912097

>  <r_i_glide_esite>  (218) 
-0.0239328

>  <r_i_glide_emodel>  (218) 
-33.5555

>  <r_i_glide_energy>  (218) 
-29.4198

>  <r_i_glide_einternal>  (218) 
2.57467

>  <r_i_glide_intrahb_reward>  (218) 
-0

>  <i_i_glide_confnum>  (218) 
3

>  <i_i_glide_posenum>  (218) 
19

>  <r_i_glide_eff_state_penalty>  (218) 
0

>  <ligand_id>  (218) 
63

>  <original_smiles>  (218) 
CC1=C(C)C(=O)OC(C2CCC3(C)C4CCC56C(O)C(CCC5C4(C)CC(O)C23C)C6(C)C)C1

>  <smiles>  (218) 
[H]OC1([H])C([H])([H])C2(C([H])([H])[H])C([H])(C([H])([H])C([H])([H])C34C([H])(O[H])C([H])(C([H])([H])C([H])([H])C23[H])C4(C([H])([H])[H])C([H])([H])[H])C2(C([H])([H])[H])C([H])([H])C([H])([H])C([H])(C3([H])OC(=O)C(C([H])([H])[H])=C(C([H])([H])[H])C3([H])[H])C12C([H])([H])[H]

$$$$
63:0:2
     RDKit          3D

 80 85  0  0  1  0  0  0  0  0999 V2000
    1.0540  -10.9888    3.6266 C   0  0  0  0  0  0  0  0  0  0  0  0
    0.9785   -9.5612    3.0889 C   0  0  0  0  0  0  0  0  0  0  0  0
   -0.1426   -8.9019    2.6864 C   0  0  0  0  0  0  0  0  0  0  0  0
   -1.5548   -9.4775    2.5988 C   0  0  0  0  0  0  0  0  0  0  0  0
   -0.0677   -7.4405    2.3618 C   0  0  0  0  0  0  0  0  0  0  0  0
   -1.0433   -6.7610    2.1004 O   0  0  0  0  0  0  0  0  0  0  0  0
    1.1429   -6.8797    2.4503 O   0  0  0  0  0  0  0  0  0  0  0  0
    2.3031   -7.6197    2.1565 C   0  0  1  0  0  0  0  0  0  0  0  0
    3.5281   -6.6832    2.3182 C   0  0  2  0  0  0  0  0  0  0  0  0
    3.6646   -6.1100    3.7317 C   0  0  0  0  0  0  0  0  0  0  0  0
    4.2116   -4.6991    3.5902 C   0  0  0  0  0  0  0  0  0  0  0  0
    4.7394   -4.5556    2.1446 C   0  0  2  0  0  0  0  0  0  0  0  0
    6.1802   -5.1500    2.1450 C   0  0  0  0  0  0  0  0  0  0  0  0
    4.8329   -3.0621    1.5969 C   0  0  2  0  0  0  0  0  0  0  0  0
    5.5972   -2.0623    2.4814 C   0  0  0  0  0  0  0  0  0  0  0  0
    4.8196   -1.5310    3.6929 C   0  0  0  0  0  0  0  0  0  0  0  0
    3.4263   -0.9669    3.3933 C   0  0  1  0  0  0  0  0  0  0  0  0
    3.3231    0.5613    3.2308 C   0  0  1  0  0  0  0  0  0  0  0  0
    3.3507    1.0759    1.9272 O   0  0  0  0  0  0  0  0  0  0  0  0
    1.9319    0.4337    3.8451 C   0  0  1  0  0  0  0  0  0  0  0  0
    0.8483    0.0340    2.8490 C   0  0  0  0  0  0  0  0  0  0  0  0
    1.3965   -1.0088    1.8403 C   0  0  0  0  0  0  0  0  0  0  0  0
    2.6826   -1.7744    2.2812 C   0  0  1  0  0  0  0  0  0  0  0  0
    3.5412   -2.3643    1.0841 C   0  0  1  0  0  0  0  0  0  0  0  0
    3.9634   -1.2630    0.0628 C   0  0  0  0  0  0  0  0  0  0  0  0
    2.7494   -3.3836    0.2408 C   0  0  0  0  0  0  0  0  0  0  0  0
    2.4836   -4.7277    0.9395 C   0  0  1  0  0  0  0  0  0  0  0  0
    1.6886   -5.4949    0.0499 O   0  0  0  0  0  0  0  0  0  0  0  0
    3.7821   -5.4975    1.3196 C   0  0  2  0  0  0  0  0  0  0  0  0
    4.4627   -6.0245    0.0302 C   0  0  0  0  0  0  0  0  0  0  0  0
    2.5496   -0.7095    4.6825 C   0  0  0  0  0  0  0  0  0  0  0  0
    1.5904   -1.8203    5.1358 C   0  0  0  0  0  0  0  0  0  0  0  0
    3.2578   -0.2855    5.9792 C   0  0  0  0  0  0  0  0  0  0  0  0
    2.3221   -8.8529    3.0858 C   0  0  0  0  0  0  0  0  0  0  0  0
    1.7420  -11.0198    4.4841 H   0  0  0  0  0  0  0  0  0  0  0  0
    1.4995  -11.6251    2.8624 H   0  0  0  0  0  0  0  0  0  0  0  0
    0.0699  -11.3872    3.9081 H   0  0  0  0  0  0  0  0  0  0  0  0
   -2.1460   -9.0505    1.7776 H   0  0  0  0  0  0  0  0  0  0  0  0
   -2.1032   -9.2751    3.5235 H   0  0  0  0  0  0  0  0  0  0  0  0
   -1.4448  -10.5474    2.4437 H   0  0  0  0  0  0  0  0  0  0  0  0
    2.2458   -7.9654    1.1235 H   0  0  0  0  0  0  0  0  0  0  0  0
    4.3807   -7.3418    2.1956 H   0  0  0  0  0  0  0  0  0  0  0  0
    2.7144   -6.0710    4.2636 H   0  0  0  0  0  0  0  0  0  0  0  0
    4.3458   -6.7240    4.3194 H   0  0  0  0  0  0  0  0  0  0  0  0
    3.3929   -4.0231    3.8082 H   0  0  0  0  0  0  0  0  0  0  0  0
    4.9791   -4.5021    4.3399 H   0  0  0  0  0  0  0  0  0  0  0  0
    6.6760   -5.0270    1.1796 H   0  0  0  0  0  0  0  0  0  0  0  0
    6.1900   -6.2151    2.3778 H   0  0  0  0  0  0  0  0  0  0  0  0
    6.8063   -4.6714    2.8853 H   0  0  0  0  0  0  0  0  0  0  0  0
    5.4647   -3.1667    0.7119 H   0  0  0  0  0  0  0  0  0  0  0  0
    6.4984   -2.5384    2.8151 H   0  0  0  0  0  0  0  0  0  0  0  0
    5.9413   -1.2093    1.8923 H   0  0  0  0  0  0  0  0  0  0  0  0
    4.7233   -2.2993    4.4530 H   0  0  0  0  0  0  0  0  0  0  0  0
    5.4359   -0.7515    4.1485 H   0  0  0  0  0  0  0  0  0  0  0  0
    3.9901    1.1493    3.8512 H   0  0  0  0  0  0  0  0  0  0  0  0
    2.6357    0.6750    1.4827 H   0  0  0  0  0  0  0  0  0  0  0  0
    1.6600    1.3052    4.4615 H   0  0  0  0  0  0  0  0  0  0  0  0
   -0.0329   -0.3530    3.3585 H   0  0  0  0  0  0  0  0  0  0  0  0
    0.4798    0.9013    2.2912 H   0  0  0  0  0  0  0  0  0  0  0  0
    0.6323   -1.7615    1.6318 H   0  0  0  0  0  0  0  0  0  0  0  0
    1.6326   -0.4332    0.9478 H   0  0  0  0  0  0  0  0  0  0  0  0
    2.2795   -2.6403    2.7712 H   0  0  0  0  0  0  0  0  0  0  0  0
    3.1115   -0.8083   -0.4378 H   0  0  0  0  0  0  0  0  0  0  0  0
    4.5655   -1.6879   -0.7374 H   0  0  0  0  0  0  0  0  0  0  0  0
    4.5593   -0.4597    0.4854 H   0  0  0  0  0  0  0  0  0  0  0  0
    1.8115   -2.9211   -0.0587 H   0  0  0  0  0  0  0  0  0  0  0  0
    3.2857   -3.5719   -0.6883 H   0  0  0  0  0  0  0  0  0  0  0  0
    1.8955   -4.5358    1.8337 H   0  0  0  0  0  0  0  0  0  0  0  0
    2.1737   -5.5957   -0.7582 H   0  0  0  0  0  0  0  0  0  0  0  0
    4.7936   -5.2238   -0.6339 H   0  0  0  0  0  0  0  0  0  0  0  0
    3.7987   -6.6646   -0.5337 H   0  0  0  0  0  0  0  0  0  0  0  0
    5.3227   -6.6544    0.2401 H   0  0  0  0  0  0  0  0  0  0  0  0
    0.9425   -1.4688    5.9407 H   0  0  0  0  0  0  0  0  0  0  0  0
    2.1521   -2.6891    5.4828 H   0  0  0  0  0  0  0  0  0  0  0  0
    0.9223   -2.1587    4.3354 H   0  0  0  0  0  0  0  0  0  0  0  0
    2.5375    0.0897    6.7078 H   0  0  0  0  0  0  0  0  0  0  0  0
    4.0101    0.4952    5.8491 H   0  0  0  0  0  0  0  0  0  0  0  0
    3.7663   -1.1413    6.4220 H   0  0  0  0  0  0  0  0  0  0  0  0
    2.5120   -8.5398    4.1140 H   0  0  0  0  0  0  0  0  0  0  0  0
    3.1259   -9.5256    2.7785 H   0  0  0  0  0  0  0  0  0  0  0  0
  1  2  1  0
  1 35  1  0
  1 36  1  0
  1 37  1  0
  2 34  1  0
  2  3  2  0
  3  4  1  0
  3  5  1  0
  4 38  1  0
  4 39  1  0
  4 40  1  0
  5  6  2  0
  5  7  1  0
  7  8  1  0
  8  9  1  0
  8 34  1  0
  8 41  1  6
  9 29  1  0
  9 10  1  0
  9 42  1  6
 10 11  1  0
 10 43  1  0
 10 44  1  0
 11 12  1  0
 11 45  1  0
 11 46  1  0
 12 29  1  0
 12 13  1  1
 12 14  1  0
 13 47  1  0
 13 48  1  0
 13 49  1  0
 14 24  1  0
 14 15  1  0
 14 50  1  6
 15 16  1  0
 15 51  1  0
 15 52  1  0
 17 16  1  1
 16 53  1  0
 16 54  1  0
 17 23  1  0
 17 31  1  0
 17 18  1  0
 18 19  1  0
 18 20  1  0
 18 55  1  1
 19 56  1  0
 20 21  1  0
 20 31  1  0
 20 57  1  1
 21 22  1  0
 21 58  1  0
 21 59  1  0
 22 23  1  0
 22 60  1  0
 22 61  1  0
 23 24  1  0
 23 62  1  1
 24 25  1  6
 24 26  1  0
 25 63  1  0
 25 64  1  0
 25 65  1  0
 26 27  1  0
 26 66  1  0
 26 67  1  0
 27 28  1  0
 27 29  1  0
 27 68  1  1
 28 69  1  0
 29 30  1  6
 30 70  1  0
 30 71  1  0
 30 72  1  0
 31 32  1  0
 31 33  1  0
 32 73  1  0
 32 74  1  0
 32 75  1  0
 33 76  1  0
 33 77  1  0
 33 78  1  0
 34 79  1  0
 34 80  1  0
M  END
>  <i_m_ct_stereo_status>  (219) 
1

>  <s_m_source_file>  (219) 
/var/tmp/pbs.5076255.sched01/tmpos3i1bch/920fm1no0n.sdf

>  <i_m_source_file_index>  (219) 
1

>  <i_lp_mmshare_version>  (219) 
48012

>  <i_f3d_flags>  (219) 
0

>  <s_epik_input>  (219) 
W0NIM11DMT1DKFtDSDNdKUMoPU8pT1tDQEhdKFtDSDJdMSlbQ0BIXShbQ0gyXVtDSDJdMilbQ0BAXShbQ0gzXSkoW0NAQEhdKFtDSDJdMylbT0hdKVtDQEBdMihbQ0gzXSlbQ0BIXShbQ0gyXVtDSDJdNClbQ0BdMyhbQ0gzXSlbQ0BASF0oW0NAQF00NTYpW0NIMl1bQ0gyXVtDQEhdKFtDQEBIXTVbT0hdKUM2KFtDSDNdKVtDSDNd

>  <s_epik_cmdline>  (219) 
J2VwaWtfcHl0aG9uJywgJy1waHQnLCAnMi4wJywgJy1waCcsICc3LjAnLCAnLXRuJywgJzgnLCAnLW1hJywgJzIwMCcsICctaW1hZScsICc8aW5maWxlLm1hZT4nLCAnLW9tYWUnLCAnPG91dGZpbGUubWFlPic=

>  <r_lp_tautomer_probability>  (219) 
1

>  <r_epik_Ionization_Penalty>  (219) 
3.65749e-06

>  <r_epik_Ionization_Penalty_Charging>  (219) 
0

>  <r_epik_Ionization_Penalty_Neutral>  (219) 
3.65749e-06

>  <r_epik_State_Penalty>  (219) 
-0

>  <r_epik_Charging_Adjusted_Penalty>  (219) 
0

>  <i_epik_Tot_Q>  (219) 
0

>  <i_epik_Tot_abs_Q>  (219) 
0

>  <s_epik_Chemistry_Notes>  (219) 
This compound has an ester and may undergo hydrolysis at high or low pH.

>  <s_lp_Force_Field>  (219) 
OPLS3e

>  <r_lp_Energy>  (219) 
94.1726

>  <b_lp_Chiralities_Consistent>  (219) 
1

>  <s_lp_Variant>  (219) 
63:0-1

>  <s_i_glide_gridfile>  (219) 
pfpi4k_grid

>  <i_i_glide_lignum>  (219) 
1

>  <i_i_glide_rotatable_bonds>  (219) 
3

>  <r_i_docking_score>  (219) 
-3.05206

>  <r_i_glide_ligand_efficiency>  (219) 
-0.0897665

>  <r_i_glide_ligand_efficiency_sa>  (219) 
-0.290809

>  <r_i_glide_ligand_efficiency_ln>  (219) 
-0.674286

>  <r_i_glide_gscore>  (219) 
-3.05206

>  <r_i_glide_lipo>  (219) 
-0.598118

>  <r_i_glide_hbond>  (219) 
-0.16

>  <r_i_glide_metal>  (219) 
-0

>  <r_i_glide_rewards>  (219) 
-0.199883

>  <r_i_glide_evdw>  (219) 
-15.2167

>  <r_i_glide_ecoul>  (219) 
-9.05689

>  <r_i_glide_erotb>  (219) 
0.0912097

>  <r_i_glide_esite>  (219) 
-0.0659045

>  <r_i_glide_emodel>  (219) 
-27.6678

>  <r_i_glide_energy>  (219) 
-24.2736

>  <r_i_glide_einternal>  (219) 
2.21059

>  <r_i_glide_intrahb_reward>  (219) 
-0

>  <i_i_glide_confnum>  (219) 
3

>  <i_i_glide_posenum>  (219) 
12

>  <r_i_glide_eff_state_penalty>  (219) 
0

>  <ligand_id>  (219) 
63

>  <original_smiles>  (219) 
CC1=C(C)C(=O)OC(C2CCC3(C)C4CCC56C(O)C(CCC5C4(C)CC(O)C23C)C6(C)C)C1

>  <smiles>  (219) 
[H]OC1([H])C([H])([H])C2(C([H])([H])[H])C([H])(C([H])([H])C([H])([H])C34C([H])(O[H])C([H])(C([H])([H])C([H])([H])C23[H])C4(C([H])([H])[H])C([H])([H])[H])C2(C([H])([H])[H])C([H])([H])C([H])([H])C([H])(C3([H])OC(=O)C(C([H])([H])[H])=C(C([H])([H])[H])C3([H])[H])C12C([H])([H])[H]

$$$$
64:0:0
     RDKit          3D

 90 96  0  0  1  0  0  0  0  0999 V2000
    2.2891    4.2172    7.6400 C   0  0  0  0  0  0  0  0  0  0  0  0
    1.5333    3.1296    7.4203 C   0  0  0  0  0  0  0  0  0  0  0  0
    1.8838    1.8652    8.1041 C   0  0  0  0  0  0  0  0  0  0  0  0
    2.9690    1.7350    8.6915 O   0  0  0  0  0  0  0  0  0  0  0  0
    0.8874    0.6842    8.0834 C   0  0  1  0  0  0  0  0  0  0  0  0
    1.4002   -0.2087    9.1135 O   0  0  0  0  0  0  0  0  0  0  0  0
    0.8451   -1.3667    9.5792 C   0  0  0  0  0  0  0  0  0  0  0  0
    1.6747   -1.9957   10.6889 C   0  0  0  0  0  0  0  0  0  0  0  0
   -0.1855   -1.9087    9.1836 O   0  0  0  0  0  0  0  0  0  0  0  0
   -0.4982    1.2116    8.7280 C   0  0  1  0  0  0  0  0  0  0  0  0
   -0.3341    1.8583   10.1312 C   0  0  0  0  0  0  0  0  0  0  0  0
   -1.5009    2.0927    7.9290 C   0  0  0  0  0  0  0  0  0  0  0  0
   -0.9470    3.3726    7.3083 C   0  0  0  0  0  0  0  0  0  0  0  0
    0.3248    3.1484    6.4834 C   0  0  2  0  0  0  0  0  0  0  0  0
    0.1574    2.0732    5.3312 C   0  0  1  0  0  0  0  0  0  0  0  0
    0.0763    2.7632    3.9439 C   0  0  1  0  0  0  0  0  0  0  0  0
   -1.0790    3.7786    3.7985 C   0  0  0  0  0  0  0  0  0  0  0  0
    1.4448    3.2688    3.4225 C   0  0  1  0  0  0  0  0  0  0  0  0
    1.9007    4.6696    3.8603 C   0  0  0  0  0  0  0  0  0  0  0  0
    2.5502    2.2333    3.6114 C   0  0  0  0  0  0  0  0  0  0  0  0
    2.4810    1.4071    4.9154 C   0  0  0  0  0  0  0  0  0  0  0  0
    1.0953    0.7744    5.3012 C   0  0  2  0  0  0  0  0  0  0  0  0
    0.5902   -0.4200    4.3078 C   0  0  1  0  0  0  0  0  0  0  0  0
    0.7878   -1.8071    4.5623 O   0  0  0  0  0  0  0  0  0  0  0  0
   -0.8090   -0.7181    4.8391 C   0  0  0  0  0  0  0  0  0  0  0  0
   -0.4402   -0.7743    6.3755 C   0  0  0  0  0  0  0  0  0  0  0  0
    0.9889   -0.0735    6.6268 C   0  0  2  0  0  0  0  0  0  0  0  0
    2.4008   -0.9587    6.6424 C   0  0  0  0  0  0  0  0  0  0  0  0
    3.2505   -1.9067    5.5844 C   0  0  2  0  0  0  0  0  0  0  0  0
    2.7674   -3.3905    5.7625 C   0  0  0  0  0  0  0  0  0  0  0  0
    4.7113   -1.9166    6.1964 C   0  0  1  0  0  0  0  0  0  0  0  0
    5.5893   -3.1829    5.9851 C   0  0  0  0  0  0  0  0  0  0  0  0
    5.4266   -0.7328    5.5541 C   0  0  0  0  0  0  0  0  0  0  0  0
    5.0165   -0.7943    4.0919 C   0  0  0  0  0  0  0  0  0  0  0  0
    3.6535   -1.5326    4.0243 C   0  0  2  0  0  0  0  0  0  0  0  0
    2.7413   -0.9781    2.8365 C   0  0  1  0  0  0  0  0  0  0  0  0
    3.5516   -0.6024    1.6062 C   0  0  0  0  0  0  0  0  0  0  0  0
    1.6683   -1.8783    2.4319 O   0  0  0  0  0  0  0  0  0  0  0  0
    1.2132   -0.6032    2.9274 C   0  0  1  0  0  0  0  0  0  0  0  0
    0.7287    0.2439    1.8724 O   0  0  0  0  0  0  0  0  0  0  0  0
    2.0718    5.1636    7.1719 H   0  0  0  0  0  0  0  0  0  0  0  0
    3.1398    4.2010    8.3062 H   0  0  0  0  0  0  0  0  0  0  0  0
    1.7972   -1.2990   11.5132 H   0  0  0  0  0  0  0  0  0  0  0  0
    2.6538   -2.2780   10.3122 H   0  0  0  0  0  0  0  0  0  0  0  0
    1.1818   -2.8904   11.0658 H   0  0  0  0  0  0  0  0  0  0  0  0
   -1.0877    0.3350    8.9462 H   0  0  0  0  0  0  0  0  0  0  0  0
    0.1437    2.8382   10.0904 H   0  0  0  0  0  0  0  0  0  0  0  0
    0.2430    1.2367   10.8156 H   0  0  0  0  0  0  0  0  0  0  0  0
   -1.3055    2.0002   10.6117 H   0  0  0  0  0  0  0  0  0  0  0  0
   -2.0370    1.5297    7.1722 H   0  0  0  0  0  0  0  0  0  0  0  0
   -2.3074    2.3943    8.6015 H   0  0  0  0  0  0  0  0  0  0  0  0
   -1.7199    3.8057    6.6697 H   0  0  0  0  0  0  0  0  0  0  0  0
   -0.7598    4.1157    8.0851 H   0  0  0  0  0  0  0  0  0  0  0  0
    0.4430    4.1101    5.9876 H   0  0  0  0  0  0  0  0  0  0  0  0
   -0.8576    1.7439    5.4651 H   0  0  0  0  0  0  0  0  0  0  0  0
   -0.2351    1.9862    3.2570 H   0  0  0  0  0  0  0  0  0  0  0  0
   -0.9468    4.6724    4.4039 H   0  0  0  0  0  0  0  0  0  0  0  0
   -2.0310    3.3281    4.0779 H   0  0  0  0  0  0  0  0  0  0  0  0
   -1.1754    4.1050    2.7638 H   0  0  0  0  0  0  0  0  0  0  0  0
    1.3454    3.3546    2.3366 H   0  0  0  0  0  0  0  0  0  0  0  0
    2.2598    4.6769    4.8876 H   0  0  0  0  0  0  0  0  0  0  0  0
    1.1114    5.4120    3.7558 H   0  0  0  0  0  0  0  0  0  0  0  0
    2.7249    5.0144    3.2362 H   0  0  0  0  0  0  0  0  0  0  0  0
    2.5662    1.6118    2.7355 H   0  0  0  0  0  0  0  0  0  0  0  0
    3.5197    2.7301    3.5810 H   0  0  0  0  0  0  0  0  0  0  0  0
    3.2474    0.6785    4.8842 H   0  0  0  0  0  0  0  0  0  0  0  0
    2.8697    2.0681    5.6731 H   0  0  0  0  0  0  0  0  0  0  0  0
    1.6905   -2.0383    4.4207 H   0  0  0  0  0  0  0  0  0  0  0  0
   -1.4961    0.0826    4.5666 H   0  0  0  0  0  0  0  0  0  0  0  0
   -1.3444   -1.6065    4.4796 H   0  0  0  0  0  0  0  0  0  0  0  0
   -1.2795   -0.3391    6.8963 H   0  0  0  0  0  0  0  0  0  0  0  0
   -0.4016   -1.8144    6.7092 H   0  0  0  0  0  0  0  0  0  0  0  0
    3.1347   -0.2507    7.0177 H   0  0  0  0  0  0  0  0  0  0  0  0
    2.2915   -1.6656    7.4561 H   0  0  0  0  0  0  0  0  0  0  0  0
    3.1482   -4.0583    4.9869 H   0  0  0  0  0  0  0  0  0  0  0  0
    1.6917   -3.5421    5.8186 H   0  0  0  0  0  0  0  0  0  0  0  0
    3.1031   -3.7932    6.7187 H   0  0  0  0  0  0  0  0  0  0  0  0
    4.6832   -1.7682    7.2767 H   0  0  0  0  0  0  0  0  0  0  0  0
    5.6405   -3.4891    4.9396 H   0  0  0  0  0  0  0  0  0  0  0  0
    5.2509   -4.0371    6.5740 H   0  0  0  0  0  0  0  0  0  0  0  0
    6.6139   -2.9927    6.3138 H   0  0  0  0  0  0  0  0  0  0  0  0
    5.0880    0.2017    6.0071 H   0  0  0  0  0  0  0  0  0  0  0  0
    6.5077   -0.7550    5.6914 H   0  0  0  0  0  0  0  0  0  0  0  0
    5.0085    0.2140    3.6922 H   0  0  0  0  0  0  0  0  0  0  0  0
    5.7623   -1.3420    3.5130 H   0  0  0  0  0  0  0  0  0  0  0  0
    3.9397   -2.5016    3.6199 H   0  0  0  0  0  0  0  0  0  0  0  0
    4.0700    0.3427    1.7399 H   0  0  0  0  0  0  0  0  0  0  0  0
    2.9100   -0.4849    0.7332 H   0  0  0  0  0  0  0  0  0  0  0  0
    4.2865   -1.3665    1.3730 H   0  0  0  0  0  0  0  0  0  0  0  0
    0.8224   -0.2077    1.0493 H   0  0  0  0  0  0  0  0  0  0  0  0
  1  2  2  0
  1 41  1  0
  1 42  1  0
  2 14  1  0
  2  3  1  0
  3  4  2  0
  3  5  1  0
  5 27  1  0
  5  6  1  1
  5 10  1  0
  6  7  1  0
  7  8  1  0
  7  9  2  0
  8 43  1  0
  8 44  1  0
  8 45  1  0
 10 11  1  0
 10 12  1  0
 10 46  1  1
 11 47  1  0
 11 48  1  0
 11 49  1  0
 12 13  1  0
 12 50  1  0
 12 51  1  0
 13 14  1  0
 13 52  1  0
 13 53  1  0
 14 15  1  0
 14 54  1  6
 15 22  1  0
 15 16  1  0
 15 55  1  1
 16 17  1  0
 16 18  1  0
 16 56  1  6
 17 57  1  0
 17 58  1  0
 17 59  1  0
 18 19  1  0
 18 20  1  0
 18 60  1  6
 19 61  1  0
 19 62  1  0
 19 63  1  0
 20 21  1  0
 20 64  1  0
 20 65  1  0
 22 21  1  6
 21 66  1  0
 21 67  1  0
 22 27  1  0
 22 23  1  0
 23 39  1  0
 23 24  1  1
 23 25  1  0
 24 68  1  0
 25 26  1  0
 25 69  1  0
 25 70  1  0
 27 26  1  6
 26 71  1  0
 26 72  1  0
 27 28  1  0
 28 29  1  0
 28 73  1  0
 28 74  1  0
 29 35  1  0
 29 30  1  6
 29 31  1  0
 30 75  1  0
 30 76  1  0
 30 77  1  0
 31 32  1  0
 31 33  1  0
 31 78  1  1
 32 79  1  0
 32 80  1  0
 32 81  1  0
 33 34  1  0
 33 82  1  0
 33 83  1  0
 34 35  1  0
 34 84  1  0
 34 85  1  0
 35 36  1  0
 35 86  1  6
 36 39  1  0
 36 37  1  6
 36 38  1  0
 37 87  1  0
 37 88  1  0
 37 89  1  0
 38 39  1  0
 39 40  1  6
 40 90  1  0
M  END
>  <i_m_ct_stereo_status>  (220) 
1

>  <s_m_source_file>  (220) 
/var/tmp/pbs.5076255.sched01/tmpos3i1bch/920fm1no0n.sdf

>  <i_m_source_file_index>  (220) 
2

>  <i_lp_mmshare_version>  (220) 
48012

>  <i_f3d_flags>  (220) 
0

>  <s_epik_input>  (220) 
W0NIMl0xW0NIMl1bQ0BIXShbQ0gzXSlbQ0BIXShbQ0gzXSlbQ0BASF0yW0NAQEhdKFtDSDJdW0NIMl1bQ0BASF0zW0NIM10pQyg9W0NIMl0pQyg9TylbQ0BdMyhPQyg9TylbQ0gzXSlbQ0BdNChbQ0BdMTI1KVtDSDJdW0NIMl1bQ0BAXTUoW09IXSlbQ0BAXTYoW09IXSlbQ0BAXShPNikoW0NIM10pW0NAQEhdN1tDQEBdKFtDSDJdNCkoW0NIM10pW0NAQEhdKFtDSDNdKVtDSDJdW0NIMl03

>  <s_epik_cmdline>  (220) 
J2VwaWtfcHl0aG9uJywgJy1waHQnLCAnMi4wJywgJy1waCcsICc3LjAnLCAnLXRuJywgJzgnLCAnLW1hJywgJzIwMCcsICctaW1hZScsICc8aW5maWxlLm1hZT4nLCAnLW9tYWUnLCAnPG91dGZpbGUubWFlPic=

>  <r_lp_tautomer_probability>  (220) 
1

>  <r_epik_Ionization_Penalty>  (220) 
1.75883e-06

>  <r_epik_Ionization_Penalty_Charging>  (220) 
0

>  <r_epik_Ionization_Penalty_Neutral>  (220) 
1.75883e-06

>  <r_epik_State_Penalty>  (220) 
-0

>  <r_epik_Charging_Adjusted_Penalty>  (220) 
0

>  <i_epik_Tot_Q>  (220) 
0

>  <i_epik_Tot_abs_Q>  (220) 
0

>  <s_epik_Chemistry_Notes>  (220) 
This compound has an ester and may undergo hydrolysis at high or low pH.

>  <s_lp_Force_Field>  (220) 
OPLS3e

>  <r_lp_Energy>  (220) 
263.338

>  <b_lp_Chiralities_Consistent>  (220) 
1

>  <s_lp_Variant>  (220) 
64:0-1

>  <s_i_glide_gridfile>  (220) 
pfpi4k_grid

>  <i_i_glide_lignum>  (220) 
2

>  <i_i_glide_rotatable_bonds>  (220) 
4

>  <r_i_docking_score>  (220) 
-2.05936

>  <r_i_glide_ligand_efficiency>  (220) 
-0.051484

>  <r_i_glide_ligand_efficiency_sa>  (220) 
-0.176073

>  <r_i_glide_ligand_efficiency_ln>  (220) 
-0.439201

>  <r_i_glide_gscore>  (220) 
-2.05936

>  <r_i_glide_lipo>  (220) 
-0.128715

>  <r_i_glide_hbond>  (220) 
-0.16

>  <r_i_glide_metal>  (220) 
-0

>  <r_i_glide_rewards>  (220) 
0

>  <r_i_glide_evdw>  (220) 
-26.7931

>  <r_i_glide_ecoul>  (220) 
-2.99667

>  <r_i_glide_erotb>  (220) 
0.0674501

>  <r_i_glide_esite>  (220) 
-0.0489415

>  <r_i_glide_emodel>  (220) 
-33.2684

>  <r_i_glide_energy>  (220) 
-29.7897

>  <r_i_glide_einternal>  (220) 
1.17157

>  <r_i_glide_intrahb_reward>  (220) 
-0

>  <i_i_glide_confnum>  (220) 
1

>  <i_i_glide_posenum>  (220) 
9

>  <r_i_glide_eff_state_penalty>  (220) 
0

>  <ligand_id>  (220) 
64

>  <original_smiles>  (220) 
C=C1C(=O)C2(OC(C)=O)C(C)CCC1C1C(C)C(C)CCC13C1(O)CCC23CC2(C)C(C)CCC2C2(C)OC21O

>  <smiles>  (220) 
[H]OC12OC1(C([H])([H])[H])C1([H])C([H])([H])C([H])([H])C([H])(C([H])([H])[H])C1(C([H])([H])[H])C([H])([H])C13C([H])([H])C([H])([H])C2(O[H])C12C([H])([H])C([H])([H])C([H])(C([H])([H])[H])C([H])(C([H])([H])[H])C2([H])C1([H])C(=C([H])[H])C(=O)C3(OC(=O)C([H])([H])[H])C([H])(C([H])([H])[H])C([H])([H])C1([H])[H]

$$$$
64:0:1
     RDKit          3D

 90 96  0  0  1  0  0  0  0  0999 V2000
    0.3795    5.7911    6.3125 C   0  0  0  0  0  0  0  0  0  0  0  0
    0.2279    4.4934    6.6242 C   0  0  0  0  0  0  0  0  0  0  0  0
    0.4306    4.0670    8.0289 C   0  0  0  0  0  0  0  0  0  0  0  0
    0.9319    4.8200    8.8723 O   0  0  0  0  0  0  0  0  0  0  0  0
    0.0232    2.6402    8.4611 C   0  0  1  0  0  0  0  0  0  0  0  0
    0.0253    2.7207    9.9152 O   0  0  0  0  0  0  0  0  0  0  0  0
   -0.3087    1.7529   10.8098 C   0  0  0  0  0  0  0  0  0  0  0  0
   -0.1811    2.2213   12.2477 C   0  0  0  0  0  0  0  0  0  0  0  0
   -0.5930    0.5871   10.5436 O   0  0  0  0  0  0  0  0  0  0  0  0
   -1.5506    2.4618    8.1436 C   0  0  1  0  0  0  0  0  0  0  0  0
   -2.4439    3.5870    8.7390 C   0  0  0  0  0  0  0  0  0  0  0  0
   -2.0637    2.2057    6.6958 C   0  0  0  0  0  0  0  0  0  0  0  0
   -1.6229    3.1894    5.6123 C   0  0  0  0  0  0  0  0  0  0  0  0
   -0.1109    3.4254    5.5850 C   0  0  2  0  0  0  0  0  0  0  0  0
    0.7525    2.1059    5.4240 C   0  0  1  0  0  0  0  0  0  0  0  0
    1.3329    1.9912    3.9920 C   0  0  1  0  0  0  0  0  0  0  0  0
    0.2784    1.9885    2.8700 C   0  0  0  0  0  0  0  0  0  0  0  0
    2.5252    2.9382    3.7360 C   0  0  1  0  0  0  0  0  0  0  0  0
    2.2360    4.3759    3.2845 C   0  0  0  0  0  0  0  0  0  0  0  0
    3.5355    2.9021    4.8833 C   0  0  0  0  0  0  0  0  0  0  0  0
    2.9287    2.8084    6.3041 C   0  0  0  0  0  0  0  0  0  0  0  0
    1.8227    1.7209    6.5471 C   0  0  2  0  0  0  0  0  0  0  0  0
    2.3487    0.1845    6.4654 C   0  0  1  0  0  0  0  0  0  0  0  0
    2.7199   -0.5750    7.5993 O   0  0  0  0  0  0  0  0  0  0  0  0
    1.0717   -0.6303    6.5809 C   0  0  0  0  0  0  0  0  0  0  0  0
    0.4423    0.1505    7.7965 C   0  0  0  0  0  0  0  0  0  0  0  0
    1.1789    1.5773    7.9794 C   0  0  2  0  0  0  0  0  0  0  0  0
    2.4787    1.7763    9.0029 C   0  0  0  0  0  0  0  0  0  0  0  0
    4.0069    1.1606    9.1562 C   0  0  2  0  0  0  0  0  0  0  0  0
    3.9354   -0.1006   10.0911 C   0  0  0  0  0  0  0  0  0  0  0  0
    4.7346    2.2367   10.0558 C   0  0  1  0  0  0  0  0  0  0  0  0
    5.8634    1.7574   11.0075 C   0  0  0  0  0  0  0  0  0  0  0  0
    5.3583    3.2338    9.0855 C   0  0  0  0  0  0  0  0  0  0  0  0
    5.9342    2.3768    7.9763 C   0  0  0  0  0  0  0  0  0  0  0  0
    5.1510    1.0385    7.9799 C   0  0  2  0  0  0  0  0  0  0  0  0
    5.0136    0.4301    6.5210 C   0  0  1  0  0  0  0  0  0  0  0  0
    6.2651    0.6637    5.6876 C   0  0  0  0  0  0  0  0  0  0  0  0
    4.6869   -0.9978    6.4945 O   0  0  0  0  0  0  0  0  0  0  0  0
    3.7057   -0.1670    5.8550 C   0  0  1  0  0  0  0  0  0  0  0  0
    3.8003   -0.2531    4.4200 O   0  0  0  0  0  0  0  0  0  0  0  0
    0.2497    6.1514    5.3056 H   0  0  0  0  0  0  0  0  0  0  0  0
    0.6268    6.5334    7.0593 H   0  0  0  0  0  0  0  0  0  0  0  0
   -0.8588    3.0551   12.4259 H   0  0  0  0  0  0  0  0  0  0  0  0
    0.8394    2.5308   12.4818 H   0  0  0  0  0  0  0  0  0  0  0  0
   -0.4708    1.4234   12.9300 H   0  0  0  0  0  0  0  0  0  0  0  0
   -1.8918    1.5824    8.6850 H   0  0  0  0  0  0  0  0  0  0  0  0
   -2.3198    4.5404    8.2246 H   0  0  0  0  0  0  0  0  0  0  0  0
   -2.2541    3.7573    9.7988 H   0  0  0  0  0  0  0  0  0  0  0  0
   -3.5025    3.3291    8.6653 H   0  0  0  0  0  0  0  0  0  0  0  0
   -1.8622    1.1933    6.3592 H   0  0  0  0  0  0  0  0  0  0  0  0
   -3.1550    2.2313    6.7100 H   0  0  0  0  0  0  0  0  0  0  0  0
   -1.9396    2.7989    4.6429 H   0  0  0  0  0  0  0  0  0  0  0  0
   -2.1499    4.1396    5.7225 H   0  0  0  0  0  0  0  0  0  0  0  0
    0.0132    3.9820    4.6603 H   0  0  0  0  0  0  0  0  0  0  0  0
   -0.0112    1.3484    5.4080 H   0  0  0  0  0  0  0  0  0  0  0  0
    1.7220    0.9826    3.9282 H   0  0  0  0  0  0  0  0  0  0  0  0
   -0.2330    2.9432    2.7520 H   0  0  0  0  0  0  0  0  0  0  0  0
   -0.4874    1.2344    3.0471 H   0  0  0  0  0  0  0  0  0  0  0  0
    0.7356    1.7648    1.9056 H   0  0  0  0  0  0  0  0  0  0  0  0
    3.0416    2.5225    2.8677 H   0  0  0  0  0  0  0  0  0  0  0  0
    1.8894    4.9962    4.1064 H   0  0  0  0  0  0  0  0  0  0  0  0
    1.5022    4.4115    2.4827 H   0  0  0  0  0  0  0  0  0  0  0  0
    3.1368    4.8467    2.8899 H   0  0  0  0  0  0  0  0  0  0  0  0
    4.2554    2.1280    4.6917 H   0  0  0  0  0  0  0  0  0  0  0  0
    4.1371    3.8133    4.8579 H   0  0  0  0  0  0  0  0  0  0  0  0
    3.7199    2.7211    7.0017 H   0  0  0  0  0  0  0  0  0  0  0  0
    2.5818    3.8052    6.5242 H   0  0  0  0  0  0  0  0  0  0  0  0
    3.5795   -0.3424    7.8995 H   0  0  0  0  0  0  0  0  0  0  0  0
    0.4973   -0.5679    5.6596 H   0  0  0  0  0  0  0  0  0  0  0  0
    1.1359   -1.7139    6.7410 H   0  0  0  0  0  0  0  0  0  0  0  0
   -0.6248    0.1813    7.6581 H   0  0  0  0  0  0  0  0  0  0  0  0
    0.5785   -0.4521    8.6932 H   0  0  0  0  0  0  0  0  0  0  0  0
    2.6124    2.8543    9.0437 H   0  0  0  0  0  0  0  0  0  0  0  0
    2.1175    1.5311    9.9913 H   0  0  0  0  0  0  0  0  0  0  0  0
    4.8673   -0.6702   10.1121 H   0  0  0  0  0  0  0  0  0  0  0  0
    3.1337   -0.8049    9.8842 H   0  0  0  0  0  0  0  0  0  0  0  0
    3.7205    0.1893   11.1203 H   0  0  0  0  0  0  0  0  0  0  0  0
    4.0288    2.7633   10.6992 H   0  0  0  0  0  0  0  0  0  0  0  0
    6.6129    1.1491   10.4991 H   0  0  0  0  0  0  0  0  0  0  0  0
    5.4880    1.1922   11.8620 H   0  0  0  0  0  0  0  0  0  0  0  0
    6.3802    2.6189   11.4396 H   0  0  0  0  0  0  0  0  0  0  0  0
    4.5838    3.8894    8.6860 H   0  0  0  0  0  0  0  0  0  0  0  0
    6.1046    3.8867    9.5380 H   0  0  0  0  0  0  0  0  0  0  0  0
    5.8845    2.9306    7.0469 H   0  0  0  0  0  0  0  0  0  0  0  0
    6.9858    2.1740    8.1629 H   0  0  0  0  0  0  0  0  0  0  0  0
    5.8656    0.3422    8.4151 H   0  0  0  0  0  0  0  0  0  0  0  0
    6.3253    1.6993    5.3741 H   0  0  0  0  0  0  0  0  0  0  0  0
    6.2630    0.0474    4.7857 H   0  0  0  0  0  0  0  0  0  0  0  0
    7.1645    0.4291    6.2503 H   0  0  0  0  0  0  0  0  0  0  0  0
    3.8675    0.6142    4.0561 H   0  0  0  0  0  0  0  0  0  0  0  0
  1  2  2  0
  1 41  1  0
  1 42  1  0
  2 14  1  0
  2  3  1  0
  3  4  2  0
  3  5  1  0
  5 27  1  0
  5  6  1  1
  5 10  1  0
  6  7  1  0
  7  8  1  0
  7  9  2  0
  8 43  1  0
  8 44  1  0
  8 45  1  0
 10 11  1  0
 10 12  1  0
 10 46  1  1
 11 47  1  0
 11 48  1  0
 11 49  1  0
 12 13  1  0
 12 50  1  0
 12 51  1  0
 13 14  1  0
 13 52  1  0
 13 53  1  0
 14 15  1  0
 14 54  1  6
 15 22  1  0
 15 16  1  0
 15 55  1  6
 16 17  1  0
 16 18  1  0
 16 56  1  1
 17 57  1  0
 17 58  1  0
 17 59  1  0
 18 19  1  0
 18 20  1  0
 18 60  1  6
 19 61  1  0
 19 62  1  0
 19 63  1  0
 20 21  1  0
 20 64  1  0
 20 65  1  0
 22 21  1  1
 21 66  1  0
 21 67  1  0
 22 27  1  0
 22 23  1  0
 23 39  1  0
 23 24  1  1
 23 25  1  0
 24 68  1  0
 25 26  1  0
 25 69  1  0
 25 70  1  0
 27 26  1  6
 26 71  1  0
 26 72  1  0
 27 28  1  0
 28 29  1  0
 28 73  1  0
 28 74  1  0
 29 35  1  0
 29 30  1  1
 29 31  1  0
 30 75  1  0
 30 76  1  0
 30 77  1  0
 31 32  1  0
 31 33  1  0
 31 78  1  1
 32 79  1  0
 32 80  1  0
 32 81  1  0
 33 34  1  0
 33 82  1  0
 33 83  1  0
 34 35  1  0
 34 84  1  0
 34 85  1  0
 35 36  1  0
 35 86  1  1
 36 39  1  0
 36 37  1  6
 36 38  1  0
 37 87  1  0
 37 88  1  0
 37 89  1  0
 38 39  1  0
 39 40  1  6
 40 90  1  0
M  END
>  <i_m_ct_stereo_status>  (221) 
1

>  <s_m_source_file>  (221) 
/var/tmp/pbs.5076255.sched01/tmpos3i1bch/920fm1no0n.sdf

>  <i_m_source_file_index>  (221) 
2

>  <i_lp_mmshare_version>  (221) 
48012

>  <i_f3d_flags>  (221) 
0

>  <s_epik_input>  (221) 
W0NIMl0xW0NIMl1bQ0BIXShbQ0gzXSlbQ0BIXShbQ0gzXSlbQ0BASF0yW0NAQEhdKFtDSDJdW0NIMl1bQ0BASF0zW0NIM10pQyg9W0NIMl0pQyg9TylbQ0BdMyhPQyg9TylbQ0gzXSlbQ0BdNChbQ0BdMTI1KVtDSDJdW0NIMl1bQ0BAXTUoW09IXSlbQ0BAXTYoW09IXSlbQ0BAXShPNikoW0NIM10pW0NAQEhdN1tDQEBdKFtDSDJdNCkoW0NIM10pW0NAQEhdKFtDSDNdKVtDSDJdW0NIMl03

>  <s_epik_cmdline>  (221) 
J2VwaWtfcHl0aG9uJywgJy1waHQnLCAnMi4wJywgJy1waCcsICc3LjAnLCAnLXRuJywgJzgnLCAnLW1hJywgJzIwMCcsICctaW1hZScsICc8aW5maWxlLm1hZT4nLCAnLW9tYWUnLCAnPG91dGZpbGUubWFlPic=

>  <r_lp_tautomer_probability>  (221) 
1

>  <r_epik_Ionization_Penalty>  (221) 
1.75883e-06

>  <r_epik_Ionization_Penalty_Charging>  (221) 
0

>  <r_epik_Ionization_Penalty_Neutral>  (221) 
1.75883e-06

>  <r_epik_State_Penalty>  (221) 
-0

>  <r_epik_Charging_Adjusted_Penalty>  (221) 
0

>  <i_epik_Tot_Q>  (221) 
0

>  <i_epik_Tot_abs_Q>  (221) 
0

>  <s_epik_Chemistry_Notes>  (221) 
This compound has an ester and may undergo hydrolysis at high or low pH.

>  <s_lp_Force_Field>  (221) 
OPLS3e

>  <r_lp_Energy>  (221) 
263.338

>  <b_lp_Chiralities_Consistent>  (221) 
1

>  <s_lp_Variant>  (221) 
64:0-1

>  <s_i_glide_gridfile>  (221) 
pfpi4k_grid

>  <i_i_glide_lignum>  (221) 
2

>  <i_i_glide_rotatable_bonds>  (221) 
4

>  <r_i_docking_score>  (221) 
-1.52081

>  <r_i_glide_ligand_efficiency>  (221) 
-0.0380204

>  <r_i_glide_ligand_efficiency_sa>  (221) 
-0.130028

>  <r_i_glide_ligand_efficiency_ln>  (221) 
-0.324345

>  <r_i_glide_gscore>  (221) 
-1.52081

>  <r_i_glide_lipo>  (221) 
-0.159867

>  <r_i_glide_hbond>  (221) 
0

>  <r_i_glide_metal>  (221) 
-0

>  <r_i_glide_rewards>  (221) 
0

>  <r_i_glide_evdw>  (221) 
-25.6439

>  <r_i_glide_ecoul>  (221) 
-0.611875

>  <r_i_glide_erotb>  (221) 
0.0674501

>  <r_i_glide_esite>  (221) 
-0.0544203

>  <r_i_glide_emodel>  (221) 
-28.3996

>  <r_i_glide_energy>  (221) 
-26.2558

>  <r_i_glide_einternal>  (221) 
0.861801

>  <r_i_glide_intrahb_reward>  (221) 
-0

>  <i_i_glide_confnum>  (221) 
1

>  <i_i_glide_posenum>  (221) 
1

>  <r_i_glide_eff_state_penalty>  (221) 
0

>  <ligand_id>  (221) 
64

>  <original_smiles>  (221) 
C=C1C(=O)C2(OC(C)=O)C(C)CCC1C1C(C)C(C)CCC13C1(O)CCC23CC2(C)C(C)CCC2C2(C)OC21O

>  <smiles>  (221) 
[H]OC12OC1(C([H])([H])[H])C1([H])C([H])([H])C([H])([H])C([H])(C([H])([H])[H])C1(C([H])([H])[H])C([H])([H])C13C([H])([H])C([H])([H])C2(O[H])C12C([H])([H])C([H])([H])C([H])(C([H])([H])[H])C([H])(C([H])([H])[H])C2([H])C1([H])C(=C([H])[H])C(=O)C3(OC(=O)C([H])([H])[H])C([H])(C([H])([H])[H])C([H])([H])C1([H])[H]

$$$$
64:0:2
     RDKit          3D

 90 96  0  0  1  0  0  0  0  0999 V2000
    3.4482   -3.0741    3.1652 C   0  0  0  0  0  0  0  0  0  0  0  0
    3.0912   -2.6515    4.3876 C   0  0  0  0  0  0  0  0  0  0  0  0
    1.6589   -2.5925    4.7379 C   0  0  0  0  0  0  0  0  0  0  0  0
    0.7799   -2.6962    3.8697 O   0  0  0  0  0  0  0  0  0  0  0  0
    1.2603   -2.3988    6.2128 C   0  0  1  0  0  0  0  0  0  0  0  0
   -0.1437   -2.7639    6.2319 O   0  0  0  0  0  0  0  0  0  0  0  0
   -0.8681   -3.1560    7.3195 C   0  0  0  0  0  0  0  0  0  0  0  0
   -2.1909   -3.7813    6.9089 C   0  0  0  0  0  0  0  0  0  0  0  0
   -0.5750   -3.0251    8.4903 O   0  0  0  0  0  0  0  0  0  0  0  0
    1.9584   -3.5925    7.0615 C   0  0  1  0  0  0  0  0  0  0  0  0
    1.6132   -5.0129    6.5288 C   0  0  0  0  0  0  0  0  0  0  0  0
    3.4396   -3.5731    7.4749 C   0  0  0  0  0  0  0  0  0  0  0  0
    4.4389   -3.4205    6.3449 C   0  0  0  0  0  0  0  0  0  0  0  0
    4.1201   -2.2406    5.4383 C   0  0  2  0  0  0  0  0  0  0  0  0
    3.9757   -0.8779    6.2294 C   0  0  1  0  0  0  0  0  0  0  0  0
    5.2172   -0.0049    6.0137 C   0  0  1  0  0  0  0  0  0  0  0  0
    6.5364   -0.6346    6.5030 C   0  0  0  0  0  0  0  0  0  0  0  0
    5.2786    0.5833    4.5806 C   0  0  1  0  0  0  0  0  0  0  0  0
    5.7798   -0.1860    3.3583 C   0  0  0  0  0  0  0  0  0  0  0  0
    3.9443    1.2654    4.1977 C   0  0  0  0  0  0  0  0  0  0  0  0
    2.6919    0.4983    4.6235 C   0  0  0  0  0  0  0  0  0  0  0  0
    2.6494    0.0054    6.1128 C   0  0  2  0  0  0  0  0  0  0  0  0
    2.5471    1.2099    7.2027 C   0  0  1  0  0  0  0  0  0  0  0  0
    1.3018    1.6414    7.7359 O   0  0  0  0  0  0  0  0  0  0  0  0
    2.6327    0.4492    8.5245 C   0  0  0  0  0  0  0  0  0  0  0  0
    1.6201   -0.7211    8.1863 C   0  0  0  0  0  0  0  0  0  0  0  0
    1.3854   -0.8014    6.5925 C   0  0  2  0  0  0  0  0  0  0  0  0
    0.1127    0.0004    5.8647 C   0  0  0  0  0  0  0  0  0  0  0  0
   -0.3880    1.5768    5.6755 C   0  0  2  0  0  0  0  0  0  0  0  0
   -1.3489    1.9203    6.8571 C   0  0  0  0  0  0  0  0  0  0  0  0
   -1.3361    1.5466    4.4152 C   0  0  1  0  0  0  0  0  0  0  0  0
   -2.4626    2.6416    4.3462 C   0  0  0  0  0  0  0  0  0  0  0  0
   -0.4463    1.7823    3.1980 C   0  0  0  0  0  0  0  0  0  0  0  0
    0.4586    2.9204    3.6432 C   0  0  0  0  0  0  0  0  0  0  0  0
    0.5521    2.8674    5.2082 C   0  0  2  0  0  0  0  0  0  0  0  0
    1.9684    3.3736    5.7545 C   0  0  1  0  0  0  0  0  0  0  0  0
    2.5285    4.4987    4.8960 C   0  0  0  0  0  0  0  0  0  0  0  0
    1.9541    3.7726    7.1344 O   0  0  0  0  0  0  0  0  0  0  0  0
    2.8569    2.6633    6.8156 C   0  0  1  0  0  0  0  0  0  0  0  0
    4.2205    3.0665    6.8219 O   0  0  0  0  0  0  0  0  0  0  0  0
    4.4814   -3.1510    2.8597 H   0  0  0  0  0  0  0  0  0  0  0  0
    2.7091   -3.3685    2.4201 H   0  0  0  0  0  0  0  0  0  0  0  0
   -1.9932   -4.6387    6.2754 H   0  0  0  0  0  0  0  0  0  0  0  0
   -2.8131   -3.0454    6.3875 H   0  0  0  0  0  0  0  0  0  0  0  0
   -2.7779   -4.1347    7.7642 H   0  0  0  0  0  0  0  0  0  0  0  0
    1.5927   -3.5927    8.0795 H   0  0  0  0  0  0  0  0  0  0  0  0
    2.1298   -5.2493    5.5979 H   0  0  0  0  0  0  0  0  0  0  0  0
    0.5514   -5.1671    6.3335 H   0  0  0  0  0  0  0  0  0  0  0  0
    1.8743   -5.7662    7.2683 H   0  0  0  0  0  0  0  0  0  0  0  0
    3.6266   -2.8438    8.2602 H   0  0  0  0  0  0  0  0  0  0  0  0
    3.6514   -4.5147    7.9826 H   0  0  0  0  0  0  0  0  0  0  0  0
    5.4187   -3.2959    6.8017 H   0  0  0  0  0  0  0  0  0  0  0  0
    4.4782   -4.3437    5.7660 H   0  0  0  0  0  0  0  0  0  0  0  0
    5.0283   -2.1783    4.8447 H   0  0  0  0  0  0  0  0  0  0  0  0
    4.1278   -1.1521    7.2569 H   0  0  0  0  0  0  0  0  0  0  0  0
    5.1324    0.8465    6.6748 H   0  0  0  0  0  0  0  0  0  0  0  0
    6.6901   -1.5846    6.0172 H   0  0  0  0  0  0  0  0  0  0  0  0
    6.5077   -0.8725    7.5711 H   0  0  0  0  0  0  0  0  0  0  0  0
    7.3971    0.0217    6.3260 H   0  0  0  0  0  0  0  0  0  0  0  0
    6.0492    1.3504    4.7502 H   0  0  0  0  0  0  0  0  0  0  0  0
    5.1522   -1.0007    3.0059 H   0  0  0  0  0  0  0  0  0  0  0  0
    6.7790   -0.5447    3.5593 H   0  0  0  0  0  0  0  0  0  0  0  0
    5.9289    0.4925    2.5294 H   0  0  0  0  0  0  0  0  0  0  0  0
    3.9811    2.2954    4.5035 H   0  0  0  0  0  0  0  0  0  0  0  0
    3.8637    1.3220    3.1134 H   0  0  0  0  0  0  0  0  0  0  0  0
    1.8515    1.0684    4.3459 H   0  0  0  0  0  0  0  0  0  0  0  0
    2.6356   -0.3050    3.9025 H   0  0  0  0  0  0  0  0  0  0  0  0
    1.4971    2.3549    8.3146 H   0  0  0  0  0  0  0  0  0  0  0  0
    3.6690    0.1372    8.6874 H   0  0  0  0  0  0  0  0  0  0  0  0
    2.4235    0.9890    9.4620 H   0  0  0  0  0  0  0  0  0  0  0  0
    2.0079   -1.6103    8.6520 H   0  0  0  0  0  0  0  0  0  0  0  0
    0.6526   -0.5560    8.6751 H   0  0  0  0  0  0  0  0  0  0  0  0
    0.1291   -0.3822    4.8513 H   0  0  0  0  0  0  0  0  0  0  0  0
   -0.7616   -0.4563    6.3054 H   0  0  0  0  0  0  0  0  0  0  0  0
   -1.5844    2.9820    6.9208 H   0  0  0  0  0  0  0  0  0  0  0  0
   -1.0102    1.6194    7.8504 H   0  0  0  0  0  0  0  0  0  0  0  0
   -2.2925    1.3929    6.7426 H   0  0  0  0  0  0  0  0  0  0  0  0
   -1.8025    0.5760    4.3242 H   0  0  0  0  0  0  0  0  0  0  0  0
   -2.0564    3.6522    4.3611 H   0  0  0  0  0  0  0  0  0  0  0  0
   -3.2010    2.6206    5.1462 H   0  0  0  0  0  0  0  0  0  0  0  0
   -2.9960    2.5211    3.3843 H   0  0  0  0  0  0  0  0  0  0  0  0
    0.1474    0.8992    2.9667 H   0  0  0  0  0  0  0  0  0  0  0  0
   -0.9987    2.0303    2.3054 H   0  0  0  0  0  0  0  0  0  0  0  0
    1.4124    2.8297    3.1280 H   0  0  0  0  0  0  0  0  0  0  0  0
    0.0400    3.8836    3.3224 H   0  0  0  0  0  0  0  0  0  0  0  0
   -0.0830    3.7235    5.4861 H   0  0  0  0  0  0  0  0  0  0  0  0
    2.9235    4.1377    3.9316 H   0  0  0  0  0  0  0  0  0  0  0  0
    3.3489    5.0005    5.3953 H   0  0  0  0  0  0  0  0  0  0  0  0
    1.7720    5.2502    4.6696 H   0  0  0  0  0  0  0  0  0  0  0  0
    4.4998    3.2013    5.9353 H   0  0  0  0  0  0  0  0  0  0  0  0
  1  2  2  0
  1 41  1  0
  1 42  1  0
  2 14  1  0
  2  3  1  0
  3  4  2  0
  3  5  1  0
  5 27  1  0
  5  6  1  6
  5 10  1  0
  6  7  1  0
  7  8  1  0
  7  9  2  0
  8 43  1  0
  8 44  1  0
  8 45  1  0
 10 11  1  0
 10 12  1  0
 10 46  1  1
 11 47  1  0
 11 48  1  0
 11 49  1  0
 12 13  1  0
 12 50  1  0
 12 51  1  0
 13 14  1  0
 13 52  1  0
 13 53  1  0
 14 15  1  0
 14 54  1  6
 15 22  1  0
 15 16  1  0
 15 55  1  1
 16 17  1  0
 16 18  1  0
 16 56  1  1
 17 57  1  0
 17 58  1  0
 17 59  1  0
 18 19  1  0
 18 20  1  0
 18 60  1  1
 19 61  1  0
 19 62  1  0
 19 63  1  0
 20 21  1  0
 20 64  1  0
 20 65  1  0
 22 21  1  6
 21 66  1  0
 21 67  1  0
 22 27  1  0
 22 23  1  0
 23 39  1  0
 23 24  1  1
 23 25  1  0
 24 68  1  0
 25 26  1  0
 25 69  1  0
 25 70  1  0
 27 26  1  1
 26 71  1  0
 26 72  1  0
 27 28  1  0
 28 29  1  0
 28 73  1  0
 28 74  1  0
 29 35  1  0
 29 30  1  1
 29 31  1  0
 30 75  1  0
 30 76  1  0
 30 77  1  0
 31 32  1  0
 31 33  1  0
 31 78  1  6
 32 79  1  0
 32 80  1  0
 32 81  1  0
 33 34  1  0
 33 82  1  0
 33 83  1  0
 34 35  1  0
 34 84  1  0
 34 85  1  0
 35 36  1  0
 35 86  1  1
 36 39  1  0
 36 37  1  6
 36 38  1  0
 37 87  1  0
 37 88  1  0
 37 89  1  0
 38 39  1  0
 39 40  1  6
 40 90  1  0
M  END
>  <i_m_ct_stereo_status>  (222) 
1

>  <s_m_source_file>  (222) 
/var/tmp/pbs.5076255.sched01/tmpos3i1bch/920fm1no0n.sdf

>  <i_m_source_file_index>  (222) 
2

>  <i_lp_mmshare_version>  (222) 
48012

>  <i_f3d_flags>  (222) 
0

>  <s_epik_input>  (222) 
W0NIMl0xW0NIMl1bQ0BIXShbQ0gzXSlbQ0BIXShbQ0gzXSlbQ0BASF0yW0NAQEhdKFtDSDJdW0NIMl1bQ0BASF0zW0NIM10pQyg9W0NIMl0pQyg9TylbQ0BdMyhPQyg9TylbQ0gzXSlbQ0BdNChbQ0BdMTI1KVtDSDJdW0NIMl1bQ0BAXTUoW09IXSlbQ0BAXTYoW09IXSlbQ0BAXShPNikoW0NIM10pW0NAQEhdN1tDQEBdKFtDSDJdNCkoW0NIM10pW0NAQEhdKFtDSDNdKVtDSDJdW0NIMl03

>  <s_epik_cmdline>  (222) 
J2VwaWtfcHl0aG9uJywgJy1waHQnLCAnMi4wJywgJy1waCcsICc3LjAnLCAnLXRuJywgJzgnLCAnLW1hJywgJzIwMCcsICctaW1hZScsICc8aW5maWxlLm1hZT4nLCAnLW9tYWUnLCAnPG91dGZpbGUubWFlPic=

>  <r_lp_tautomer_probability>  (222) 
1

>  <r_epik_Ionization_Penalty>  (222) 
1.75883e-06

>  <r_epik_Ionization_Penalty_Charging>  (222) 
0

>  <r_epik_Ionization_Penalty_Neutral>  (222) 
1.75883e-06

>  <r_epik_State_Penalty>  (222) 
-0

>  <r_epik_Charging_Adjusted_Penalty>  (222) 
0

>  <i_epik_Tot_Q>  (222) 
0

>  <i_epik_Tot_abs_Q>  (222) 
0

>  <s_epik_Chemistry_Notes>  (222) 
This compound has an ester and may undergo hydrolysis at high or low pH.

>  <s_lp_Force_Field>  (222) 
OPLS3e

>  <r_lp_Energy>  (222) 
263.338

>  <b_lp_Chiralities_Consistent>  (222) 
1

>  <s_lp_Variant>  (222) 
64:0-1

>  <s_i_glide_gridfile>  (222) 
pfpi4k_grid

>  <i_i_glide_lignum>  (222) 
2

>  <i_i_glide_rotatable_bonds>  (222) 
4

>  <r_i_docking_score>  (222) 
-1.04401

>  <r_i_glide_ligand_efficiency>  (222) 
-0.0261001

>  <r_i_glide_ligand_efficiency_sa>  (222) 
-0.0892612

>  <r_i_glide_ligand_efficiency_ln>  (222) 
-0.222656

>  <r_i_glide_gscore>  (222) 
-1.04401

>  <r_i_glide_lipo>  (222) 
-0.327493

>  <r_i_glide_hbond>  (222) 
-0.149011

>  <r_i_glide_metal>  (222) 
-0

>  <r_i_glide_rewards>  (222) 
-0.00239642

>  <r_i_glide_evdw>  (222) 
-13.1306

>  <r_i_glide_ecoul>  (222) 
0.59168

>  <r_i_glide_erotb>  (222) 
0.0674501

>  <r_i_glide_esite>  (222) 
-0.0647788

>  <r_i_glide_emodel>  (222) 
-8.43962

>  <r_i_glide_energy>  (222) 
-12.5389

>  <r_i_glide_einternal>  (222) 
6.11897

>  <r_i_glide_intrahb_reward>  (222) 
-0

>  <i_i_glide_confnum>  (222) 
3

>  <i_i_glide_posenum>  (222) 
12

>  <r_i_glide_eff_state_penalty>  (222) 
0

>  <ligand_id>  (222) 
64

>  <original_smiles>  (222) 
C=C1C(=O)C2(OC(C)=O)C(C)CCC1C1C(C)C(C)CCC13C1(O)CCC23CC2(C)C(C)CCC2C2(C)OC21O

>  <smiles>  (222) 
[H]OC12OC1(C([H])([H])[H])C1([H])C([H])([H])C([H])([H])C([H])(C([H])([H])[H])C1(C([H])([H])[H])C([H])([H])C13C([H])([H])C([H])([H])C2(O[H])C12C([H])([H])C([H])([H])C([H])(C([H])([H])[H])C([H])(C([H])([H])[H])C2([H])C1([H])C(=C([H])[H])C(=O)C3(OC(=O)C([H])([H])[H])C([H])(C([H])([H])[H])C([H])([H])C1([H])[H]

$$$$
65:0:0
     RDKit          3D

 50 54  0  0  1  0  0  0  0  0999 V2000
    5.1310   -2.7743    3.8580 C   0  0  0  0  0  0  0  0  0  0  0  0
    4.0908   -2.6312    2.7301 C   0  0  1  0  0  0  0  0  0  0  0  0
    4.3025   -1.1632    2.2044 C   0  0  0  0  0  0  0  0  0  0  0  0
    3.8283   -0.8285    0.7745 C   0  0  0  0  0  0  0  0  0  0  0  0
    4.3865   -1.8395   -0.2373 C   0  0  2  0  0  0  0  0  0  0  0  0
    3.9928   -1.5152   -1.6681 C   0  0  0  0  0  0  0  0  0  0  0  0
    4.6032   -0.4086   -2.3189 C   0  0  0  0  0  0  0  0  0  0  0  0
    4.1471    0.0199   -3.5651 C   0  0  0  0  0  0  0  0  0  0  0  0
    3.2013   -0.7266   -4.2479 C   0  0  0  0  0  0  0  0  0  0  0  0
    2.7798   -0.2529   -5.4488 O   0  0  0  0  0  0  0  0  0  0  0  0
    2.6244   -1.8912   -3.6597 C   0  0  0  0  0  0  0  0  0  0  0  0
    3.0127   -2.2463   -2.3542 C   0  0  0  0  0  0  0  0  0  0  0  0
    2.2500   -3.3806   -1.6834 C   0  0  0  0  0  0  0  0  0  0  0  0
    2.5117   -3.5344   -0.1866 C   0  0  0  0  0  0  0  0  0  0  0  0
    3.9750   -3.2717    0.1630 C   0  0  2  0  0  0  0  0  0  0  0  0
    4.4555   -3.6384    1.5937 C   0  0  2  0  0  0  0  0  0  0  0  0
    4.2532   -5.1224    1.9795 C   0  0  0  0  0  0  0  0  0  0  0  0
    2.9001   -5.4187    2.6296 C   0  0  0  0  0  0  0  0  0  0  0  0
    2.5994   -4.4267    3.7554 C   0  0  0  0  0  0  0  0  0  0  0  0
    2.7081   -2.9468    3.3586 C   0  0  0  0  0  0  0  0  0  0  0  0
    1.4336   -2.2340    2.9656 C   0  0  0  0  0  0  0  0  0  0  0  0
    2.0581   -1.9630    4.3205 C   0  0  0  0  0  0  0  0  0  0  0  0
    4.9680   -2.0539    4.6607 H   0  0  0  0  0  0  0  0  0  0  0  0
    6.1086   -2.5600    3.4413 H   0  0  0  0  0  0  0  0  0  0  0  0
    5.2045   -3.7683    4.3003 H   0  0  0  0  0  0  0  0  0  0  0  0
    3.8420   -0.4374    2.8609 H   0  0  0  0  0  0  0  0  0  0  0  0
    5.3704   -0.9118    2.2505 H   0  0  0  0  0  0  0  0  0  0  0  0
    2.7459   -0.7314    0.6823 H   0  0  0  0  0  0  0  0  0  0  0  0
    4.1841    0.1720    0.5324 H   0  0  0  0  0  0  0  0  0  0  0  0
    5.4727   -1.7662   -0.2004 H   0  0  0  0  0  0  0  0  0  0  0  0
    5.3850    0.1423   -1.8389 H   0  0  0  0  0  0  0  0  0  0  0  0
    4.5699    0.9172   -4.0363 H   0  0  0  0  0  0  0  0  0  0  0  0
    2.2134   -0.8709   -5.9047 H   0  0  0  0  0  0  0  0  0  0  0  0
    1.8039   -2.3891   -4.1339 H   0  0  0  0  0  0  0  0  0  0  0  0
    1.1756   -3.3247   -1.8953 H   0  0  0  0  0  0  0  0  0  0  0  0
    2.6315   -4.2596   -2.1721 H   0  0  0  0  0  0  0  0  0  0  0  0
    1.8969   -2.8127    0.3318 H   0  0  0  0  0  0  0  0  0  0  0  0
    2.1915   -4.5375    0.0857 H   0  0  0  0  0  0  0  0  0  0  0  0
    4.5313   -3.9221   -0.5054 H   0  0  0  0  0  0  0  0  0  0  0  0
    5.5339   -3.5515    1.4727 H   0  0  0  0  0  0  0  0  0  0  0  0
    4.3892   -5.7601    1.1057 H   0  0  0  0  0  0  0  0  0  0  0  0
    5.0348   -5.4038    2.6899 H   0  0  0  0  0  0  0  0  0  0  0  0
    2.0804   -5.4256    1.9178 H   0  0  0  0  0  0  0  0  0  0  0  0
    2.9150   -6.4329    3.0266 H   0  0  0  0  0  0  0  0  0  0  0  0
    1.5827   -4.6104    4.0889 H   0  0  0  0  0  0  0  0  0  0  0  0
    3.2218   -4.6410    4.6259 H   0  0  0  0  0  0  0  0  0  0  0  0
    1.4587   -1.4448    2.2224 H   0  0  0  0  0  0  0  0  0  0  0  0
    0.5158   -2.8163    2.9652 H   0  0  0  0  0  0  0  0  0  0  0  0
    1.5452   -2.3678    5.1923 H   0  0  0  0  0  0  0  0  0  0  0  0
    2.5310   -0.9999    4.5019 H   0  0  0  0  0  0  0  0  0  0  0  0
  2  1  1  1
  1 23  1  0
  1 24  1  0
  1 25  1  0
  2 16  1  0
  2 20  1  0
  2  3  1  0
  3  4  1  0
  3 26  1  0
  3 27  1  0
  4  5  1  0
  4 28  1  0
  4 29  1  0
  5 15  1  0
  5  6  1  0
  5 30  1  6
  6 12  2  0
  6  7  1  0
  7  8  2  0
  7 31  1  0
  8  9  1  0
  8 32  1  0
  9 10  1  0
  9 11  2  0
 10 33  1  0
 11 12  1  0
 11 34  1  0
 12 13  1  0
 13 14  1  0
 13 35  1  0
 13 36  1  0
 14 15  1  0
 14 37  1  0
 14 38  1  0
 15 16  1  0
 15 39  1  6
 16 17  1  0
 16 40  1  6
 17 18  1  0
 17 41  1  0
 17 42  1  0
 18 19  1  0
 18 43  1  0
 18 44  1  0
 19 20  1  0
 19 45  1  0
 19 46  1  0
 20 22  1  0
 20 21  1  0
 21 22  1  0
 21 47  1  0
 21 48  1  0
 22 49  1  0
 22 50  1  0
M  END
>  <i_m_ct_stereo_status>  (223) 
1

>  <s_m_source_file>  (223) 
/var/tmp/pbs.5076255.sched01/tmpos3i1bch/920fm1no0n.sdf

>  <i_m_source_file_index>  (223) 
3

>  <i_lp_mmshare_version>  (223) 
48012

>  <i_f3d_flags>  (223) 
0

>  <s_epik_input>  (223) 
W0NIMl0xW0NIMl1DMTJbQ0BAXTMoW0NIM10pW0NAQEhdKFtDSDJdW0NIMl1bQ0gyXTIpW0NAQEhdNFtDQEhdKFtDSDJdW0NIMl0zKWM1YyhbQ0gyXVtDSDJdNClbY0hdYyhbT0hdKVtjSF1bY0hdNQ==

>  <s_epik_cmdline>  (223) 
J2VwaWtfcHl0aG9uJywgJy1waHQnLCAnMi4wJywgJy1waCcsICc3LjAnLCAnLXRuJywgJzgnLCAnLW1hJywgJzIwMCcsICctaW1hZScsICc8aW5maWxlLm1hZT4nLCAnLW9tYWUnLCAnPG91dGZpbGUubWFlPic=

>  <r_lp_tautomer_probability>  (223) 
1

>  <r_epik_Ionization_Penalty>  (223) 
0.000138457

>  <r_epik_Ionization_Penalty_Charging>  (223) 
0

>  <r_epik_Ionization_Penalty_Neutral>  (223) 
0.000138457

>  <r_epik_State_Penalty>  (223) 
-0

>  <r_epik_Charging_Adjusted_Penalty>  (223) 
0

>  <i_epik_Tot_Q>  (223) 
0

>  <i_epik_Tot_abs_Q>  (223) 
0

>  <s_lp_Force_Field>  (223) 
OPLS3e

>  <r_lp_Energy>  (223) 
41.0993

>  <b_lp_Chiralities_Consistent>  (223) 
1

>  <s_lp_Variant>  (223) 
65:0-1

>  <s_i_glide_gridfile>  (223) 
pfpi4k_grid

>  <i_i_glide_lignum>  (223) 
3

>  <i_i_glide_rotatable_bonds>  (223) 
1

>  <r_i_docking_score>  (223) 
-4.05709

>  <r_i_glide_ligand_efficiency>  (223) 
-0.184413

>  <r_i_glide_ligand_efficiency_sa>  (223) 
-0.516733

>  <r_i_glide_ligand_efficiency_ln>  (223) 
-0.991701

>  <r_i_glide_gscore>  (223) 
-4.05709

>  <r_i_glide_lipo>  (223) 
-0.766647

>  <r_i_glide_hbond>  (223) 
-0.306887

>  <r_i_glide_metal>  (223) 
-0

>  <r_i_glide_rewards>  (223) 
-1.38787

>  <r_i_glide_evdw>  (223) 
-10.5115

>  <r_i_glide_ecoul>  (223) 
-7.1341

>  <r_i_glide_erotb>  (223) 
0

>  <r_i_glide_esite>  (223) 
0

>  <r_i_glide_emodel>  (223) 
-18.8253

>  <r_i_glide_energy>  (223) 
-17.6456

>  <r_i_glide_einternal>  (223) 
0.420962

>  <r_i_glide_intrahb_reward>  (223) 
-0

>  <i_i_glide_confnum>  (223) 
1

>  <i_i_glide_posenum>  (223) 
26

>  <r_i_glide_eff_state_penalty>  (223) 
0

>  <ligand_id>  (223) 
65

>  <original_smiles>  (223) 
CC12CCC3c4ccc(O)cc4CCC3C1CCCC21CC1

>  <smiles>  (223) 
[H]Oc1c([H])c([H])c2c(c1[H])C([H])([H])C([H])([H])C1([H])C2([H])C([H])([H])C([H])([H])C2(C([H])([H])[H])C1([H])C([H])([H])C([H])([H])C([H])([H])C21C([H])([H])C1([H])[H]

$$$$
65:0:1
     RDKit          3D

 50 54  0  0  1  0  0  0  0  0999 V2000
    5.5188   -4.7104    3.2954 C   0  0  0  0  0  0  0  0  0  0  0  0
    4.4414   -4.1746    2.3185 C   0  0  1  0  0  0  0  0  0  0  0  0
    4.7462   -2.6335    2.2211 C   0  0  0  0  0  0  0  0  0  0  0  0
    4.2387   -1.8871    0.9687 C   0  0  0  0  0  0  0  0  0  0  0  0
    4.6711   -2.6104   -0.3180 C   0  0  2  0  0  0  0  0  0  0  0  0
    4.1942   -1.8662   -1.5504 C   0  0  0  0  0  0  0  0  0  0  0  0
    4.8639   -0.6775   -1.8902 C   0  0  0  0  0  0  0  0  0  0  0  0
    4.3317    0.1166   -2.9377 C   0  0  0  0  0  0  0  0  0  0  0  0
    3.3247   -0.3519   -3.7898 C   0  0  0  0  0  0  0  0  0  0  0  0
    2.8857    0.4644   -4.7786 O   0  0  0  0  0  0  0  0  0  0  0  0
    2.7387   -1.6013   -3.5185 C   0  0  0  0  0  0  0  0  0  0  0  0
    3.1099   -2.2728   -2.3483 C   0  0  0  0  0  0  0  0  0  0  0  0
    2.3039   -3.4493   -1.9822 C   0  0  0  0  0  0  0  0  0  0  0  0
    2.6497   -4.0882   -0.6169 C   0  0  0  0  0  0  0  0  0  0  0  0
    4.1659   -4.0521   -0.3072 C   0  0  2  0  0  0  0  0  0  0  0  0
    4.6796   -4.8380    0.9279 C   0  0  2  0  0  0  0  0  0  0  0  0
    4.3983   -6.3464    0.9019 C   0  0  0  0  0  0  0  0  0  0  0  0
    3.0538   -6.7340    1.5251 C   0  0  0  0  0  0  0  0  0  0  0  0
    2.8705   -6.0774    2.8998 C   0  0  0  0  0  0  0  0  0  0  0  0
    3.0728   -4.5446    2.9307 C   0  0  0  0  0  0  0  0  0  0  0  0
    1.8265   -3.6917    2.8561 C   0  0  0  0  0  0  0  0  0  0  0  0
    2.5280   -3.8638    4.1821 C   0  0  0  0  0  0  0  0  0  0  0  0
    5.4419   -4.2178    4.2731 H   0  0  0  0  0  0  0  0  0  0  0  0
    6.5005   -4.5016    2.8757 H   0  0  0  0  0  0  0  0  0  0  0  0
    5.4988   -5.7772    3.4572 H   0  0  0  0  0  0  0  0  0  0  0  0
    4.3571   -2.0898    3.0769 H   0  0  0  0  0  0  0  0  0  0  0  0
    5.8260   -2.4768    2.2679 H   0  0  0  0  0  0  0  0  0  0  0  0
    3.1653   -1.7118    0.9718 H   0  0  0  0  0  0  0  0  0  0  0  0
    4.6561   -0.8681    0.9847 H   0  0  0  0  0  0  0  0  0  0  0  0
    5.7610   -2.6202   -0.3176 H   0  0  0  0  0  0  0  0  0  0  0  0
    5.7016   -0.3388   -1.2939 H   0  0  0  0  0  0  0  0  0  0  0  0
    4.7432    1.1020   -3.1176 H   0  0  0  0  0  0  0  0  0  0  0  0
    2.8487    1.3614   -4.4806 H   0  0  0  0  0  0  0  0  0  0  0  0
    1.9069   -1.9600   -4.1195 H   0  0  0  0  0  0  0  0  0  0  0  0
    1.2373   -3.2849   -2.0899 H   0  0  0  0  0  0  0  0  0  0  0  0
    2.6173   -4.0857   -2.8102 H   0  0  0  0  0  0  0  0  0  0  0  0
    2.1167   -3.5132    0.1496 H   0  0  0  0  0  0  0  0  0  0  0  0
    2.2630   -5.0983   -0.6325 H   0  0  0  0  0  0  0  0  0  0  0  0
    4.6393   -4.5337   -1.1641 H   0  0  0  0  0  0  0  0  0  0  0  0
    5.7602   -4.7851    0.7719 H   0  0  0  0  0  0  0  0  0  0  0  0
    4.4397   -6.7241   -0.1208 H   0  0  0  0  0  0  0  0  0  0  0  0
    5.1797   -6.8706    1.4487 H   0  0  0  0  0  0  0  0  0  0  0  0
    2.2122   -6.4838    0.8868 H   0  0  0  0  0  0  0  0  0  0  0  0
    3.0029   -7.8203    1.6258 H   0  0  0  0  0  0  0  0  0  0  0  0
    1.8491   -6.2911    3.2329 H   0  0  0  0  0  0  0  0  0  0  0  0
    3.5179   -6.5619    3.6339 H   0  0  0  0  0  0  0  0  0  0  0  0
    1.8595   -2.7288    2.3751 H   0  0  0  0  0  0  0  0  0  0  0  0
    0.8838   -4.2195    2.7518 H   0  0  0  0  0  0  0  0  0  0  0  0
    2.0089   -4.4780    4.9116 H   0  0  0  0  0  0  0  0  0  0  0  0
    3.0451   -3.0125    4.6025 H   0  0  0  0  0  0  0  0  0  0  0  0
  2  1  1  1
  1 23  1  0
  1 24  1  0
  1 25  1  0
  2 16  1  0
  2 20  1  0
  2  3  1  0
  3  4  1  0
  3 26  1  0
  3 27  1  0
  4  5  1  0
  4 28  1  0
  4 29  1  0
  5 15  1  0
  5  6  1  0
  5 30  1  6
  6 12  2  0
  6  7  1  0
  7  8  2  0
  7 31  1  0
  8  9  1  0
  8 32  1  0
  9 10  1  0
  9 11  2  0
 10 33  1  0
 11 12  1  0
 11 34  1  0
 12 13  1  0
 13 14  1  0
 13 35  1  0
 13 36  1  0
 14 15  1  0
 14 37  1  0
 14 38  1  0
 15 16  1  0
 15 39  1  6
 16 17  1  0
 16 40  1  6
 17 18  1  0
 17 41  1  0
 17 42  1  0
 18 19  1  0
 18 43  1  0
 18 44  1  0
 19 20  1  0
 19 45  1  0
 19 46  1  0
 20 22  1  0
 20 21  1  0
 21 22  1  0
 21 47  1  0
 21 48  1  0
 22 49  1  0
 22 50  1  0
M  END
>  <i_m_ct_stereo_status>  (224) 
1

>  <s_m_source_file>  (224) 
/var/tmp/pbs.5076255.sched01/tmpos3i1bch/920fm1no0n.sdf

>  <i_m_source_file_index>  (224) 
3

>  <i_lp_mmshare_version>  (224) 
48012

>  <i_f3d_flags>  (224) 
0

>  <s_epik_input>  (224) 
W0NIMl0xW0NIMl1DMTJbQ0BAXTMoW0NIM10pW0NAQEhdKFtDSDJdW0NIMl1bQ0gyXTIpW0NAQEhdNFtDQEhdKFtDSDJdW0NIMl0zKWM1YyhbQ0gyXVtDSDJdNClbY0hdYyhbT0hdKVtjSF1bY0hdNQ==

>  <s_epik_cmdline>  (224) 
J2VwaWtfcHl0aG9uJywgJy1waHQnLCAnMi4wJywgJy1waCcsICc3LjAnLCAnLXRuJywgJzgnLCAnLW1hJywgJzIwMCcsICctaW1hZScsICc8aW5maWxlLm1hZT4nLCAnLW9tYWUnLCAnPG91dGZpbGUubWFlPic=

>  <r_lp_tautomer_probability>  (224) 
1

>  <r_epik_Ionization_Penalty>  (224) 
0.000138457

>  <r_epik_Ionization_Penalty_Charging>  (224) 
0

>  <r_epik_Ionization_Penalty_Neutral>  (224) 
0.000138457

>  <r_epik_State_Penalty>  (224) 
-0

>  <r_epik_Charging_Adjusted_Penalty>  (224) 
0

>  <i_epik_Tot_Q>  (224) 
0

>  <i_epik_Tot_abs_Q>  (224) 
0

>  <s_lp_Force_Field>  (224) 
OPLS3e

>  <r_lp_Energy>  (224) 
41.0993

>  <b_lp_Chiralities_Consistent>  (224) 
1

>  <s_lp_Variant>  (224) 
65:0-1

>  <s_i_glide_gridfile>  (224) 
pfpi4k_grid

>  <i_i_glide_lignum>  (224) 
3

>  <i_i_glide_rotatable_bonds>  (224) 
1

>  <r_i_docking_score>  (224) 
-3.59065

>  <r_i_glide_ligand_efficiency>  (224) 
-0.163212

>  <r_i_glide_ligand_efficiency_sa>  (224) 
-0.457325

>  <r_i_glide_ligand_efficiency_ln>  (224) 
-0.877687

>  <r_i_glide_gscore>  (224) 
-3.59065

>  <r_i_glide_lipo>  (224) 
-0.880603

>  <r_i_glide_hbond>  (224) 
-0.164047

>  <r_i_glide_metal>  (224) 
-0

>  <r_i_glide_rewards>  (224) 
-1.38787

>  <r_i_glide_evdw>  (224) 
-14.5571

>  <r_i_glide_ecoul>  (224) 
-2.86857

>  <r_i_glide_erotb>  (224) 
0

>  <r_i_glide_esite>  (224) 
0

>  <r_i_glide_emodel>  (224) 
-16.6805

>  <r_i_glide_energy>  (224) 
-17.4256

>  <r_i_glide_einternal>  (224) 
1.98635

>  <r_i_glide_intrahb_reward>  (224) 
-0

>  <i_i_glide_confnum>  (224) 
2

>  <i_i_glide_posenum>  (224) 
31

>  <r_i_glide_eff_state_penalty>  (224) 
0

>  <ligand_id>  (224) 
65

>  <original_smiles>  (224) 
CC12CCC3c4ccc(O)cc4CCC3C1CCCC21CC1

>  <smiles>  (224) 
[H]Oc1c([H])c([H])c2c(c1[H])C([H])([H])C([H])([H])C1([H])C2([H])C([H])([H])C([H])([H])C2(C([H])([H])[H])C1([H])C([H])([H])C([H])([H])C([H])([H])C21C([H])([H])C1([H])[H]

$$$$
65:0:2
     RDKit          3D

 50 54  0  0  1  0  0  0  0  0999 V2000
    5.4171   -6.4105    3.7528 C   0  0  0  0  0  0  0  0  0  0  0  0
    4.5089   -5.4462    2.9450 C   0  0  1  0  0  0  0  0  0  0  0  0
    5.5211   -4.3708    2.3849 C   0  0  0  0  0  0  0  0  0  0  0  0
    5.1186   -3.5806    1.1295 C   0  0  0  0  0  0  0  0  0  0  0  0
    4.6739   -4.5268    0.0033 C   0  0  2  0  0  0  0  0  0  0  0  0
    4.2977   -3.7021   -1.2112 C   0  0  0  0  0  0  0  0  0  0  0  0
    5.3399   -3.1963   -2.0071 C   0  0  0  0  0  0  0  0  0  0  0  0
    4.9926   -2.4891   -3.1531 C   0  0  0  0  0  0  0  0  0  0  0  0
    3.6763   -2.1456   -3.4975 C   0  0  0  0  0  0  0  0  0  0  0  0
    3.4257   -1.3791   -4.5900 O   0  0  0  0  0  0  0  0  0  0  0  0
    2.6288   -2.6663   -2.7088 C   0  0  0  0  0  0  0  0  0  0  0  0
    2.9577   -3.4548   -1.5919 C   0  0  0  0  0  0  0  0  0  0  0  0
    1.8397   -4.0648   -0.8413 C   0  0  0  0  0  0  0  0  0  0  0  0
    2.2559   -4.6043    0.5427 C   0  0  0  0  0  0  0  0  0  0  0  0
    3.5282   -5.4120    0.4877 C   0  0  2  0  0  0  0  0  0  0  0  0
    3.8963   -6.2390    1.7510 C   0  0  2  0  0  0  0  0  0  0  0  0
    2.8328   -7.2818    2.1824 C   0  0  0  0  0  0  0  0  0  0  0  0
    1.7830   -6.7515    3.1741 C   0  0  0  0  0  0  0  0  0  0  0  0
    2.4441   -6.0094    4.3384 C   0  0  0  0  0  0  0  0  0  0  0  0
    3.4281   -4.8950    3.9101 C   0  0  0  0  0  0  0  0  0  0  0  0
    2.8765   -3.4818    3.8634 C   0  0  0  0  0  0  0  0  0  0  0  0
    3.7818   -3.9043    5.0070 C   0  0  0  0  0  0  0  0  0  0  0  0
    5.9106   -5.8898    4.5720 H   0  0  0  0  0  0  0  0  0  0  0  0
    6.2023   -6.8276    3.1177 H   0  0  0  0  0  0  0  0  0  0  0  0
    4.8836   -7.2652    4.1711 H   0  0  0  0  0  0  0  0  0  0  0  0
    5.7953   -3.6400    3.1423 H   0  0  0  0  0  0  0  0  0  0  0  0
    6.4557   -4.8686    2.1319 H   0  0  0  0  0  0  0  0  0  0  0  0
    4.3639   -2.8200    1.3183 H   0  0  0  0  0  0  0  0  0  0  0  0
    5.9847   -3.0081    0.7891 H   0  0  0  0  0  0  0  0  0  0  0  0
    5.5141   -5.1659   -0.2684 H   0  0  0  0  0  0  0  0  0  0  0  0
    6.3715   -3.4070   -1.7977 H   0  0  0  0  0  0  0  0  0  0  0  0
    5.8132   -2.2817   -3.8153 H   0  0  0  0  0  0  0  0  0  0  0  0
    2.5278   -1.3042   -4.8563 H   0  0  0  0  0  0  0  0  0  0  0  0
    1.5968   -2.4977   -2.9742 H   0  0  0  0  0  0  0  0  0  0  0  0
    1.0508   -3.2974   -0.7836 H   0  0  0  0  0  0  0  0  0  0  0  0
    1.4344   -4.8919   -1.4414 H   0  0  0  0  0  0  0  0  0  0  0  0
    2.3566   -3.7487    1.2222 H   0  0  0  0  0  0  0  0  0  0  0  0
    1.4497   -5.2363    0.9107 H   0  0  0  0  0  0  0  0  0  0  0  0
    3.3575   -6.1541   -0.2977 H   0  0  0  0  0  0  0  0  0  0  0  0
    4.7088   -6.8567    1.3622 H   0  0  0  0  0  0  0  0  0  0  0  0
    2.3288   -7.7063    1.3128 H   0  0  0  0  0  0  0  0  0  0  0  0
    3.3404   -8.1141    2.6645 H   0  0  0  0  0  0  0  0  0  0  0  0
    1.0432   -6.1140    2.7058 H   0  0  0  0  0  0  0  0  0  0  0  0
    1.2041   -7.5954    3.5623 H   0  0  0  0  0  0  0  0  0  0  0  0
    1.6488   -5.5533    4.9332 H   0  0  0  0  0  0  0  0  0  0  0  0
    2.9371   -6.7129    5.0064 H   0  0  0  0  0  0  0  0  0  0  0  0
    3.2738   -2.7745    3.1460 H   0  0  0  0  0  0  0  0  0  0  0  0
    1.8247   -3.3355    4.1053 H   0  0  0  0  0  0  0  0  0  0  0  0
    3.3188   -4.0333    5.9819 H   0  0  0  0  0  0  0  0  0  0  0  0
    4.7964   -3.5090    5.0414 H   0  0  0  0  0  0  0  0  0  0  0  0
  2  1  1  1
  1 23  1  0
  1 24  1  0
  1 25  1  0
  2 16  1  0
  2 20  1  0
  2  3  1  0
  3  4  1  0
  3 26  1  0
  3 27  1  0
  4  5  1  0
  4 28  1  0
  4 29  1  0
  5 15  1  0
  5  6  1  0
  5 30  1  6
  6 12  2  0
  6  7  1  0
  7  8  2  0
  7 31  1  0
  8  9  1  0
  8 32  1  0
  9 10  1  0
  9 11  2  0
 10 33  1  0
 11 12  1  0
 11 34  1  0
 12 13  1  0
 13 14  1  0
 13 35  1  0
 13 36  1  0
 14 15  1  0
 14 37  1  0
 14 38  1  0
 15 16  1  0
 15 39  1  6
 16 17  1  0
 16 40  1  6
 17 18  1  0
 17 41  1  0
 17 42  1  0
 18 19  1  0
 18 43  1  0
 18 44  1  0
 19 20  1  0
 19 45  1  0
 19 46  1  0
 20 22  1  0
 20 21  1  0
 21 22  1  0
 21 47  1  0
 21 48  1  0
 22 49  1  0
 22 50  1  0
M  END
>  <i_m_ct_stereo_status>  (225) 
1

>  <s_m_source_file>  (225) 
/var/tmp/pbs.5076255.sched01/tmpos3i1bch/920fm1no0n.sdf

>  <i_m_source_file_index>  (225) 
3

>  <i_lp_mmshare_version>  (225) 
48012

>  <i_f3d_flags>  (225) 
0

>  <s_epik_input>  (225) 
W0NIMl0xW0NIMl1DMTJbQ0BAXTMoW0NIM10pW0NAQEhdKFtDSDJdW0NIMl1bQ0gyXTIpW0NAQEhdNFtDQEhdKFtDSDJdW0NIMl0zKWM1YyhbQ0gyXVtDSDJdNClbY0hdYyhbT0hdKVtjSF1bY0hdNQ==

>  <s_epik_cmdline>  (225) 
J2VwaWtfcHl0aG9uJywgJy1waHQnLCAnMi4wJywgJy1waCcsICc3LjAnLCAnLXRuJywgJzgnLCAnLW1hJywgJzIwMCcsICctaW1hZScsICc8aW5maWxlLm1hZT4nLCAnLW9tYWUnLCAnPG91dGZpbGUubWFlPic=

>  <r_lp_tautomer_probability>  (225) 
1

>  <r_epik_Ionization_Penalty>  (225) 
0.000138457

>  <r_epik_Ionization_Penalty_Charging>  (225) 
0

>  <r_epik_Ionization_Penalty_Neutral>  (225) 
0.000138457

>  <r_epik_State_Penalty>  (225) 
-0

>  <r_epik_Charging_Adjusted_Penalty>  (225) 
0

>  <i_epik_Tot_Q>  (225) 
0

>  <i_epik_Tot_abs_Q>  (225) 
0

>  <s_lp_Force_Field>  (225) 
OPLS3e

>  <r_lp_Energy>  (225) 
41.0993

>  <b_lp_Chiralities_Consistent>  (225) 
1

>  <s_lp_Variant>  (225) 
65:0-1

>  <s_i_glide_gridfile>  (225) 
pfpi4k_grid

>  <i_i_glide_lignum>  (225) 
3

>  <i_i_glide_rotatable_bonds>  (225) 
1

>  <r_i_docking_score>  (225) 
-3.48954

>  <r_i_glide_ligand_efficiency>  (225) 
-0.158616

>  <r_i_glide_ligand_efficiency_sa>  (225) 
-0.444447

>  <r_i_glide_ligand_efficiency_ln>  (225) 
-0.852971

>  <r_i_glide_gscore>  (225) 
-3.48954

>  <r_i_glide_lipo>  (225) 
-0.638438

>  <r_i_glide_hbond>  (225) 
-0.44778

>  <r_i_glide_metal>  (225) 
-0

>  <r_i_glide_rewards>  (225) 
-1.38787

>  <r_i_glide_evdw>  (225) 
-14.0447

>  <r_i_glide_ecoul>  (225) 
-2.08817

>  <r_i_glide_erotb>  (225) 
0

>  <r_i_glide_esite>  (225) 
0

>  <r_i_glide_emodel>  (225) 
-17.266

>  <r_i_glide_energy>  (225) 
-16.1328

>  <r_i_glide_einternal>  (225) 
0.0318698

>  <r_i_glide_intrahb_reward>  (225) 
-0

>  <i_i_glide_confnum>  (225) 
1

>  <i_i_glide_posenum>  (225) 
5

>  <r_i_glide_eff_state_penalty>  (225) 
0

>  <ligand_id>  (225) 
65

>  <original_smiles>  (225) 
CC12CCC3c4ccc(O)cc4CCC3C1CCCC21CC1

>  <smiles>  (225) 
[H]Oc1c([H])c([H])c2c(c1[H])C([H])([H])C([H])([H])C1([H])C2([H])C([H])([H])C([H])([H])C2(C([H])([H])[H])C1([H])C([H])([H])C([H])([H])C([H])([H])C21C([H])([H])C1([H])[H]

$$$$
66:0:0
     RDKit          3D

 53 59  0  0  1  0  0  0  0  0999 V2000
    1.5251   -3.2524   -1.9102 C   0  0  0  0  0  0  0  0  0  0  0  0
    2.4565   -3.6219   -0.8997 O   0  0  0  0  0  0  0  0  0  0  0  0
    3.8067   -3.8318   -1.3434 C   0  0  2  0  0  0  0  0  0  0  0  0
    4.8872   -4.8891   -0.7382 C   0  0  1  0  0  0  0  0  0  0  0  0
    5.3818   -3.5307   -0.3836 C   0  0  2  0  0  0  0  0  0  0  0  0
    5.6250   -3.1987    1.3313 C   0  0  1  0  0  0  0  0  0  0  0  0
    5.2831   -4.0864    2.4729 C   0  0  0  0  0  0  0  0  0  0  0  0
    4.5328   -5.2191    1.8245 C   0  0  1  0  0  0  0  0  0  0  0  0
    3.0788   -4.9830    1.3279 C   0  0  1  0  0  0  0  0  0  0  0  0
    1.9599   -5.7381    2.1348 C   0  0  0  0  0  0  0  0  0  0  0  0
    2.7199   -4.9259    3.1530 C   0  0  2  0  0  0  0  0  0  0  0  0
    2.4758   -3.7352    2.0003 C   0  0  1  0  0  0  0  0  0  0  0  0
    3.0372   -2.1660    1.8656 C   0  0  0  0  0  0  0  0  0  0  0  0
    3.9749   -1.4451    1.0918 C   0  0  0  0  0  0  0  0  0  0  0  0
    5.3254   -1.8499    0.1229 C   0  0  1  0  0  0  0  0  0  0  0  0
    5.8705   -0.6570   -0.3360 O   0  0  0  0  0  0  0  0  0  0  0  0
    6.7348   -2.9008    0.7608 C   0  0  2  0  0  0  0  0  0  0  0  0
    7.0548   -4.6430    0.7557 C   0  0  1  0  0  0  0  0  0  0  0  0
    7.9258   -5.0291    1.8255 O   0  0  0  0  0  0  0  0  0  0  0  0
    8.4428   -6.3457    1.7614 C   0  0  0  0  0  0  0  0  0  0  0  0
    5.5640   -5.5119    0.6115 C   0  0  2  0  0  0  0  0  0  0  0  0
    4.6997   -2.5530   -1.1550 C   0  0  2  0  0  0  0  0  0  0  0  0
    4.0863   -5.7785    3.1772 C   0  0  1  0  0  0  0  0  0  0  0  0
    4.0316   -7.2066    3.1124 O   0  0  0  0  0  0  0  0  0  0  0  0
    3.5537   -7.8489    4.2864 C   0  0  0  0  0  0  0  0  0  0  0  0
    0.5131   -3.2009   -1.5074 H   0  0  0  0  0  0  0  0  0  0  0  0
    1.4960   -3.9817   -2.7114 H   0  0  0  0  0  0  0  0  0  0  0  0
    1.7653   -2.2791   -2.3352 H   0  0  0  0  0  0  0  0  0  0  0  0
    3.7242   -4.0323   -2.4177 H   0  0  0  0  0  0  0  0  0  0  0  0
    5.3940   -5.3237   -1.5939 H   0  0  0  0  0  0  0  0  0  0  0  0
    6.2324   -3.5464   -1.1366 H   0  0  0  0  0  0  0  0  0  0  0  0
    5.7998   -2.3454    2.0411 H   0  0  0  0  0  0  0  0  0  0  0  0
    6.1422   -4.3982    3.0708 H   0  0  0  0  0  0  0  0  0  0  0  0
    4.7301   -3.5126    3.2296 H   0  0  0  0  0  0  0  0  0  0  0  0
    2.8156   -5.3688    0.3517 H   0  0  0  0  0  0  0  0  0  0  0  0
    0.9019   -5.5215    1.9630 H   0  0  0  0  0  0  0  0  0  0  0  0
    2.0275   -6.8285    2.2004 H   0  0  0  0  0  0  0  0  0  0  0  0
    2.1950   -4.8146    4.1026 H   0  0  0  0  0  0  0  0  0  0  0  0
    1.4185   -3.5823    1.7825 H   0  0  0  0  0  0  0  0  0  0  0  0
    2.2979   -1.5461    2.3533 H   0  0  0  0  0  0  0  0  0  0  0  0
    3.7239   -2.2357    0.5548 H   0  0  0  0  0  0  0  0  0  0  0  0
    5.1659   -0.0271   -0.4821 H   0  0  0  0  0  0  0  0  0  0  0  0
    7.5071   -2.3391    1.2852 H   0  0  0  0  0  0  0  0  0  0  0  0
    7.6508   -4.8656   -0.1274 H   0  0  0  0  0  0  0  0  0  0  0  0
    9.1558   -6.4892    2.5766 H   0  0  0  0  0  0  0  0  0  0  0  0
    8.9727   -6.5262    0.8256 H   0  0  0  0  0  0  0  0  0  0  0  0
    7.6554   -7.0896    1.8775 H   0  0  0  0  0  0  0  0  0  0  0  0
    5.7015   -6.5884    0.4992 H   0  0  0  0  0  0  0  0  0  0  0  0
    5.0827   -2.2106   -2.1285 H   0  0  0  0  0  0  0  0  0  0  0  0
    4.6651   -5.5608    4.0813 H   0  0  0  0  0  0  0  0  0  0  0  0
    3.5467   -8.9298    4.1326 H   0  0  0  0  0  0  0  0  0  0  0  0
    2.5340   -7.5423    4.5189 H   0  0  0  0  0  0  0  0  0  0  0  0
    4.1892   -7.6413    5.1475 H   0  0  0  0  0  0  0  0  0  0  0  0
  1  2  1  0
  1 26  1  0
  1 27  1  0
  1 28  1  0
  2  3  1  0
  3 22  1  0
  3  4  1  0
  3 29  1  6
  4 21  1  0
  4  5  1  0
  4 30  1  6
  5 22  1  0
  5  6  1  0
  5 31  1  6
  6 17  1  0
  6  7  1  0
  6 32  1  1
  8  7  1  1
  7 33  1  0
  7 34  1  0
  8 21  1  0
  8 23  1  0
  8  9  1  0
  9 12  1  0
  9 10  1  0
  9 35  1  6
 10 11  1  0
 10 36  1  0
 10 37  1  0
 11 12  1  0
 11 23  1  0
 11 38  1  1
 12 13  1  0
 12 39  1  6
 13 14  2  3
 13 40  1  0
 14 15  1  0
 14 41  1  0
 15 16  1  6
 15 17  1  0
 15 22  1  0
 16 42  1  0
 17 18  1  0
 17 43  1  1
 18 19  1  0
 18 21  1  0
 18 44  1  6
 19 20  1  0
 20 45  1  0
 20 46  1  0
 20 47  1  0
 21 48  1  6
 22 49  1  6
 23 24  1  0
 23 50  1  1
 24 25  1  0
 25 51  1  0
 25 52  1  0
 25 53  1  0
M  END
>  <i_m_ct_stereo_status>  (226) 
1

>  <s_m_source_file>  (226) 
/var/tmp/pbs.5076255.sched01/tmpos3i1bch/920fm1no0n.sdf

>  <i_m_source_file_index>  (226) 
4

>  <i_lp_mmshare_version>  (226) 
48012

>  <i_f3d_flags>  (226) 
0

>  <s_epik_input>  (226) 
W0NIM11PW0NASF0xW0NAQEhdMltDQEBIXShbQ0BIXShbQ0BIXTM0KU9bQ0gzXSlbQ0BASF0zW0NAQEhdKFtDSDJdNSlbQ0BASF0xW0NAXTQoW09IXSkvW0NIXT1bQ0hdXFtDQEhdKFtDQEhdNltDQEBdMjU3KVtDQEBIXShbQ0gyXTYpW0NASF03T1tDSDNd

>  <s_epik_cmdline>  (226) 
J2VwaWtfcHl0aG9uJywgJy1waHQnLCAnMi4wJywgJy1waCcsICc3LjAnLCAnLXRuJywgJzgnLCAnLW1hJywgJzIwMCcsICctaW1hZScsICc8aW5maWxlLm1hZT4nLCAnLW9tYWUnLCAnPG91dGZpbGUubWFlPic=

>  <r_lp_tautomer_probability>  (226) 
1

>  <r_epik_Ionization_Penalty>  (226) 
1.47747e-07

>  <r_epik_Ionization_Penalty_Charging>  (226) 
0

>  <r_epik_Ionization_Penalty_Neutral>  (226) 
1.47747e-07

>  <r_epik_State_Penalty>  (226) 
-0

>  <r_epik_Charging_Adjusted_Penalty>  (226) 
0

>  <i_epik_Tot_Q>  (226) 
0

>  <i_epik_Tot_abs_Q>  (226) 
0

>  <s_lp_Force_Field>  (226) 
OPLS3e

>  <r_lp_Energy>  (226) 
643.085

>  <b_lp_Chiralities_Consistent>  (226) 
1

>  <s_lp_Variant>  (226) 
66:0-1

>  <s_i_glide_gridfile>  (226) 
pfpi4k_grid

>  <i_i_glide_lignum>  (226) 
4

>  <i_i_glide_rotatable_bonds>  (226) 
4

>  <r_i_docking_score>  (226) 
0.720989

>  <r_i_glide_ligand_efficiency>  (226) 
0.0288396

>  <r_i_glide_ligand_efficiency_sa>  (226) 
0.0843274

>  <r_i_glide_ligand_efficiency_ln>  (226) 
0.170896

>  <r_i_glide_gscore>  (226) 
0.720989

>  <r_i_glide_lipo>  (226) 
-0.500354

>  <r_i_glide_hbond>  (226) 
-0.117854

>  <r_i_glide_metal>  (226) 
-0

>  <r_i_glide_rewards>  (226) 
-1.0606

>  <r_i_glide_evdw>  (226) 
-12.6201

>  <r_i_glide_ecoul>  (226) 
-2.9957

>  <r_i_glide_erotb>  (226) 
0

>  <r_i_glide_esite>  (226) 
0

>  <r_i_glide_emodel>  (226) 
-0.424984

>  <r_i_glide_energy>  (226) 
-15.6158

>  <r_i_glide_einternal>  (226) 
2.72835

>  <r_i_glide_intrahb_reward>  (226) 
-0

>  <i_i_glide_confnum>  (226) 
1

>  <i_i_glide_posenum>  (226) 
2

>  <r_i_glide_eff_state_penalty>  (226) 
0

>  <ligand_id>  (226) 
66

>  <original_smiles>  (226) 
COC1C2C3C4CC56C7CC(C7C=CC(O)(C4C(OC)C25)C13)C6OC

>  <smiles>  (226) 
[H]OC12C([H])=C([H])C3([H])C4([H])C([H])([H])C3([H])C3(C([H])([H])C5([H])C1([H])C([H])(OC([H])([H])[H])C3([H])C1([H])C([H])(OC([H])([H])[H])C2([H])C51[H])C4([H])OC([H])([H])[H]

$$$$
66:0:1
     RDKit          3D

 53 59  0  0  1  0  0  0  0  0999 V2000
    2.6955   -0.7911    1.7647 C   0  0  0  0  0  0  0  0  0  0  0  0
    2.5475   -2.2288    1.7988 O   0  0  0  0  0  0  0  0  0  0  0  0
    3.2931   -2.9820    2.7760 C   0  0  2  0  0  0  0  0  0  0  0  0
    4.8936   -3.2967    2.7560 C   0  0  1  0  0  0  0  0  0  0  0  0
    4.2145   -4.5833    2.4787 C   0  0  2  0  0  0  0  0  0  0  0  0
    4.6288   -5.4010    0.9701 C   0  0  1  0  0  0  0  0  0  0  0  0
    5.4837   -4.8948   -0.1440 C   0  0  0  0  0  0  0  0  0  0  0  0
    5.7612   -3.4966    0.2553 C   0  0  1  0  0  0  0  0  0  0  0  0
    4.6536   -2.4687    0.1023 C   0  0  1  0  0  0  0  0  0  0  0  0
    4.8342   -1.3026   -0.9534 C   0  0  0  0  0  0  0  0  0  0  0  0
    4.9380   -2.6176   -1.6752 C   0  0  2  0  0  0  0  0  0  0  0  0
    3.5067   -2.9056   -0.8255 C   0  0  1  0  0  0  0  0  0  0  0  0
    2.5596   -4.2745   -0.6254 C   0  0  0  0  0  0  0  0  0  0  0  0
    2.2882   -5.2494    0.3588 C   0  0  0  0  0  0  0  0  0  0  0  0
    3.0318   -5.7408    1.8248 C   0  0  1  0  0  0  0  0  0  0  0  0
    2.2713   -6.7949    2.3412 O   0  0  0  0  0  0  0  0  0  0  0  0
    4.8209   -6.2826    1.8703 C   0  0  2  0  0  0  0  0  0  0  0  0
    6.3477   -5.4277    2.1779 C   0  0  1  0  0  0  0  0  0  0  0  0
    7.4822   -6.0423    1.5734 O   0  0  0  0  0  0  0  0  0  0  0  0
    7.8309   -7.2904    2.1663 C   0  0  0  0  0  0  0  0  0  0  0  0
    6.1559   -3.7401    1.8182 C   0  0  2  0  0  0  0  0  0  0  0  0
    2.8509   -4.5045    2.8290 C   0  0  2  0  0  0  0  0  0  0  0  0
    6.3642   -3.1050   -1.0832 C   0  0  1  0  0  0  0  0  0  0  0  0
    7.4125   -2.1466   -0.9174 O   0  0  0  0  0  0  0  0  0  0  0  0
    8.6149   -2.7207   -0.4186 C   0  0  0  0  0  0  0  0  0  0  0  0
    2.1495   -0.3975    0.9029 H   0  0  0  0  0  0  0  0  0  0  0  0
    3.6986   -0.3950    1.6168 H   0  0  0  0  0  0  0  0  0  0  0  0
    2.4234   -0.3081    2.6928 H   0  0  0  0  0  0  0  0  0  0  0  0
    3.0206   -2.5196    3.7294 H   0  0  0  0  0  0  0  0  0  0  0  0
    5.2321   -3.1851    3.7876 H   0  0  0  0  0  0  0  0  0  0  0  0
    4.4536   -5.0330    3.4888 H   0  0  0  0  0  0  0  0  0  0  0  0
    4.2816   -6.2273    0.2890 H   0  0  0  0  0  0  0  0  0  0  0  0
    6.3950   -5.4653   -0.3171 H   0  0  0  0  0  0  0  0  0  0  0  0
    4.9719   -5.0067   -1.1077 H   0  0  0  0  0  0  0  0  0  0  0  0
    4.6011   -1.9066    0.9752 H   0  0  0  0  0  0  0  0  0  0  0  0
    4.0120   -0.6193   -1.2036 H   0  0  0  0  0  0  0  0  0  0  0  0
    5.7272   -0.6761   -0.8811 H   0  0  0  0  0  0  0  0  0  0  0  0
    4.8591   -2.5163   -2.7611 H   0  0  0  0  0  0  0  0  0  0  0  0
    2.7455   -2.1350   -1.0194 H   0  0  0  0  0  0  0  0  0  0  0  0
    1.8305   -4.2138   -1.4263 H   0  0  0  0  0  0  0  0  0  0  0  0
    2.5853   -4.4263    0.8300 H   0  0  0  0  0  0  0  0  0  0  0  0
    2.5545   -7.5729    1.8916 H   0  0  0  0  0  0  0  0  0  0  0  0
    4.9906   -7.3253    1.6064 H   0  0  0  0  0  0  0  0  0  0  0  0
    6.5813   -5.4677    3.2457 H   0  0  0  0  0  0  0  0  0  0  0  0
    8.6006   -7.7854    1.5776 H   0  0  0  0  0  0  0  0  0  0  0  0
    6.9902   -7.9807    2.2385 H   0  0  0  0  0  0  0  0  0  0  0  0
    8.2292   -7.1444    3.1703 H   0  0  0  0  0  0  0  0  0  0  0  0
    7.0096   -3.1251    2.0807 H   0  0  0  0  0  0  0  0  0  0  0  0
    2.4710   -4.7668    3.8370 H   0  0  0  0  0  0  0  0  0  0  0  0
    6.7844   -3.8687   -1.7276 H   0  0  0  0  0  0  0  0  0  0  0  0
    9.3824   -1.9571   -0.3198 H   0  0  0  0  0  0  0  0  0  0  0  0
    8.9890   -3.4919   -1.0894 H   0  0  0  0  0  0  0  0  0  0  0  0
    8.4941   -3.1692    0.5634 H   0  0  0  0  0  0  0  0  0  0  0  0
  1  2  1  0
  1 26  1  0
  1 27  1  0
  1 28  1  0
  2  3  1  0
  3 22  1  0
  3  4  1  0
  3 29  1  1
  4 21  1  0
  4  5  1  0
  4 30  1  1
  5 22  1  0
  5  6  1  0
  5 31  1  1
  6 17  1  0
  6  7  1  0
  6 32  1  6
  8  7  1  6
  7 33  1  0
  7 34  1  0
  8 21  1  0
  8 23  1  0
  8  9  1  0
  9 12  1  0
  9 10  1  0
  9 35  1  1
 10 11  1  0
 10 36  1  0
 10 37  1  0
 11 12  1  0
 11 23  1  0
 11 38  1  6
 12 13  1  0
 12 39  1  6
 13 14  2  3
 13 40  1  0
 14 15  1  0
 14 41  1  0
 15 16  1  1
 15 17  1  0
 15 22  1  0
 16 42  1  0
 17 18  1  0
 17 43  1  6
 18 19  1  0
 18 21  1  0
 18 44  1  1
 19 20  1  0
 20 45  1  0
 20 46  1  0
 20 47  1  0
 21 48  1  1
 22 49  1  1
 23 24  1  0
 23 50  1  6
 24 25  1  0
 25 51  1  0
 25 52  1  0
 25 53  1  0
M  END
>  <i_m_ct_stereo_status>  (227) 
1

>  <s_m_source_file>  (227) 
/var/tmp/pbs.5076255.sched01/tmpos3i1bch/920fm1no0n.sdf

>  <i_m_source_file_index>  (227) 
4

>  <i_lp_mmshare_version>  (227) 
48012

>  <i_f3d_flags>  (227) 
0

>  <s_epik_input>  (227) 
W0NIM11PW0NASF0xW0NAQEhdMltDQEBIXShbQ0BIXShbQ0BIXTM0KU9bQ0gzXSlbQ0BASF0zW0NAQEhdKFtDSDJdNSlbQ0BASF0xW0NAXTQoW09IXSkvW0NIXT1bQ0hdXFtDQEhdKFtDQEhdNltDQEBdMjU3KVtDQEBIXShbQ0gyXTYpW0NASF03T1tDSDNd

>  <s_epik_cmdline>  (227) 
J2VwaWtfcHl0aG9uJywgJy1waHQnLCAnMi4wJywgJy1waCcsICc3LjAnLCAnLXRuJywgJzgnLCAnLW1hJywgJzIwMCcsICctaW1hZScsICc8aW5maWxlLm1hZT4nLCAnLW9tYWUnLCAnPG91dGZpbGUubWFlPic=

>  <r_lp_tautomer_probability>  (227) 
1

>  <r_epik_Ionization_Penalty>  (227) 
1.47747e-07

>  <r_epik_Ionization_Penalty_Charging>  (227) 
0

>  <r_epik_Ionization_Penalty_Neutral>  (227) 
1.47747e-07

>  <r_epik_State_Penalty>  (227) 
-0

>  <r_epik_Charging_Adjusted_Penalty>  (227) 
0

>  <i_epik_Tot_Q>  (227) 
0

>  <i_epik_Tot_abs_Q>  (227) 
0

>  <s_lp_Force_Field>  (227) 
OPLS3e

>  <r_lp_Energy>  (227) 
643.085

>  <b_lp_Chiralities_Consistent>  (227) 
1

>  <s_lp_Variant>  (227) 
66:0-1

>  <s_i_glide_gridfile>  (227) 
pfpi4k_grid

>  <i_i_glide_lignum>  (227) 
4

>  <i_i_glide_rotatable_bonds>  (227) 
4

>  <r_i_docking_score>  (227) 
0.91788

>  <r_i_glide_ligand_efficiency>  (227) 
0.0367152

>  <r_i_glide_ligand_efficiency_sa>  (227) 
0.107356

>  <r_i_glide_ligand_efficiency_ln>  (227) 
0.217565

>  <r_i_glide_gscore>  (227) 
0.91788

>  <r_i_glide_lipo>  (227) 
-0.401606

>  <r_i_glide_hbond>  (227) 
-0.16

>  <r_i_glide_metal>  (227) 
-0

>  <r_i_glide_rewards>  (227) 
-1.0606

>  <r_i_glide_evdw>  (227) 
-15.9514

>  <r_i_glide_ecoul>  (227) 
-2.54222

>  <r_i_glide_erotb>  (227) 
0

>  <r_i_glide_esite>  (227) 
0

>  <r_i_glide_emodel>  (227) 
-3.12785

>  <r_i_glide_energy>  (227) 
-18.4936

>  <r_i_glide_einternal>  (227) 
1.29202

>  <r_i_glide_intrahb_reward>  (227) 
-0

>  <i_i_glide_confnum>  (227) 
2

>  <i_i_glide_posenum>  (227) 
17

>  <r_i_glide_eff_state_penalty>  (227) 
0

>  <ligand_id>  (227) 
66

>  <original_smiles>  (227) 
COC1C2C3C4CC56C7CC(C7C=CC(O)(C4C(OC)C25)C13)C6OC

>  <smiles>  (227) 
[H]OC12C([H])=C([H])C3([H])C4([H])C([H])([H])C3([H])C3(C([H])([H])C5([H])C1([H])C([H])(OC([H])([H])[H])C3([H])C1([H])C([H])(OC([H])([H])[H])C2([H])C51[H])C4([H])OC([H])([H])[H]

$$$$
67:0:0
     RDKit          3D

 49 52  0  0  1  0  0  0  0  0999 V2000
    1.2531   -4.4709    4.6091 C   0  0  0  0  0  0  0  0  0  0  0  0
    2.3014   -3.6440    4.4457 C   0  0  0  0  0  0  0  0  0  0  0  0
    3.3862   -3.7294    3.3700 C   0  0  1  0  0  0  0  0  0  0  0  0
    4.6447   -4.2721    4.0919 C   0  0  0  0  0  0  0  0  0  0  0  0
    2.9261   -4.6264    2.2055 C   0  0  0  0  0  0  0  0  0  0  0  0
    3.6664   -4.3263    0.9181 C   0  0  2  0  0  0  0  0  0  0  0  0
    5.0903   -4.5443    1.0907 O   0  0  0  0  0  0  0  0  0  0  0  0
    5.9111   -3.5240    0.5653 C   0  0  2  0  0  0  0  0  0  0  0  0
    7.2654   -3.9198    0.5553 O   0  0  0  0  0  0  0  0  0  0  0  0
    5.6592   -2.3106    1.5226 C   0  0  1  0  0  0  0  0  0  0  0  0
    6.5085   -1.0776    1.1485 C   0  0  0  0  0  0  0  0  0  0  0  0
    4.1006   -2.0364    1.6171 C   0  0  2  0  0  0  0  0  0  0  0  0
    3.8898   -0.6553    1.4745 O   0  0  0  0  0  0  0  0  0  0  0  0
    2.5762   -0.1599    1.6994 C   0  0  0  0  0  0  0  0  0  0  0  0
    3.6316   -2.3881    2.9129 O   0  0  0  0  0  0  0  0  0  0  0  0
    3.3668   -2.8677    0.4857 C   0  0  1  0  0  0  0  0  0  0  0  0
    4.0518   -2.5704   -0.8977 C   0  0  2  0  0  0  0  0  0  0  0  0
    4.2389   -1.1720   -1.0792 O   0  0  0  0  0  0  0  0  0  0  0  0
    3.6019   -3.0400   -2.3160 C   0  0  1  0  0  0  0  0  0  0  0  0
    2.4930   -2.2464   -3.0151 C   0  0  0  0  0  0  0  0  0  0  0  0
    4.9511   -3.0088   -3.0620 C   0  0  0  0  0  0  0  0  0  0  0  0
    5.9888   -3.1014   -2.2087 C   0  0  0  0  0  0  0  0  0  0  0  0
    5.3629   -3.3557   -0.8721 C   0  0  1  0  0  0  0  0  0  0  0  0
    1.0961   -5.3232    3.9664 H   0  0  0  0  0  0  0  0  0  0  0  0
    0.5327   -4.3148    5.3992 H   0  0  0  0  0  0  0  0  0  0  0  0
    2.4128   -2.8175    5.1386 H   0  0  0  0  0  0  0  0  0  0  0  0
    4.4272   -5.2186    4.5903 H   0  0  0  0  0  0  0  0  0  0  0  0
    4.9845   -3.5767    4.8610 H   0  0  0  0  0  0  0  0  0  0  0  0
    5.4879   -4.4669    3.4380 H   0  0  0  0  0  0  0  0  0  0  0  0
    3.0263   -5.6771    2.4696 H   0  0  0  0  0  0  0  0  0  0  0  0
    1.8796   -4.4462    1.9832 H   0  0  0  0  0  0  0  0  0  0  0  0
    3.3026   -5.0089    0.1462 H   0  0  0  0  0  0  0  0  0  0  0  0
    7.5251   -4.0817    1.4513 H   0  0  0  0  0  0  0  0  0  0  0  0
    6.0033   -2.5937    2.5134 H   0  0  0  0  0  0  0  0  0  0  0  0
    6.3349   -0.7023    0.1433 H   0  0  0  0  0  0  0  0  0  0  0  0
    7.5692   -1.3153    1.2204 H   0  0  0  0  0  0  0  0  0  0  0  0
    6.3103   -0.2664    1.8507 H   0  0  0  0  0  0  0  0  0  0  0  0
    2.6155    0.9280    1.7676 H   0  0  0  0  0  0  0  0  0  0  0  0
    2.1348   -0.5195    2.6294 H   0  0  0  0  0  0  0  0  0  0  0  0
    1.9124   -0.4033    0.8902 H   0  0  0  0  0  0  0  0  0  0  0  0
    2.3003   -2.6501    0.4728 H   0  0  0  0  0  0  0  0  0  0  0  0
    3.3735   -0.7881   -1.0852 H   0  0  0  0  0  0  0  0  0  0  0  0
    3.2698   -4.0740   -2.2584 H   0  0  0  0  0  0  0  0  0  0  0  0
    2.2353   -2.6872   -3.9790 H   0  0  0  0  0  0  0  0  0  0  0  0
    2.7569   -1.2020   -3.1938 H   0  0  0  0  0  0  0  0  0  0  0  0
    1.5962   -2.2739   -2.4003 H   0  0  0  0  0  0  0  0  0  0  0  0
    5.0069   -2.8973   -4.1344 H   0  0  0  0  0  0  0  0  0  0  0  0
    7.0461   -3.1196   -2.4314 H   0  0  0  0  0  0  0  0  0  0  0  0
    5.1680   -4.4131   -1.0940 H   0  0  0  0  0  0  0  0  0  0  0  0
  1  2  2  0
  1 24  1  0
  1 25  1  0
  2  3  1  0
  2 26  1  0
  3 15  1  0
  3  4  1  1
  3  5  1  0
  4 27  1  0
  4 28  1  0
  4 29  1  0
  5  6  1  0
  5 30  1  0
  5 31  1  0
  6 16  1  0
  6  7  1  0
  6 32  1  6
  7  8  1  0
  8 23  1  0
  8  9  1  6
  8 10  1  0
  9 33  1  0
 10 11  1  0
 10 12  1  0
 10 34  1  1
 11 35  1  0
 11 36  1  0
 11 37  1  0
 12 13  1  6
 12 15  1  0
 12 16  1  0
 13 14  1  0
 14 38  1  0
 14 39  1  0
 14 40  1  0
 16 17  1  0
 16 41  1  6
 17 23  1  0
 17 18  1  6
 17 19  1  0
 18 42  1  0
 19 20  1  0
 19 21  1  0
 19 43  1  1
 20 44  1  0
 20 45  1  0
 20 46  1  0
 21 22  2  0
 21 47  1  0
 22 23  1  0
 22 48  1  0
 23 49  1  6
M  END
>  <i_m_ct_stereo_status>  (228) 
1

>  <s_m_source_file>  (228) 
/var/tmp/pbs.5076255.sched01/tmpos3i1bch/920fm1no0n.sdf

>  <i_m_source_file_index>  (228) 
5

>  <i_lp_mmshare_version>  (228) 
48012

>  <i_f3d_flags>  (228) 
0

>  <s_epik_input>  (228) 
W0NIM11bQ0BIXTFbQ0BdMihPW0NIM10pT1tDQEBdKFtDSDNdKShbQ0hdPVtDSDJdKVtDSDJdW0NASF0oTzMpW0NAQEhdMltDQF0oW09IXSkoW0NAQEhdKFtDSDNdKVtDSF09W0NIXTQpW0NAQEhdNFtDQEBdMTNbT0hd

>  <s_epik_cmdline>  (228) 
J2VwaWtfcHl0aG9uJywgJy1waHQnLCAnMi4wJywgJy1waCcsICc3LjAnLCAnLXRuJywgJzgnLCAnLW1hJywgJzIwMCcsICctaW1hZScsICc8aW5maWxlLm1hZT4nLCAnLW9tYWUnLCAnPG91dGZpbGUubWFlPic=

>  <r_lp_tautomer_probability>  (228) 
1

>  <r_epik_Ionization_Penalty>  (228) 
2.5261e-06

>  <r_epik_Ionization_Penalty_Charging>  (228) 
0

>  <r_epik_Ionization_Penalty_Neutral>  (228) 
2.5261e-06

>  <r_epik_State_Penalty>  (228) 
-0

>  <r_epik_Charging_Adjusted_Penalty>  (228) 
0

>  <i_epik_Tot_Q>  (228) 
0

>  <i_epik_Tot_abs_Q>  (228) 
0

>  <s_lp_Force_Field>  (228) 
OPLS3e

>  <r_lp_Energy>  (228) 
69.0979

>  <b_lp_Chiralities_Consistent>  (228) 
1

>  <s_lp_Variant>  (228) 
67:0-1

>  <s_i_glide_gridfile>  (228) 
pfpi4k_grid

>  <i_i_glide_lignum>  (228) 
5

>  <i_i_glide_rotatable_bonds>  (228) 
4

>  <r_i_docking_score>  (228) 
-2.97206

>  <r_i_glide_ligand_efficiency>  (228) 
-0.12922

>  <r_i_glide_ligand_efficiency_sa>  (228) 
-0.367484

>  <r_i_glide_ligand_efficiency_ln>  (228) 
-0.718671

>  <r_i_glide_gscore>  (228) 
-2.97206

>  <r_i_glide_lipo>  (228) 
-0.565563

>  <r_i_glide_hbond>  (228) 
0

>  <r_i_glide_metal>  (228) 
-0

>  <r_i_glide_rewards>  (228) 
-1.3067

>  <r_i_glide_evdw>  (228) 
-20.0534

>  <r_i_glide_ecoul>  (228) 
-1.83508

>  <r_i_glide_erotb>  (228) 
0.179911

>  <r_i_glide_esite>  (228) 
-0.00177973

>  <r_i_glide_emodel>  (228) 
-25.3283

>  <r_i_glide_energy>  (228) 
-21.8885

>  <r_i_glide_einternal>  (228) 
1.64256

>  <r_i_glide_intrahb_reward>  (228) 
-0

>  <i_i_glide_confnum>  (228) 
2

>  <i_i_glide_posenum>  (228) 
12

>  <r_i_glide_eff_state_penalty>  (228) 
0

>  <ligand_id>  (228) 
67

>  <original_smiles>  (228) 
C=CC1(C)CC2OC3(O)C(C)C(OC)(O1)C2C1(O)C(C)C=CC31

>  <smiles>  (228) 
[H]OC12OC3([H])C([H])([H])C(C([H])=C([H])[H])(C([H])([H])[H])OC(OC([H])([H])[H])(C1([H])C([H])([H])[H])C3([H])C1(O[H])C([H])(C([H])([H])[H])C([H])=C([H])C21[H]

$$$$
67:0:1
     RDKit          3D

 49 52  0  0  1  0  0  0  0  0999 V2000
    0.5603   -7.2871    2.8444 C   0  0  0  0  0  0  0  0  0  0  0  0
    1.2963   -6.2328    3.2553 C   0  0  0  0  0  0  0  0  0  0  0  0
    2.5458   -5.6552    2.5897 C   0  0  1  0  0  0  0  0  0  0  0  0
    3.7281   -6.0357    3.5179 C   0  0  0  0  0  0  0  0  0  0  0  0
    2.7127   -6.2092    1.1604 C   0  0  0  0  0  0  0  0  0  0  0  0
    3.5726   -5.3012    0.3045 C   0  0  2  0  0  0  0  0  0  0  0  0
    4.8982   -5.1719    0.8758 O   0  0  0  0  0  0  0  0  0  0  0  0
    5.3947   -3.8580    0.8744 C   0  0  2  0  0  0  0  0  0  0  0  0
    6.7713   -3.8527    1.1752 O   0  0  0  0  0  0  0  0  0  0  0  0
    4.5544   -3.1137    1.9729 C   0  0  1  0  0  0  0  0  0  0  0  0
    5.0449   -1.6405    2.1434 C   0  0  0  0  0  0  0  0  0  0  0  0
    3.0069   -3.3349    1.6340 C   0  0  2  0  0  0  0  0  0  0  0  0
    2.3076   -2.1220    1.7260 O   0  0  0  0  0  0  0  0  0  0  0  0
    1.9288   -1.6803    3.0297 C   0  0  0  0  0  0  0  0  0  0  0  0
    2.3745   -4.2248    2.5533 O   0  0  0  0  0  0  0  0  0  0  0  0
    2.8775   -3.9165    0.1620 C   0  0  1  0  0  0  0  0  0  0  0  0
    3.6865   -3.0132   -0.8406 C   0  0  2  0  0  0  0  0  0  0  0  0
    3.4164   -1.6285   -0.6081 O   0  0  0  0  0  0  0  0  0  0  0  0
    3.7501   -3.1177   -2.4066 C   0  0  1  0  0  0  0  0  0  0  0  0
    2.6060   -2.4591   -3.1958 C   0  0  0  0  0  0  0  0  0  0  0  0
    5.1239   -2.4691   -2.6456 C   0  0  0  0  0  0  0  0  0  0  0  0
    5.9151   -2.5682   -1.5649 C   0  0  0  0  0  0  0  0  0  0  0  0
    5.1496   -3.3868   -0.5824 C   0  0  1  0  0  0  0  0  0  0  0  0
    0.8231   -7.8575    1.9652 H   0  0  0  0  0  0  0  0  0  0  0  0
   -0.3182   -7.6042    3.3909 H   0  0  0  0  0  0  0  0  0  0  0  0
    0.9929   -5.7154    4.1518 H   0  0  0  0  0  0  0  0  0  0  0  0
    3.7611   -7.1147    3.6817 H   0  0  0  0  0  0  0  0  0  0  0  0
    3.6243   -5.5697    4.4970 H   0  0  0  0  0  0  0  0  0  0  0  0
    4.7092   -5.7685    3.1380 H   0  0  0  0  0  0  0  0  0  0  0  0
    3.1169   -7.2238    1.1807 H   0  0  0  0  0  0  0  0  0  0  0  0
    1.7544   -6.2478    0.6441 H   0  0  0  0  0  0  0  0  0  0  0  0
    3.6898   -5.7539   -0.6774 H   0  0  0  0  0  0  0  0  0  0  0  0
    6.8713   -4.1389    2.0701 H   0  0  0  0  0  0  0  0  0  0  0  0
    4.7461   -3.6056    2.9216 H   0  0  0  0  0  0  0  0  0  0  0  0
    4.9782   -1.0591    1.2182 H   0  0  0  0  0  0  0  0  0  0  0  0
    6.1129   -1.6563    2.4027 H   0  0  0  0  0  0  0  0  0  0  0  0
    4.5442   -1.0979    2.9393 H   0  0  0  0  0  0  0  0  0  0  0  0
    1.7021   -0.6136    2.9796 H   0  0  0  0  0  0  0  0  0  0  0  0
    2.7170   -1.8157    3.7687 H   0  0  0  0  0  0  0  0  0  0  0  0
    1.0210   -2.1893    3.3757 H   0  0  0  0  0  0  0  0  0  0  0  0
    1.8231   -4.0022   -0.1258 H   0  0  0  0  0  0  0  0  0  0  0  0
    2.4660   -1.4786   -0.7219 H   0  0  0  0  0  0  0  0  0  0  0  0
    3.8486   -4.1538   -2.7552 H   0  0  0  0  0  0  0  0  0  0  0  0
    2.7363   -2.6034   -4.2688 H   0  0  0  0  0  0  0  0  0  0  0  0
    2.5508   -1.3852   -3.0190 H   0  0  0  0  0  0  0  0  0  0  0  0
    1.6471   -2.9031   -2.9193 H   0  0  0  0  0  0  0  0  0  0  0  0
    5.3715   -1.9792   -3.5676 H   0  0  0  0  0  0  0  0  0  0  0  0
    6.9310   -2.2344   -1.4278 H   0  0  0  0  0  0  0  0  0  0  0  0
    5.3862   -4.3251   -1.1007 H   0  0  0  0  0  0  0  0  0  0  0  0
  1  2  2  0
  1 24  1  0
  1 25  1  0
  2  3  1  0
  2 26  1  0
  3 15  1  0
  3  4  1  1
  3  5  1  0
  4 27  1  0
  4 28  1  0
  4 29  1  0
  5  6  1  0
  5 30  1  0
  5 31  1  0
  6 16  1  0
  6  7  1  0
  6 32  1  6
  7  8  1  0
  8 23  1  0
  8  9  1  1
  8 10  1  0
  9 33  1  0
 10 11  1  0
 10 12  1  0
 10 34  1  1
 11 35  1  0
 11 36  1  0
 11 37  1  0
 12 13  1  6
 12 15  1  0
 12 16  1  0
 13 14  1  0
 14 38  1  0
 14 39  1  0
 14 40  1  0
 16 17  1  0
 16 41  1  6
 17 23  1  0
 17 18  1  6
 17 19  1  0
 18 42  1  0
 19 20  1  0
 19 21  1  0
 19 43  1  1
 20 44  1  0
 20 45  1  0
 20 46  1  0
 21 22  2  0
 21 47  1  0
 22 23  1  0
 22 48  1  0
 23 49  1  6
M  END
>  <i_m_ct_stereo_status>  (229) 
1

>  <s_m_source_file>  (229) 
/var/tmp/pbs.5076255.sched01/tmpos3i1bch/920fm1no0n.sdf

>  <i_m_source_file_index>  (229) 
5

>  <i_lp_mmshare_version>  (229) 
48012

>  <i_f3d_flags>  (229) 
0

>  <s_epik_input>  (229) 
W0NIM11bQ0BIXTFbQ0BdMihPW0NIM10pT1tDQEBdKFtDSDNdKShbQ0hdPVtDSDJdKVtDSDJdW0NASF0oTzMpW0NAQEhdMltDQF0oW09IXSkoW0NAQEhdKFtDSDNdKVtDSF09W0NIXTQpW0NAQEhdNFtDQEBdMTNbT0hd

>  <s_epik_cmdline>  (229) 
J2VwaWtfcHl0aG9uJywgJy1waHQnLCAnMi4wJywgJy1waCcsICc3LjAnLCAnLXRuJywgJzgnLCAnLW1hJywgJzIwMCcsICctaW1hZScsICc8aW5maWxlLm1hZT4nLCAnLW9tYWUnLCAnPG91dGZpbGUubWFlPic=

>  <r_lp_tautomer_probability>  (229) 
1

>  <r_epik_Ionization_Penalty>  (229) 
2.5261e-06

>  <r_epik_Ionization_Penalty_Charging>  (229) 
0

>  <r_epik_Ionization_Penalty_Neutral>  (229) 
2.5261e-06

>  <r_epik_State_Penalty>  (229) 
-0

>  <r_epik_Charging_Adjusted_Penalty>  (229) 
0

>  <i_epik_Tot_Q>  (229) 
0

>  <i_epik_Tot_abs_Q>  (229) 
0

>  <s_lp_Force_Field>  (229) 
OPLS3e

>  <r_lp_Energy>  (229) 
69.0979

>  <b_lp_Chiralities_Consistent>  (229) 
1

>  <s_lp_Variant>  (229) 
67:0-1

>  <s_i_glide_gridfile>  (229) 
pfpi4k_grid

>  <i_i_glide_lignum>  (229) 
5

>  <i_i_glide_rotatable_bonds>  (229) 
4

>  <r_i_docking_score>  (229) 
-2.96071

>  <r_i_glide_ligand_efficiency>  (229) 
-0.128726

>  <r_i_glide_ligand_efficiency_sa>  (229) 
-0.366081

>  <r_i_glide_ligand_efficiency_ln>  (229) 
-0.715926

>  <r_i_glide_gscore>  (229) 
-2.96071

>  <r_i_glide_lipo>  (229) 
-0.428396

>  <r_i_glide_hbond>  (229) 
0

>  <r_i_glide_metal>  (229) 
-0

>  <r_i_glide_rewards>  (229) 
-1.28218

>  <r_i_glide_evdw>  (229) 
-19.812

>  <r_i_glide_ecoul>  (229) 
-2.91893

>  <r_i_glide_erotb>  (229) 
0.179911

>  <r_i_glide_esite>  (229) 
-0.00160073

>  <r_i_glide_emodel>  (229) 
-25.2396

>  <r_i_glide_energy>  (229) 
-22.731

>  <r_i_glide_einternal>  (229) 
3.32967

>  <r_i_glide_intrahb_reward>  (229) 
-0

>  <i_i_glide_confnum>  (229) 
2

>  <i_i_glide_posenum>  (229) 
21

>  <r_i_glide_eff_state_penalty>  (229) 
0

>  <ligand_id>  (229) 
67

>  <original_smiles>  (229) 
C=CC1(C)CC2OC3(O)C(C)C(OC)(O1)C2C1(O)C(C)C=CC31

>  <smiles>  (229) 
[H]OC12OC3([H])C([H])([H])C(C([H])=C([H])[H])(C([H])([H])[H])OC(OC([H])([H])[H])(C1([H])C([H])([H])[H])C3([H])C1(O[H])C([H])(C([H])([H])[H])C([H])=C([H])C21[H]

$$$$
67:0:2
     RDKit          3D

 49 52  0  0  1  0  0  0  0  0999 V2000
    1.0994   -5.0744    4.3737 C   0  0  0  0  0  0  0  0  0  0  0  0
    2.0969   -5.7631    3.8057 C   0  0  0  0  0  0  0  0  0  0  0  0
    3.2138   -5.1716    2.9497 C   0  0  1  0  0  0  0  0  0  0  0  0
    4.5256   -5.4090    3.7336 C   0  0  0  0  0  0  0  0  0  0  0  0
    3.2041   -5.8851    1.5876 C   0  0  0  0  0  0  0  0  0  0  0  0
    3.8837   -5.0470    0.5199 C   0  0  2  0  0  0  0  0  0  0  0  0
    5.2630   -4.7911    0.8788 O   0  0  0  0  0  0  0  0  0  0  0  0
    5.6988   -3.4612    0.6870 C   0  0  2  0  0  0  0  0  0  0  0  0
    7.0998   -3.3728    0.7888 O   0  0  0  0  0  0  0  0  0  0  0  0
    4.9773   -2.6292    1.7977 C   0  0  1  0  0  0  0  0  0  0  0  0
    5.4049   -1.1247    1.7390 C   0  0  0  0  0  0  0  0  0  0  0  0
    3.4145   -2.9479    1.7110 C   0  0  2  0  0  0  0  0  0  0  0  0
    2.6523   -1.7648    1.7645 O   0  0  0  0  0  0  0  0  0  0  0  0
    2.4052   -1.2112    3.0592 C   0  0  0  0  0  0  0  0  0  0  0  0
    2.9720   -3.7605    2.7911 O   0  0  0  0  0  0  0  0  0  0  0  0
    3.1137   -3.7069    0.3418 C   0  0  1  0  0  0  0  0  0  0  0  0
    3.7366   -2.8920   -0.8576 C   0  0  2  0  0  0  0  0  0  0  0  0
    3.4181   -1.5049   -0.7346 O   0  0  0  0  0  0  0  0  0  0  0  0
    3.6109   -3.1496   -2.4068 C   0  0  1  0  0  0  0  0  0  0  0  0
    2.3241   -2.6496   -3.0940 C   0  0  0  0  0  0  0  0  0  0  0  0
    4.8889   -2.4554   -2.8921 C   0  0  0  0  0  0  0  0  0  0  0  0
    5.8201   -2.4133   -1.9136 C   0  0  0  0  0  0  0  0  0  0  0  0
    5.2320   -3.1682   -0.7656 C   0  0  1  0  0  0  0  0  0  0  0  0
    1.0092   -4.0058    4.2582 H   0  0  0  0  0  0  0  0  0  0  0  0
    0.3576   -5.5786    4.9668 H   0  0  0  0  0  0  0  0  0  0  0  0
    2.1403   -6.8351    3.9532 H   0  0  0  0  0  0  0  0  0  0  0  0
    4.6418   -6.4635    3.9906 H   0  0  0  0  0  0  0  0  0  0  0  0
    4.5199   -4.8505    4.6710 H   0  0  0  0  0  0  0  0  0  0  0  0
    5.4311   -5.1361    3.1973 H   0  0  0  0  0  0  0  0  0  0  0  0
    3.6699   -6.8654    1.6771 H   0  0  0  0  0  0  0  0  0  0  0  0
    2.1733   -6.0608    1.2713 H   0  0  0  0  0  0  0  0  0  0  0  0
    3.8643   -5.6107   -0.4107 H   0  0  0  0  0  0  0  0  0  0  0  0
    7.3370   -3.5676    1.6829 H   0  0  0  0  0  0  0  0  0  0  0  0
    5.3085   -2.9987    2.7589 H   0  0  0  0  0  0  0  0  0  0  0  0
    5.1856   -0.6587    0.7723 H   0  0  0  0  0  0  0  0  0  0  0  0
    6.4975   -1.0797    1.8273 H   0  0  0  0  0  0  0  0  0  0  0  0
    4.9913   -0.4970    2.5356 H   0  0  0  0  0  0  0  0  0  0  0  0
    2.1182   -0.1700    2.9216 H   0  0  0  0  0  0  0  0  0  0  0  0
    3.2864   -1.2272    3.6999 H   0  0  0  0  0  0  0  0  0  0  0  0
    1.5665   -1.7140    3.5570 H   0  0  0  0  0  0  0  0  0  0  0  0
    2.0401   -3.8686    0.2039 H   0  0  0  0  0  0  0  0  0  0  0  0
    2.4641   -1.4242   -0.7337 H   0  0  0  0  0  0  0  0  0  0  0  0
    3.7643   -4.2098   -2.6420 H   0  0  0  0  0  0  0  0  0  0  0  0
    2.3299   -2.8997   -4.1540 H   0  0  0  0  0  0  0  0  0  0  0  0
    2.2173   -1.5670   -3.0214 H   0  0  0  0  0  0  0  0  0  0  0  0
    1.4369   -3.1053   -2.6524 H   0  0  0  0  0  0  0  0  0  0  0  0
    4.9876   -2.0422   -3.8804 H   0  0  0  0  0  0  0  0  0  0  0  0
    6.8159   -2.0138   -1.9588 H   0  0  0  0  0  0  0  0  0  0  0  0
    5.4630   -4.1406   -1.2132 H   0  0  0  0  0  0  0  0  0  0  0  0
  1  2  2  0
  1 24  1  0
  1 25  1  0
  2  3  1  0
  2 26  1  0
  3 15  1  0
  3  4  1  1
  3  5  1  0
  4 27  1  0
  4 28  1  0
  4 29  1  0
  5  6  1  0
  5 30  1  0
  5 31  1  0
  6 16  1  0
  6  7  1  0
  6 32  1  6
  7  8  1  0
  8 23  1  0
  8  9  1  6
  8 10  1  0
  9 33  1  0
 10 11  1  0
 10 12  1  0
 10 34  1  1
 11 35  1  0
 11 36  1  0
 11 37  1  0
 12 13  1  6
 12 15  1  0
 12 16  1  0
 13 14  1  0
 14 38  1  0
 14 39  1  0
 14 40  1  0
 16 17  1  0
 16 41  1  6
 17 23  1  0
 17 18  1  6
 17 19  1  0
 18 42  1  0
 19 20  1  0
 19 21  1  0
 19 43  1  1
 20 44  1  0
 20 45  1  0
 20 46  1  0
 21 22  2  0
 21 47  1  0
 22 23  1  0
 22 48  1  0
 23 49  1  6
M  END
>  <i_m_ct_stereo_status>  (230) 
1

>  <s_m_source_file>  (230) 
/var/tmp/pbs.5076255.sched01/tmpos3i1bch/920fm1no0n.sdf

>  <i_m_source_file_index>  (230) 
5

>  <i_lp_mmshare_version>  (230) 
48012

>  <i_f3d_flags>  (230) 
0

>  <s_epik_input>  (230) 
W0NIM11bQ0BIXTFbQ0BdMihPW0NIM10pT1tDQEBdKFtDSDNdKShbQ0hdPVtDSDJdKVtDSDJdW0NASF0oTzMpW0NAQEhdMltDQF0oW09IXSkoW0NAQEhdKFtDSDNdKVtDSF09W0NIXTQpW0NAQEhdNFtDQEBdMTNbT0hd

>  <s_epik_cmdline>  (230) 
J2VwaWtfcHl0aG9uJywgJy1waHQnLCAnMi4wJywgJy1waCcsICc3LjAnLCAnLXRuJywgJzgnLCAnLW1hJywgJzIwMCcsICctaW1hZScsICc8aW5maWxlLm1hZT4nLCAnLW9tYWUnLCAnPG91dGZpbGUubWFlPic=

>  <r_lp_tautomer_probability>  (230) 
1

>  <r_epik_Ionization_Penalty>  (230) 
2.5261e-06

>  <r_epik_Ionization_Penalty_Charging>  (230) 
0

>  <r_epik_Ionization_Penalty_Neutral>  (230) 
2.5261e-06

>  <r_epik_State_Penalty>  (230) 
-0

>  <r_epik_Charging_Adjusted_Penalty>  (230) 
0

>  <i_epik_Tot_Q>  (230) 
0

>  <i_epik_Tot_abs_Q>  (230) 
0

>  <s_lp_Force_Field>  (230) 
OPLS3e

>  <r_lp_Energy>  (230) 
69.0979

>  <b_lp_Chiralities_Consistent>  (230) 
1

>  <s_lp_Variant>  (230) 
67:0-1

>  <s_i_glide_gridfile>  (230) 
pfpi4k_grid

>  <i_i_glide_lignum>  (230) 
5

>  <i_i_glide_rotatable_bonds>  (230) 
4

>  <r_i_docking_score>  (230) 
-2.95342

>  <r_i_glide_ligand_efficiency>  (230) 
-0.128409

>  <r_i_glide_ligand_efficiency_sa>  (230) 
-0.365179

>  <r_i_glide_ligand_efficiency_ln>  (230) 
-0.714163

>  <r_i_glide_gscore>  (230) 
-2.95342

>  <r_i_glide_lipo>  (230) 
-0.448239

>  <r_i_glide_hbond>  (230) 
0

>  <r_i_glide_metal>  (230) 
-0

>  <r_i_glide_rewards>  (230) 
-1.2949

>  <r_i_glide_evdw>  (230) 
-19.537

>  <r_i_glide_ecoul>  (230) 
-2.73972

>  <r_i_glide_erotb>  (230) 
0.179911

>  <r_i_glide_esite>  (230) 
-0.00238342

>  <r_i_glide_emodel>  (230) 
-25.5103

>  <r_i_glide_energy>  (230) 
-22.2767

>  <r_i_glide_einternal>  (230) 
2.01469

>  <r_i_glide_intrahb_reward>  (230) 
-0

>  <i_i_glide_confnum>  (230) 
4

>  <i_i_glide_posenum>  (230) 
30

>  <r_i_glide_eff_state_penalty>  (230) 
0

>  <ligand_id>  (230) 
67

>  <original_smiles>  (230) 
C=CC1(C)CC2OC3(O)C(C)C(OC)(O1)C2C1(O)C(C)C=CC31

>  <smiles>  (230) 
[H]OC12OC3([H])C([H])([H])C(C([H])=C([H])[H])(C([H])([H])[H])OC(OC([H])([H])[H])(C1([H])C([H])([H])[H])C3([H])C1(O[H])C([H])(C([H])([H])[H])C([H])=C([H])C21[H]

$$$$
68:0:0
     RDKit          3D

 38 41  0  0  1  0  0  0  0  0999 V2000
    4.2144   -2.4061   -4.1741 O   0  0  0  0  0  0  0  0  0  0  0  0
    3.3300   -2.0851   -3.1387 C   0  0  2  0  0  0  0  0  0  0  0  0
    3.8780   -1.3605   -1.9177 C   0  0  0  0  0  0  0  0  0  0  0  0
    3.0186   -2.2331   -1.0873 N   0  0  2  0  0  0  0  0  0  0  0  0
    3.6105   -2.6775    0.2185 C   0  0  0  0  0  0  0  0  0  0  0  0
    3.1312   -4.0228    0.7074 C   0  0  0  0  0  0  0  0  0  0  0  0
    3.5378   -4.7549    1.7843 C   0  0  0  0  0  0  0  0  0  0  0  0
    2.7840   -5.9098    1.6888 N   0  0  0  0  0  0  0  0  0  0  0  0
    2.7413   -7.0422    2.5862 C   0  0  2  0  0  0  0  0  0  0  0  0
    3.3046   -8.3520    1.9690 C   0  0  0  0  0  0  0  0  0  0  0  0
    2.2986   -9.4875    2.3054 C   0  0  0  0  0  0  0  0  0  0  0  0
    1.0816   -8.7592    2.8049 C   0  0  0  0  0  0  0  0  0  0  0  0
   -0.1873   -9.2821    3.1018 C   0  0  0  0  0  0  0  0  0  0  0  0
   -1.1686   -8.3657    3.5388 C   0  0  0  0  0  0  0  0  0  0  0  0
   -0.9523   -7.0321    3.6705 N   0  0  0  0  0  0  0  0  0  0  0  0
    0.2905   -6.5604    3.4071 C   0  0  0  0  0  0  0  0  0  0  0  0
    1.3270   -7.4054    2.9642 C   0  0  0  0  0  0  0  0  0  0  0  0
    1.9843   -5.9004    0.6050 N   0  0  0  0  0  0  0  0  0  0  0  0
    2.1707   -4.7699    0.0400 N   0  0  0  0  0  0  0  0  0  0  0  0
    3.0221   -3.2041   -2.1798 C   0  0  0  0  0  0  0  0  0  0  0  0
    4.8568   -3.0079   -3.8130 H   0  0  0  0  0  0  0  0  0  0  0  0
    2.4097   -1.6451   -3.5357 H   0  0  0  0  0  0  0  0  0  0  0  0
    4.9508   -1.5250   -1.8014 H   0  0  0  0  0  0  0  0  0  0  0  0
    3.6417   -0.2987   -1.8900 H   0  0  0  0  0  0  0  0  0  0  0  0
    4.6981   -2.7371    0.1612 H   0  0  0  0  0  0  0  0  0  0  0  0
    3.4219   -1.9152    0.9713 H   0  0  0  0  0  0  0  0  0  0  0  0
    4.2577   -4.5679    2.5704 H   0  0  0  0  0  0  0  0  0  0  0  0
    3.2730   -6.7809    3.4960 H   0  0  0  0  0  0  0  0  0  0  0  0
    3.3857   -8.2790    0.8830 H   0  0  0  0  0  0  0  0  0  0  0  0
    4.3094   -8.5651    2.3361 H   0  0  0  0  0  0  0  0  0  0  0  0
    2.0717  -10.0953    1.4336 H   0  0  0  0  0  0  0  0  0  0  0  0
    2.6812  -10.1276    3.0973 H   0  0  0  0  0  0  0  0  0  0  0  0
   -0.4018  -10.3326    3.0080 H   0  0  0  0  0  0  0  0  0  0  0  0
   -2.1610   -8.7099    3.7868 H   0  0  0  0  0  0  0  0  0  0  0  0
    0.4451   -5.4967    3.5118 H   0  0  0  0  0  0  0  0  0  0  0  0
    2.0627   -3.6822   -2.3783 H   0  0  0  0  0  0  0  0  0  0  0  0
    3.8357   -3.9269   -2.0864 H   0  0  0  0  0  0  0  0  0  0  0  0
    2.0836   -1.8097   -1.0077 H   0  0  0  0  0  0  0  0  0  0  0  0
  1  2  1  0
  1 21  1  0
  2 20  1  0
  2  3  1  0
  2 22  1  6
  3  4  1  0
  3 23  1  0
  3 24  1  0
  4  5  1  0
  4 20  1  0
  4 38  1  1
  5  6  1  0
  5 25  1  0
  5 26  1  0
  6 19  1  0
  6  7  2  0
  7  8  1  0
  7 27  1  0
  8  9  1  0
  8 18  1  0
  9 17  1  0
  9 10  1  0
  9 28  1  1
 10 11  1  0
 10 29  1  0
 10 30  1  0
 11 12  1  0
 11 31  1  0
 11 32  1  0
 12 17  2  0
 12 13  1  0
 13 14  2  0
 13 33  1  0
 14 15  1  0
 14 34  1  0
 15 16  2  0
 16 17  1  0
 16 35  1  0
 18 19  2  0
 20 36  1  0
 20 37  1  0
M  CHG  1   4   1
M  END
>  <i_m_ct_stereo_status>  (231) 
1

>  <s_m_source_file>  (231) 
/var/tmp/pbs.5076255.sched01/tmpos3i1bch/920fm1no0n.sdf

>  <i_m_source_file_index>  (231) 
6

>  <i_lp_mmshare_version>  (231) 
48012

>  <i_f3d_flags>  (231) 
0

>  <s_epik_input>  (231) 
W09IXVtDSF0xW0NIMl1OKFtDSDJdMSlbQ0gyXWMyW2NIXW4obm4yKVtDQEhdKFtDSDJdW0NIMl0zKWMoYzM0KVtjSF1uW2NIXVtjSF00

>  <s_epik_cmdline>  (231) 
J2VwaWtfcHl0aG9uJywgJy1waHQnLCAnMi4wJywgJy1waCcsICc3LjAnLCAnLXRuJywgJzgnLCAnLW1hJywgJzIwMCcsICctaW1hZScsICc8aW5maWxlLm1hZT4nLCAnLW9tYWUnLCAnPG91dGZpbGUubWFlPic=

>  <r_lp_tautomer_probability>  (231) 
1

>  <r_epik_Ionization_Penalty>  (231) 
0.0517962

>  <r_epik_Ionization_Penalty_Charging>  (231) 
0.0489913

>  <r_epik_Ionization_Penalty_Neutral>  (231) 
0.00280495

>  <r_epik_State_Penalty>  (231) 
0.0418192

>  <r_epik_Charging_Adjusted_Penalty>  (231) 
0.0908104

>  <i_epik_Tot_Q>  (231) 
1

>  <i_epik_Tot_abs_Q>  (231) 
1

>  <s_lp_Force_Field>  (231) 
OPLS3e

>  <r_lp_Energy>  (231) 
24.9465

>  <b_lp_Chiralities_Consistent>  (231) 
1

>  <s_lp_Variant>  (231) 
68:0-1

>  <s_i_glide_gridfile>  (231) 
pfpi4k_grid

>  <i_i_glide_lignum>  (231) 
6

>  <i_i_glide_rotatable_bonds>  (231) 
4

>  <r_i_docking_score>  (231) 
-4.6083

>  <r_i_glide_ligand_efficiency>  (231) 
-0.230415

>  <r_i_glide_ligand_efficiency_sa>  (231) 
-0.625443

>  <r_i_glide_ligand_efficiency_ln>  (231) 
-1.15331

>  <r_i_glide_gscore>  (231) 
-4.6083

>  <r_i_glide_lipo>  (231) 
-0.116068

>  <r_i_glide_hbond>  (231) 
-0.568644

>  <r_i_glide_metal>  (231) 
-0

>  <r_i_glide_rewards>  (231) 
-1.55233

>  <r_i_glide_evdw>  (231) 
-23.7395

>  <r_i_glide_ecoul>  (231) 
-11.3073

>  <r_i_glide_erotb>  (231) 
0.724896

>  <r_i_glide_esite>  (231) 
-0.21309

>  <r_i_glide_emodel>  (231) 
-44.6762

>  <r_i_glide_energy>  (231) 
-35.0468

>  <r_i_glide_einternal>  (231) 
6.14399

>  <r_i_glide_intrahb_reward>  (231) 
-0

>  <i_i_glide_confnum>  (231) 
3

>  <i_i_glide_posenum>  (231) 
38

>  <r_i_glide_eff_state_penalty>  (231) 
0

>  <ligand_id>  (231) 
68

>  <original_smiles>  (231) 
OC1CN(Cc2cn(C3CCc4ccncc43)nn2)C1

>  <smiles>  (231) 
[H]OC1([H])C([H])([H])[N+]([H])(C([H])([H])c2nnn(C3([H])c4c([H])nc([H])c([H])c4C([H])([H])C3([H])[H])c2[H])C1([H])[H]

$$$$
68:0:1
     RDKit          3D

 38 41  0  0  1  0  0  0  0  0999 V2000
    3.8140   -1.2704   -4.5421 O   0  0  0  0  0  0  0  0  0  0  0  0
    3.7825   -2.5153   -3.8842 C   0  0  2  0  0  0  0  0  0  0  0  0
    2.6236   -2.7696   -2.9358 C   0  0  0  0  0  0  0  0  0  0  0  0
    3.5916   -3.4239   -2.0486 N   0  0  2  0  0  0  0  0  0  0  0  0
    3.4176   -3.1751   -0.5943 C   0  0  0  0  0  0  0  0  0  0  0  0
    2.9554   -4.4104    0.0999 C   0  0  0  0  0  0  0  0  0  0  0  0
    3.5049   -5.0676    1.1801 C   0  0  0  0  0  0  0  0  0  0  0  0
    2.6491   -6.1215    1.4039 N   0  0  0  0  0  0  0  0  0  0  0  0
    2.7065   -7.1342    2.4490 C   0  0  2  0  0  0  0  0  0  0  0  0
    3.1983   -8.5191    1.9549 C   0  0  0  0  0  0  0  0  0  0  0  0
    2.2512   -9.5770    2.5650 C   0  0  0  0  0  0  0  0  0  0  0  0
    1.1107   -8.7751    3.1201 C   0  0  0  0  0  0  0  0  0  0  0  0
   -0.1067   -9.2346    3.6407 C   0  0  0  0  0  0  0  0  0  0  0  0
   -1.0236   -8.2602    4.0796 C   0  0  0  0  0  0  0  0  0  0  0  0
   -0.7829   -6.9231    4.0275 N   0  0  0  0  0  0  0  0  0  0  0  0
    0.4083   -6.5070    3.5400 C   0  0  0  0  0  0  0  0  0  0  0  0
    1.3627   -7.4149    3.0610 C   0  0  0  0  0  0  0  0  0  0  0  0
    1.6472   -6.1201    0.4815 N   0  0  0  0  0  0  0  0  0  0  0  0
    1.8087   -5.1010   -0.2973 N   0  0  0  0  0  0  0  0  0  0  0  0
    4.6811   -2.6664   -2.6688 C   0  0  0  0  0  0  0  0  0  0  0  0
    3.4269   -0.6125   -3.9791 H   0  0  0  0  0  0  0  0  0  0  0  0
    3.9218   -3.3282   -4.6072 H   0  0  0  0  0  0  0  0  0  0  0  0
    2.2118   -1.8376   -2.5370 H   0  0  0  0  0  0  0  0  0  0  0  0
    1.8426   -3.4342   -3.3063 H   0  0  0  0  0  0  0  0  0  0  0  0
    4.3652   -2.8662   -0.1451 H   0  0  0  0  0  0  0  0  0  0  0  0
    2.7246   -2.3519   -0.3858 H   0  0  0  0  0  0  0  0  0  0  0  0
    4.3788   -4.8683    1.7774 H   0  0  0  0  0  0  0  0  0  0  0  0
    3.3608   -6.7566    3.2285 H   0  0  0  0  0  0  0  0  0  0  0  0
    3.1359   -8.5878    0.8706 H   0  0  0  0  0  0  0  0  0  0  0  0
    4.2375   -8.7013    2.2185 H   0  0  0  0  0  0  0  0  0  0  0  0
    1.9003  -10.2695    1.8080 H   0  0  0  0  0  0  0  0  0  0  0  0
    2.7261  -10.1380    3.3696 H   0  0  0  0  0  0  0  0  0  0  0  0
   -0.3449  -10.2850    3.7043 H   0  0  0  0  0  0  0  0  0  0  0  0
   -1.9757   -8.5532    4.4971 H   0  0  0  0  0  0  0  0  0  0  0  0
    0.5801   -5.4408    3.4939 H   0  0  0  0  0  0  0  0  0  0  0  0
    5.5969   -3.2375   -2.8253 H   0  0  0  0  0  0  0  0  0  0  0  0
    4.8799   -1.7122   -2.1692 H   0  0  0  0  0  0  0  0  0  0  0  0
    3.6441   -4.4144   -2.2799 H   0  0  0  0  0  0  0  0  0  0  0  0
  1  2  1  0
  1 21  1  0
  2 20  1  0
  2  3  1  0
  2 22  1  6
  3  4  1  0
  3 23  1  0
  3 24  1  0
  4  5  1  0
  4 20  1  0
  4 38  1  1
  5  6  1  0
  5 25  1  0
  5 26  1  0
  6 19  1  0
  6  7  2  0
  7  8  1  0
  7 27  1  0
  8  9  1  0
  8 18  1  0
  9 17  1  0
  9 10  1  0
  9 28  1  1
 10 11  1  0
 10 29  1  0
 10 30  1  0
 11 12  1  0
 11 31  1  0
 11 32  1  0
 12 17  2  0
 12 13  1  0
 13 14  2  0
 13 33  1  0
 14 15  1  0
 14 34  1  0
 15 16  2  0
 16 17  1  0
 16 35  1  0
 18 19  2  0
 20 36  1  0
 20 37  1  0
M  CHG  1   4   1
M  END
>  <i_m_ct_stereo_status>  (232) 
1

>  <s_m_source_file>  (232) 
/var/tmp/pbs.5076255.sched01/tmpos3i1bch/920fm1no0n.sdf

>  <i_m_source_file_index>  (232) 
6

>  <i_lp_mmshare_version>  (232) 
48012

>  <i_f3d_flags>  (232) 
0

>  <s_epik_input>  (232) 
W09IXVtDSF0xW0NIMl1OKFtDSDJdMSlbQ0gyXWMyW2NIXW4obm4yKVtDQEhdKFtDSDJdW0NIMl0zKWMoYzM0KVtjSF1uW2NIXVtjSF00

>  <s_epik_cmdline>  (232) 
J2VwaWtfcHl0aG9uJywgJy1waHQnLCAnMi4wJywgJy1waCcsICc3LjAnLCAnLXRuJywgJzgnLCAnLW1hJywgJzIwMCcsICctaW1hZScsICc8aW5maWxlLm1hZT4nLCAnLW9tYWUnLCAnPG91dGZpbGUubWFlPic=

>  <r_lp_tautomer_probability>  (232) 
1

>  <r_epik_Ionization_Penalty>  (232) 
0.0517962

>  <r_epik_Ionization_Penalty_Charging>  (232) 
0.0489913

>  <r_epik_Ionization_Penalty_Neutral>  (232) 
0.00280495

>  <r_epik_State_Penalty>  (232) 
0.0418192

>  <r_epik_Charging_Adjusted_Penalty>  (232) 
0.0908104

>  <i_epik_Tot_Q>  (232) 
1

>  <i_epik_Tot_abs_Q>  (232) 
1

>  <s_lp_Force_Field>  (232) 
OPLS3e

>  <r_lp_Energy>  (232) 
24.9465

>  <b_lp_Chiralities_Consistent>  (232) 
1

>  <s_lp_Variant>  (232) 
68:0-1

>  <s_i_glide_gridfile>  (232) 
pfpi4k_grid

>  <i_i_glide_lignum>  (232) 
6

>  <i_i_glide_rotatable_bonds>  (232) 
4

>  <r_i_docking_score>  (232) 
-4.53724

>  <r_i_glide_ligand_efficiency>  (232) 
-0.226862

>  <r_i_glide_ligand_efficiency_sa>  (232) 
-0.615798

>  <r_i_glide_ligand_efficiency_ln>  (232) 
-1.13552

>  <r_i_glide_gscore>  (232) 
-4.53724

>  <r_i_glide_lipo>  (232) 
-0.287814

>  <r_i_glide_hbond>  (232) 
-0.32

>  <r_i_glide_metal>  (232) 
-0

>  <r_i_glide_rewards>  (232) 
-1.55233

>  <r_i_glide_evdw>  (232) 
-26.4865

>  <r_i_glide_ecoul>  (232) 
-10.5595

>  <r_i_glide_erotb>  (232) 
0.724896

>  <r_i_glide_esite>  (232) 
-0.193747

>  <r_i_glide_emodel>  (232) 
-47.8694

>  <r_i_glide_energy>  (232) 
-37.046

>  <r_i_glide_einternal>  (232) 
4.33862

>  <r_i_glide_intrahb_reward>  (232) 
-0

>  <i_i_glide_confnum>  (232) 
2

>  <i_i_glide_posenum>  (232) 
25

>  <r_i_glide_eff_state_penalty>  (232) 
0

>  <ligand_id>  (232) 
68

>  <original_smiles>  (232) 
OC1CN(Cc2cn(C3CCc4ccncc43)nn2)C1

>  <smiles>  (232) 
[H]OC1([H])C([H])([H])[N+]([H])(C([H])([H])c2nnn(C3([H])c4c([H])nc([H])c([H])c4C([H])([H])C3([H])[H])c2[H])C1([H])[H]

$$$$
68:0:2
     RDKit          3D

 38 41  0  0  1  0  0  0  0  0999 V2000
    3.4160   -1.5688   -4.3293 O   0  0  0  0  0  0  0  0  0  0  0  0
    3.0527   -1.6448   -2.9734 C   0  0  2  0  0  0  0  0  0  0  0  0
    4.1825   -1.5269   -1.9562 C   0  0  0  0  0  0  0  0  0  0  0  0
    3.4962   -2.5634   -1.1871 N   0  0  2  0  0  0  0  0  0  0  0  0
    4.3869   -3.5441   -0.5193 C   0  0  0  0  0  0  0  0  0  0  0  0
    3.6251   -4.5968    0.2335 C   0  0  0  0  0  0  0  0  0  0  0  0
    4.0750   -5.4717    1.1769 C   0  0  0  0  0  0  0  0  0  0  0  0
    2.9561   -6.2061    1.5105 N   0  0  0  0  0  0  0  0  0  0  0  0
    2.8362   -7.2621    2.5085 C   0  0  2  0  0  0  0  0  0  0  0  0
    3.1489   -8.6793    1.9540 C   0  0  0  0  0  0  0  0  0  0  0  0
    2.0377   -9.6334    2.4594 C   0  0  0  0  0  0  0  0  0  0  0  0
    0.9959   -8.7091    3.0182 C   0  0  0  0  0  0  0  0  0  0  0  0
   -0.2990   -9.0238    3.4579 C   0  0  0  0  0  0  0  0  0  0  0  0
   -1.0900   -7.9530    3.9268 C   0  0  0  0  0  0  0  0  0  0  0  0
   -0.6663   -6.6618    3.9669 N   0  0  0  0  0  0  0  0  0  0  0  0
    0.5948   -6.3910    3.5605 C   0  0  0  0  0  0  0  0  0  0  0  0
    1.4401   -7.4006    3.0655 C   0  0  0  0  0  0  0  0  0  0  0  0
    1.8926   -5.8403    0.7553 N   0  0  0  0  0  0  0  0  0  0  0  0
    2.2629   -4.8308    0.0452 N   0  0  0  0  0  0  0  0  0  0  0  0
    2.8415   -3.0406   -2.4054 C   0  0  0  0  0  0  0  0  0  0  0  0
    2.6196   -1.6798   -4.8353 H   0  0  0  0  0  0  0  0  0  0  0  0
    2.2304   -0.9676   -2.7445 H   0  0  0  0  0  0  0  0  0  0  0  0
    5.1470   -1.8523   -2.3529 H   0  0  0  0  0  0  0  0  0  0  0  0
    4.2544   -0.5642   -1.4461 H   0  0  0  0  0  0  0  0  0  0  0  0
    5.0456   -4.0171   -1.2520 H   0  0  0  0  0  0  0  0  0  0  0  0
    5.0468   -3.0087    0.1616 H   0  0  0  0  0  0  0  0  0  0  0  0
    5.0444   -5.6215    1.6249 H   0  0  0  0  0  0  0  0  0  0  0  0
    3.5039   -7.0220    3.3367 H   0  0  0  0  0  0  0  0  0  0  0  0
    3.1268   -8.6673    0.8656 H   0  0  0  0  0  0  0  0  0  0  0  0
    4.1447   -9.0178    2.2399 H   0  0  0  0  0  0  0  0  0  0  0  0
    1.6310  -10.2471    1.6622 H   0  0  0  0  0  0  0  0  0  0  0  0
    2.3990  -10.2894    3.2478 H   0  0  0  0  0  0  0  0  0  0  0  0
   -0.6767  -10.0353    3.4467 H   0  0  0  0  0  0  0  0  0  0  0  0
   -2.0931   -8.1318    4.2840 H   0  0  0  0  0  0  0  0  0  0  0  0
    0.9087   -5.3569    3.5778 H   0  0  0  0  0  0  0  0  0  0  0  0
    1.8014   -3.3339   -2.2583 H   0  0  0  0  0  0  0  0  0  0  0  0
    3.4097   -3.8136   -2.9270 H   0  0  0  0  0  0  0  0  0  0  0  0
    2.8072   -2.1452   -0.5677 H   0  0  0  0  0  0  0  0  0  0  0  0
  1  2  1  0
  1 21  1  0
  2 20  1  0
  2  3  1  0
  2 22  1  1
  3  4  1  0
  3 23  1  0
  3 24  1  0
  4  5  1  0
  4 20  1  0
  4 38  1  1
  5  6  1  0
  5 25  1  0
  5 26  1  0
  6 19  1  0
  6  7  2  0
  7  8  1  0
  7 27  1  0
  8  9  1  0
  8 18  1  0
  9 17  1  0
  9 10  1  0
  9 28  1  1
 10 11  1  0
 10 29  1  0
 10 30  1  0
 11 12  1  0
 11 31  1  0
 11 32  1  0
 12 17  2  0
 12 13  1  0
 13 14  2  0
 13 33  1  0
 14 15  1  0
 14 34  1  0
 15 16  2  0
 16 17  1  0
 16 35  1  0
 18 19  2  0
 20 36  1  0
 20 37  1  0
M  CHG  1   4   1
M  END
>  <i_m_ct_stereo_status>  (233) 
1

>  <s_m_source_file>  (233) 
/var/tmp/pbs.5076255.sched01/tmpos3i1bch/920fm1no0n.sdf

>  <i_m_source_file_index>  (233) 
6

>  <i_lp_mmshare_version>  (233) 
48012

>  <i_f3d_flags>  (233) 
0

>  <s_epik_input>  (233) 
W09IXVtDSF0xW0NIMl1OKFtDSDJdMSlbQ0gyXWMyW2NIXW4obm4yKVtDQEhdKFtDSDJdW0NIMl0zKWMoYzM0KVtjSF1uW2NIXVtjSF00

>  <s_epik_cmdline>  (233) 
J2VwaWtfcHl0aG9uJywgJy1waHQnLCAnMi4wJywgJy1waCcsICc3LjAnLCAnLXRuJywgJzgnLCAnLW1hJywgJzIwMCcsICctaW1hZScsICc8aW5maWxlLm1hZT4nLCAnLW9tYWUnLCAnPG91dGZpbGUubWFlPic=

>  <r_lp_tautomer_probability>  (233) 
1

>  <r_epik_Ionization_Penalty>  (233) 
0.0517962

>  <r_epik_Ionization_Penalty_Charging>  (233) 
0.0489913

>  <r_epik_Ionization_Penalty_Neutral>  (233) 
0.00280495

>  <r_epik_State_Penalty>  (233) 
0.0418192

>  <r_epik_Charging_Adjusted_Penalty>  (233) 
0.0908104

>  <i_epik_Tot_Q>  (233) 
1

>  <i_epik_Tot_abs_Q>  (233) 
1

>  <s_lp_Force_Field>  (233) 
OPLS3e

>  <r_lp_Energy>  (233) 
24.9465

>  <b_lp_Chiralities_Consistent>  (233) 
1

>  <s_lp_Variant>  (233) 
68:0-1

>  <s_i_glide_gridfile>  (233) 
pfpi4k_grid

>  <i_i_glide_lignum>  (233) 
6

>  <i_i_glide_rotatable_bonds>  (233) 
4

>  <r_i_docking_score>  (233) 
-4.42426

>  <r_i_glide_ligand_efficiency>  (233) 
-0.221213

>  <r_i_glide_ligand_efficiency_sa>  (233) 
-0.600464

>  <r_i_glide_ligand_efficiency_ln>  (233) 
-1.10725

>  <r_i_glide_gscore>  (233) 
-4.42426

>  <r_i_glide_lipo>  (233) 
-0.13334

>  <r_i_glide_hbond>  (233) 
-0.572184

>  <r_i_glide_metal>  (233) 
-0

>  <r_i_glide_rewards>  (233) 
-1.58028

>  <r_i_glide_evdw>  (233) 
-27.1955

>  <r_i_glide_ecoul>  (233) 
-8.89826

>  <r_i_glide_erotb>  (233) 
0.724896

>  <r_i_glide_esite>  (233) 
-0.168829

>  <r_i_glide_emodel>  (233) 
-46.2695

>  <r_i_glide_energy>  (233) 
-36.0938

>  <r_i_glide_einternal>  (233) 
4.96841

>  <r_i_glide_intrahb_reward>  (233) 
-0

>  <i_i_glide_confnum>  (233) 
3

>  <i_i_glide_posenum>  (233) 
36

>  <r_i_glide_eff_state_penalty>  (233) 
0

>  <ligand_id>  (233) 
68

>  <original_smiles>  (233) 
OC1CN(Cc2cn(C3CCc4ccncc43)nn2)C1

>  <smiles>  (233) 
[H]OC1([H])C([H])([H])[N+]([H])(C([H])([H])c2nnn(C3([H])c4c([H])nc([H])c([H])c4C([H])([H])C3([H])[H])c2[H])C1([H])[H]

$$$$
68:1:0
     RDKit          3D

 37 40  0  0  1  0  0  0  0  0999 V2000
    7.0181   -2.2562   -1.5262 O   0  0  0  0  0  0  0  0  0  0  0  0
    6.6860   -2.6930   -0.2321 C   0  0  0  0  0  0  0  0  0  0  0  0
    7.6975   -3.5949    0.4756 C   0  0  0  0  0  0  0  0  0  0  0  0
    6.5276   -4.2785    1.0113 N   0  0  0  0  0  0  0  0  0  0  0  0
    6.6669   -5.7200    1.1342 C   0  0  0  0  0  0  0  0  0  0  0  0
    5.4645   -6.4940    1.5519 C   0  0  0  0  0  0  0  0  0  0  0  0
    5.0695   -6.8755    2.7991 C   0  0  0  0  0  0  0  0  0  0  0  0
    3.8570   -7.4926    2.5777 N   0  0  0  0  0  0  0  0  0  0  0  0
    2.9636   -8.1183    3.5408 C   0  0  2  0  0  0  0  0  0  0  0  0
    3.1112   -9.6650    3.5729 C   0  0  0  0  0  0  0  0  0  0  0  0
    1.6857  -10.2724    3.5374 C   0  0  0  0  0  0  0  0  0  0  0  0
    0.8024   -9.1015    3.2061 C   0  0  0  0  0  0  0  0  0  0  0  0
   -0.5608   -9.1062    2.8879 C   0  0  0  0  0  0  0  0  0  0  0  0
   -1.1492   -7.8570    2.5873 C   0  0  0  0  0  0  0  0  0  0  0  0
   -0.4750   -6.6783    2.5928 N   0  0  0  0  0  0  0  0  0  0  0  0
    0.8419   -6.7028    2.9177 C   0  0  0  0  0  0  0  0  0  0  0  0
    1.5039   -7.9050    3.2208 C   0  0  0  0  0  0  0  0  0  0  0  0
    3.5502   -7.5084    1.2596 N   0  0  0  0  0  0  0  0  0  0  0  0
    4.5039   -6.8990    0.6333 N   0  0  0  0  0  0  0  0  0  0  0  0
    5.7260   -3.8742   -0.1362 C   0  0  0  0  0  0  0  0  0  0  0  0
    7.2670   -3.0256   -2.0279 H   0  0  0  0  0  0  0  0  0  0  0  0
    6.3616   -1.8454    0.3802 H   0  0  0  0  0  0  0  0  0  0  0  0
    8.2998   -4.1982   -0.2056 H   0  0  0  0  0  0  0  0  0  0  0  0
    8.2979   -3.1084    1.2453 H   0  0  0  0  0  0  0  0  0  0  0  0
    7.0067   -6.1179    0.1791 H   0  0  0  0  0  0  0  0  0  0  0  0
    7.4820   -5.9318    1.8247 H   0  0  0  0  0  0  0  0  0  0  0  0
    5.5193   -6.7303    3.7697 H   0  0  0  0  0  0  0  0  0  0  0  0
    3.1523   -7.6910    4.5256 H   0  0  0  0  0  0  0  0  0  0  0  0
    3.6594  -10.0151    2.6941 H   0  0  0  0  0  0  0  0  0  0  0  0
    3.6751   -9.9979    4.4445 H   0  0  0  0  0  0  0  0  0  0  0  0
    1.6063  -11.0615    2.7935 H   0  0  0  0  0  0  0  0  0  0  0  0
    1.3997  -10.6773    4.5067 H   0  0  0  0  0  0  0  0  0  0  0  0
   -1.1339  -10.0197    2.8689 H   0  0  0  0  0  0  0  0  0  0  0  0
   -2.1993   -7.8032    2.3434 H   0  0  0  0  0  0  0  0  0  0  0  0
    1.3718   -5.7619    2.9050 H   0  0  0  0  0  0  0  0  0  0  0  0
    4.6942   -3.6373    0.1297 H   0  0  0  0  0  0  0  0  0  0  0  0
    5.7898   -4.5641   -0.9815 H   0  0  0  0  0  0  0  0  0  0  0  0
  1  2  1  0
  1 21  1  0
  2 20  1  0
  2  3  1  0
  2 22  1  0
  3  4  1  0
  3 23  1  0
  3 24  1  0
  4  5  1  0
  4 20  1  0
  5  6  1  0
  5 25  1  0
  5 26  1  0
  6 19  1  0
  6  7  2  0
  7  8  1  0
  7 27  1  0
  8  9  1  0
  8 18  1  0
  9 17  1  0
  9 10  1  0
  9 28  1  1
 10 11  1  0
 10 29  1  0
 10 30  1  0
 11 12  1  0
 11 31  1  0
 11 32  1  0
 12 17  2  0
 12 13  1  0
 13 14  2  0
 13 33  1  0
 14 15  1  0
 14 34  1  0
 15 16  2  0
 16 17  1  0
 16 35  1  0
 18 19  2  0
 20 36  1  0
 20 37  1  0
M  END
>  <i_m_ct_stereo_status>  (234) 
1

>  <s_m_source_file>  (234) 
/var/tmp/pbs.5076255.sched01/tmpos3i1bch/920fm1no0n.sdf

>  <i_m_source_file_index>  (234) 
7

>  <i_lp_mmshare_version>  (234) 
48012

>  <i_f3d_flags>  (234) 
0

>  <s_epik_input>  (234) 
W09IXVtDSF0xW0NIMl1OKFtDSDJdMSlbQ0gyXWMyW2NIXW4obm4yKVtDQEhdKFtDSDJdW0NIMl0zKWMoYzM0KVtjSF1uW2NIXVtjSF00

>  <s_epik_cmdline>  (234) 
J2VwaWtfcHl0aG9uJywgJy1waHQnLCAnMi4wJywgJy1waCcsICc3LjAnLCAnLXRuJywgJzgnLCAnLW1hJywgJzIwMCcsICctaW1hZScsICc8aW5maWxlLm1hZT4nLCAnLW9tYWUnLCAnPG91dGZpbGUubWFlPic=

>  <r_lp_tautomer_probability>  (234) 
1

>  <r_epik_Ionization_Penalty>  (234) 
1.50402

>  <r_epik_Ionization_Penalty_Charging>  (234) 
0

>  <r_epik_Ionization_Penalty_Neutral>  (234) 
1.50402

>  <r_epik_State_Penalty>  (234) 
1.59145

>  <r_epik_Charging_Adjusted_Penalty>  (234) 
1.59145

>  <i_epik_Tot_Q>  (234) 
0

>  <i_epik_Tot_abs_Q>  (234) 
0

>  <s_lp_Force_Field>  (234) 
OPLS3e

>  <r_lp_Energy>  (234) 
24.5097

>  <b_lp_Chiralities_Consistent>  (234) 
1

>  <s_lp_Variant>  (234) 
68:0-2

>  <s_i_glide_gridfile>  (234) 
pfpi4k_grid

>  <i_i_glide_lignum>  (234) 
7

>  <i_i_glide_rotatable_bonds>  (234) 
4

>  <r_i_docking_score>  (234) 
-3.83201

>  <r_i_glide_ligand_efficiency>  (234) 
-0.1916

>  <r_i_glide_ligand_efficiency_sa>  (234) 
-0.520083

>  <r_i_glide_ligand_efficiency_ln>  (234) 
-0.959025

>  <r_i_glide_gscore>  (234) 
-3.83201

>  <r_i_glide_lipo>  (234) 
-0.471548

>  <r_i_glide_hbond>  (234) 
-0.32

>  <r_i_glide_metal>  (234) 
-0

>  <r_i_glide_rewards>  (234) 
-1.5592

>  <r_i_glide_evdw>  (234) 
-22.7048

>  <r_i_glide_ecoul>  (234) 
-7.16631

>  <r_i_glide_erotb>  (234) 
0.729564

>  <r_i_glide_esite>  (234) 
-0.000641354

>  <r_i_glide_emodel>  (234) 
-37.9035

>  <r_i_glide_energy>  (234) 
-29.8711

>  <r_i_glide_einternal>  (234) 
0.761223

>  <r_i_glide_intrahb_reward>  (234) 
-0

>  <i_i_glide_confnum>  (234) 
1

>  <i_i_glide_posenum>  (234) 
2

>  <r_i_glide_eff_state_penalty>  (234) 
0

>  <ligand_id>  (234) 
68

>  <original_smiles>  (234) 
OC1CN(Cc2cn(C3CCc4ccncc43)nn2)C1

>  <smiles>  (234) 
[H]OC1([H])C([H])([H])N(C([H])([H])c2nnn(C3([H])c4c([H])nc([H])c([H])c4C([H])([H])C3([H])[H])c2[H])C1([H])[H]

$$$$
68:1:1
     RDKit          3D

 37 40  0  0  1  0  0  0  0  0999 V2000
    6.7203   -2.2513   -1.5208 O   0  0  0  0  0  0  0  0  0  0  0  0
    5.8376   -2.4589   -0.4431 C   0  0  0  0  0  0  0  0  0  0  0  0
    5.3288   -3.8876   -0.2611 C   0  0  0  0  0  0  0  0  0  0  0  0
    4.0848   -3.2653    0.1686 N   0  0  0  0  0  0  0  0  0  0  0  0
    2.9017   -4.0164   -0.2199 C   0  0  0  0  0  0  0  0  0  0  0  0
    2.6067   -5.2728    0.5369 C   0  0  0  0  0  0  0  0  0  0  0  0
    3.4179   -5.9572    1.3896 C   0  0  0  0  0  0  0  0  0  0  0  0
    2.6406   -7.0066    1.8162 N   0  0  0  0  0  0  0  0  0  0  0  0
    3.0168   -8.0661    2.7320 C   0  0  2  0  0  0  0  0  0  0  0  0
    3.0253   -9.4728    2.0692 C   0  0  0  0  0  0  0  0  0  0  0  0
    2.2608  -10.4291    3.0172 C   0  0  0  0  0  0  0  0  0  0  0  0
    1.6203   -9.5109    4.0201 C   0  0  0  0  0  0  0  0  0  0  0  0
    0.6830   -9.8333    5.0096 C   0  0  0  0  0  0  0  0  0  0  0  0
    0.2205   -8.7703    5.8160 C   0  0  0  0  0  0  0  0  0  0  0  0
    0.6381   -7.4845    5.6859 N   0  0  0  0  0  0  0  0  0  0  0  0
    1.5476   -7.2001    4.7236 C   0  0  0  0  0  0  0  0  0  0  0  0
    2.0452   -8.2044    3.8704 C   0  0  0  0  0  0  0  0  0  0  0  0
    1.4008   -6.9537    1.2705 N   0  0  0  0  0  0  0  0  0  0  0  0
    1.3760   -5.9179    0.4904 N   0  0  0  0  0  0  0  0  0  0  0  0
    4.3594   -2.0811   -0.6314 C   0  0  0  0  0  0  0  0  0  0  0  0
    6.3962   -2.7751   -2.2368 H   0  0  0  0  0  0  0  0  0  0  0  0
    6.2628   -2.0620    0.4827 H   0  0  0  0  0  0  0  0  0  0  0  0
    5.2333   -4.4480   -1.1952 H   0  0  0  0  0  0  0  0  0  0  0  0
    5.8115   -4.4683    0.5258 H   0  0  0  0  0  0  0  0  0  0  0  0
    2.0357   -3.3571   -0.1638 H   0  0  0  0  0  0  0  0  0  0  0  0
    2.9835   -4.2601   -1.2756 H   0  0  0  0  0  0  0  0  0  0  0  0
    4.4248   -5.7706    1.7191 H   0  0  0  0  0  0  0  0  0  0  0  0
    3.9922   -7.8428    3.1634 H   0  0  0  0  0  0  0  0  0  0  0  0
    2.5085   -9.4576    1.1053 H   0  0  0  0  0  0  0  0  0  0  0  0
    4.0407   -9.8222    1.8665 H   0  0  0  0  0  0  0  0  0  0  0  0
    1.5109  -11.0082    2.4887 H   0  0  0  0  0  0  0  0  0  0  0  0
    2.9427  -11.1092    3.5273 H   0  0  0  0  0  0  0  0  0  0  0  0
    0.3171  -10.8382    5.1457 H   0  0  0  0  0  0  0  0  0  0  0  0
   -0.5039   -8.9630    6.5916 H   0  0  0  0  0  0  0  0  0  0  0  0
    1.8625   -6.1725    4.6286 H   0  0  0  0  0  0  0  0  0  0  0  0
    4.0494   -1.1600   -0.1375 H   0  0  0  0  0  0  0  0  0  0  0  0
    3.9927   -2.1436   -1.6580 H   0  0  0  0  0  0  0  0  0  0  0  0
  1  2  1  0
  1 21  1  0
  2 20  1  0
  2  3  1  0
  2 22  1  0
  3  4  1  0
  3 23  1  0
  3 24  1  0
  4  5  1  0
  4 20  1  0
  5  6  1  0
  5 25  1  0
  5 26  1  0
  6 19  1  0
  6  7  2  0
  7  8  1  0
  7 27  1  0
  8  9  1  0
  8 18  1  0
  9 17  1  0
  9 10  1  0
  9 28  1  1
 10 11  1  0
 10 29  1  0
 10 30  1  0
 11 12  1  0
 11 31  1  0
 11 32  1  0
 12 17  2  0
 12 13  1  0
 13 14  2  0
 13 33  1  0
 14 15  1  0
 14 34  1  0
 15 16  2  0
 16 17  1  0
 16 35  1  0
 18 19  2  0
 20 36  1  0
 20 37  1  0
M  END
>  <i_m_ct_stereo_status>  (235) 
1

>  <s_m_source_file>  (235) 
/var/tmp/pbs.5076255.sched01/tmpos3i1bch/920fm1no0n.sdf

>  <i_m_source_file_index>  (235) 
7

>  <i_lp_mmshare_version>  (235) 
48012

>  <i_f3d_flags>  (235) 
0

>  <s_epik_input>  (235) 
W09IXVtDSF0xW0NIMl1OKFtDSDJdMSlbQ0gyXWMyW2NIXW4obm4yKVtDQEhdKFtDSDJdW0NIMl0zKWMoYzM0KVtjSF1uW2NIXVtjSF00

>  <s_epik_cmdline>  (235) 
J2VwaWtfcHl0aG9uJywgJy1waHQnLCAnMi4wJywgJy1waCcsICc3LjAnLCAnLXRuJywgJzgnLCAnLW1hJywgJzIwMCcsICctaW1hZScsICc8aW5maWxlLm1hZT4nLCAnLW9tYWUnLCAnPG91dGZpbGUubWFlPic=

>  <r_lp_tautomer_probability>  (235) 
1

>  <r_epik_Ionization_Penalty>  (235) 
1.50402

>  <r_epik_Ionization_Penalty_Charging>  (235) 
0

>  <r_epik_Ionization_Penalty_Neutral>  (235) 
1.50402

>  <r_epik_State_Penalty>  (235) 
1.59145

>  <r_epik_Charging_Adjusted_Penalty>  (235) 
1.59145

>  <i_epik_Tot_Q>  (235) 
0

>  <i_epik_Tot_abs_Q>  (235) 
0

>  <s_lp_Force_Field>  (235) 
OPLS3e

>  <r_lp_Energy>  (235) 
24.5097

>  <b_lp_Chiralities_Consistent>  (235) 
1

>  <s_lp_Variant>  (235) 
68:0-2

>  <s_i_glide_gridfile>  (235) 
pfpi4k_grid

>  <i_i_glide_lignum>  (235) 
7

>  <i_i_glide_rotatable_bonds>  (235) 
4

>  <r_i_docking_score>  (235) 
-3.47873

>  <r_i_glide_ligand_efficiency>  (235) 
-0.173936

>  <r_i_glide_ligand_efficiency_sa>  (235) 
-0.472136

>  <r_i_glide_ligand_efficiency_ln>  (235) 
-0.87061

>  <r_i_glide_gscore>  (235) 
-3.47873

>  <r_i_glide_lipo>  (235) 
-0.128865

>  <r_i_glide_hbond>  (235) 
-0.16

>  <r_i_glide_metal>  (235) 
-0

>  <r_i_glide_rewards>  (235) 
-1.5592

>  <r_i_glide_evdw>  (235) 
-23.1232

>  <r_i_glide_ecoul>  (235) 
-7.00501

>  <r_i_glide_erotb>  (235) 
0.729564

>  <r_i_glide_esite>  (235) 
-0.153317

>  <r_i_glide_emodel>  (235) 
-37.204

>  <r_i_glide_energy>  (235) 
-30.1282

>  <r_i_glide_einternal>  (235) 
0.867742

>  <r_i_glide_intrahb_reward>  (235) 
-0

>  <i_i_glide_confnum>  (235) 
1

>  <i_i_glide_posenum>  (235) 
15

>  <r_i_glide_eff_state_penalty>  (235) 
0

>  <ligand_id>  (235) 
68

>  <original_smiles>  (235) 
OC1CN(Cc2cn(C3CCc4ccncc43)nn2)C1

>  <smiles>  (235) 
[H]OC1([H])C([H])([H])N(C([H])([H])c2nnn(C3([H])c4c([H])nc([H])c([H])c4C([H])([H])C3([H])[H])c2[H])C1([H])[H]

$$$$
68:1:2
     RDKit          3D

 37 40  0  0  1  0  0  0  0  0999 V2000
    3.5415   -1.5676   -4.1730 O   0  0  0  0  0  0  0  0  0  0  0  0
    3.3622   -1.6400   -2.7748 C   0  0  0  0  0  0  0  0  0  0  0  0
    4.6144   -1.6951   -1.8843 C   0  0  0  0  0  0  0  0  0  0  0  0
    3.8401   -2.5995   -1.0479 N   0  0  0  0  0  0  0  0  0  0  0  0
    4.5900   -3.6914   -0.4304 C   0  0  0  0  0  0  0  0  0  0  0  0
    3.8282   -4.7250    0.3457 C   0  0  0  0  0  0  0  0  0  0  0  0
    4.2427   -5.5975    1.3105 C   0  0  0  0  0  0  0  0  0  0  0  0
    3.0901   -6.2854    1.6319 N   0  0  0  0  0  0  0  0  0  0  0  0
    2.8925   -7.3423    2.6136 C   0  0  2  0  0  0  0  0  0  0  0  0
    3.1860   -8.7512    2.0252 C   0  0  0  0  0  0  0  0  0  0  0  0
    2.0115   -9.6761    2.4303 C   0  0  0  0  0  0  0  0  0  0  0  0
    0.9709   -8.7365    2.9686 C   0  0  0  0  0  0  0  0  0  0  0  0
   -0.3622   -9.0154    3.3106 C   0  0  0  0  0  0  0  0  0  0  0  0
   -1.1388   -7.9334    3.7690 C   0  0  0  0  0  0  0  0  0  0  0  0
   -0.6721   -6.6602    3.8891 N   0  0  0  0  0  0  0  0  0  0  0  0
    0.6224   -6.4244    3.5733 C   0  0  0  0  0  0  0  0  0  0  0  0
    1.4625   -7.4498    3.0959 C   0  0  0  0  0  0  0  0  0  0  0  0
    2.0539   -5.8990    0.8541 N   0  0  0  0  0  0  0  0  0  0  0  0
    2.4743   -4.9386    0.1161 N   0  0  0  0  0  0  0  0  0  0  0  0
    3.0421   -3.0180   -2.1932 C   0  0  0  0  0  0  0  0  0  0  0  0
    2.6800   -1.6789   -4.5541 H   0  0  0  0  0  0  0  0  0  0  0  0
    2.6333   -0.8929   -2.4488 H   0  0  0  0  0  0  0  0  0  0  0  0
    5.4732   -2.1651   -2.3643 H   0  0  0  0  0  0  0  0  0  0  0  0
    4.8594   -0.7608   -1.3773 H   0  0  0  0  0  0  0  0  0  0  0  0
    5.1392   -4.2138   -1.2138 H   0  0  0  0  0  0  0  0  0  0  0  0
    5.3625   -3.2688    0.2096 H   0  0  0  0  0  0  0  0  0  0  0  0
    5.2007   -5.7668    1.7777 H   0  0  0  0  0  0  0  0  0  0  0  0
    3.5220   -7.1355    3.4810 H   0  0  0  0  0  0  0  0  0  0  0  0
    3.2358   -8.7033    0.9331 H   0  0  0  0  0  0  0  0  0  0  0  0
    4.1494   -9.1333    2.3656 H   0  0  0  0  0  0  0  0  0  0  0  0
    1.6369  -10.2373    1.5804 H   0  0  0  0  0  0  0  0  0  0  0  0
    2.3076  -10.3735    3.2107 H   0  0  0  0  0  0  0  0  0  0  0  0
   -0.7708  -10.0093    3.2294 H   0  0  0  0  0  0  0  0  0  0  0  0
   -2.1678   -8.0876    4.0573 H   0  0  0  0  0  0  0  0  0  0  0  0
    0.9678   -5.4042    3.6460 H   0  0  0  0  0  0  0  0  0  0  0  0
    1.9958   -3.1892   -1.9284 H   0  0  0  0  0  0  0  0  0  0  0  0
    3.4776   -3.8549   -2.7426 H   0  0  0  0  0  0  0  0  0  0  0  0
  1  2  1  0
  1 21  1  0
  2 20  1  0
  2  3  1  0
  2 22  1  0
  3  4  1  0
  3 23  1  0
  3 24  1  0
  4  5  1  0
  4 20  1  0
  5  6  1  0
  5 25  1  0
  5 26  1  0
  6 19  1  0
  6  7  2  0
  7  8  1  0
  7 27  1  0
  8  9  1  0
  8 18  1  0
  9 17  1  0
  9 10  1  0
  9 28  1  1
 10 11  1  0
 10 29  1  0
 10 30  1  0
 11 12  1  0
 11 31  1  0
 11 32  1  0
 12 17  2  0
 12 13  1  0
 13 14  2  0
 13 33  1  0
 14 15  1  0
 14 34  1  0
 15 16  2  0
 16 17  1  0
 16 35  1  0
 18 19  2  0
 20 36  1  0
 20 37  1  0
M  END
>  <i_m_ct_stereo_status>  (236) 
1

>  <s_m_source_file>  (236) 
/var/tmp/pbs.5076255.sched01/tmpos3i1bch/920fm1no0n.sdf

>  <i_m_source_file_index>  (236) 
7

>  <i_lp_mmshare_version>  (236) 
48012

>  <i_f3d_flags>  (236) 
0

>  <s_epik_input>  (236) 
W09IXVtDSF0xW0NIMl1OKFtDSDJdMSlbQ0gyXWMyW2NIXW4obm4yKVtDQEhdKFtDSDJdW0NIMl0zKWMoYzM0KVtjSF1uW2NIXVtjSF00

>  <s_epik_cmdline>  (236) 
J2VwaWtfcHl0aG9uJywgJy1waHQnLCAnMi4wJywgJy1waCcsICc3LjAnLCAnLXRuJywgJzgnLCAnLW1hJywgJzIwMCcsICctaW1hZScsICc8aW5maWxlLm1hZT4nLCAnLW9tYWUnLCAnPG91dGZpbGUubWFlPic=

>  <r_lp_tautomer_probability>  (236) 
1

>  <r_epik_Ionization_Penalty>  (236) 
1.50402

>  <r_epik_Ionization_Penalty_Charging>  (236) 
0

>  <r_epik_Ionization_Penalty_Neutral>  (236) 
1.50402

>  <r_epik_State_Penalty>  (236) 
1.59145

>  <r_epik_Charging_Adjusted_Penalty>  (236) 
1.59145

>  <i_epik_Tot_Q>  (236) 
0

>  <i_epik_Tot_abs_Q>  (236) 
0

>  <s_lp_Force_Field>  (236) 
OPLS3e

>  <r_lp_Energy>  (236) 
24.5097

>  <b_lp_Chiralities_Consistent>  (236) 
1

>  <s_lp_Variant>  (236) 
68:0-2

>  <s_i_glide_gridfile>  (236) 
pfpi4k_grid

>  <i_i_glide_lignum>  (236) 
7

>  <i_i_glide_rotatable_bonds>  (236) 
4

>  <r_i_docking_score>  (236) 
-3.44849

>  <r_i_glide_ligand_efficiency>  (236) 
-0.172425

>  <r_i_glide_ligand_efficiency_sa>  (236) 
-0.468033

>  <r_i_glide_ligand_efficiency_ln>  (236) 
-0.863044

>  <r_i_glide_gscore>  (236) 
-3.44849

>  <r_i_glide_lipo>  (236) 
-0.144913

>  <r_i_glide_hbond>  (236) 
-0.287662

>  <r_i_glide_metal>  (236) 
-0

>  <r_i_glide_rewards>  (236) 
-1.60654

>  <r_i_glide_evdw>  (236) 
-28.7919

>  <r_i_glide_ecoul>  (236) 
-3.97676

>  <r_i_glide_erotb>  (236) 
0.729564

>  <r_i_glide_esite>  (236) 
-0.102837

>  <r_i_glide_emodel>  (236) 
-38.1922

>  <r_i_glide_energy>  (236) 
-32.7686

>  <r_i_glide_einternal>  (236) 
3.93435

>  <r_i_glide_intrahb_reward>  (236) 
-0

>  <i_i_glide_confnum>  (236) 
1

>  <i_i_glide_posenum>  (236) 
7

>  <r_i_glide_eff_state_penalty>  (236) 
0

>  <ligand_id>  (236) 
68

>  <original_smiles>  (236) 
OC1CN(Cc2cn(C3CCc4ccncc43)nn2)C1

>  <smiles>  (236) 
[H]OC1([H])C([H])([H])N(C([H])([H])c2nnn(C3([H])c4c([H])nc([H])c([H])c4C([H])([H])C3([H])[H])c2[H])C1([H])[H]

$$$$
69:0:0
     RDKit          3D

 71 77  0  0  1  0  0  0  0  0999 V2000
    1.9883   -9.9422    4.5662 C   0  0  0  0  0  0  0  0  0  0  0  0
    2.9535   -9.1751    4.0169 C   0  0  0  0  0  0  0  0  0  0  0  0
    4.2887   -9.0195    4.8901 C   0  0  0  0  0  0  0  0  0  0  0  0
    5.0258   -7.5928    5.1562 C   0  0  2  0  0  0  0  0  0  0  0  0
    4.1004   -6.5049    5.3078 O   0  0  0  0  0  0  0  0  0  0  0  0
    2.7600   -6.5548    5.0038 C   0  0  0  0  0  0  0  0  0  0  0  0
    1.9081   -6.9128    5.8153 O   0  0  0  0  0  0  0  0  0  0  0  0
    2.3645   -6.0303    3.5756 C   0  0  1  0  0  0  0  0  0  0  0  0
    0.9562   -5.3635    3.6377 C   0  0  0  0  0  0  0  0  0  0  0  0
   -0.1033   -6.3056    3.6607 O   0  0  0  0  0  0  0  0  0  0  0  0
    3.4063   -5.0240    3.2223 C   0  0  1  0  0  0  0  0  0  0  0  0
    3.6471   -4.0146    4.2017 O   0  0  0  0  0  0  0  0  0  0  0  0
    4.6982   -5.7536    2.6786 C   0  0  1  0  0  0  0  0  0  0  0  0
    5.1578   -7.3756    2.4032 C   0  0  1  0  0  0  0  0  0  0  0  0
    4.8087   -8.4220    1.2246 C   0  0  0  0  0  0  0  0  0  0  0  0
    3.4827   -9.1655    1.4585 C   0  0  0  0  0  0  0  0  0  0  0  0
    2.6492   -8.5339    2.5779 C   0  0  2  0  0  0  0  0  0  0  0  0
    2.4918   -6.9567    2.2881 C   0  0  2  0  0  0  0  0  0  0  0  0
    3.3607   -6.3448    1.1402 O   0  0  0  0  0  0  0  0  0  0  0  0
    4.7269   -5.6182    1.2750 C   0  0  2  0  0  0  0  0  0  0  0  0
    6.3077   -6.1455    1.4025 C   0  0  1  0  0  0  0  0  0  0  0  0
    7.3549   -4.9854    1.3413 C   0  0  1  0  0  0  0  0  0  0  0  0
    8.6887   -5.4465    1.4792 O   0  0  0  0  0  0  0  0  0  0  0  0
    7.2414   -4.1208    0.0572 C   0  0  0  0  0  0  0  0  0  0  0  0
    5.8139   -4.2022   -0.5295 C   0  0  2  0  0  0  0  0  0  0  0  0
    5.3475   -3.1456   -1.4929 C   0  0  0  0  0  0  0  0  0  0  0  0
    4.0306   -2.9543   -1.3622 C   0  0  0  0  0  0  0  0  0  0  0  0
    3.1483   -2.0463   -2.1892 C   0  0  0  0  0  0  0  0  0  0  0  0
    3.4510   -3.8215   -0.2598 C   0  0  0  0  0  0  0  0  0  0  0  0
    4.7076   -4.2296    0.5460 C   0  0  1  0  0  0  0  0  0  0  0  0
    4.9532   -3.1458    1.4291 O   0  0  0  0  0  0  0  0  0  0  0  0
    6.5412   -7.1877    2.6407 C   0  0  2  0  0  0  0  0  0  0  0  0
    7.5544   -8.3028    2.2640 C   0  0  0  0  0  0  0  0  0  0  0  0
    6.3874   -7.1522    4.2944 C   0  0  1  0  0  0  0  0  0  0  0  0
    7.0098   -6.0198    4.8687 O   0  0  0  0  0  0  0  0  0  0  0  0
    1.0418  -10.1181    4.0744 H   0  0  0  0  0  0  0  0  0  0  0  0
    2.1229  -10.4124    5.5326 H   0  0  0  0  0  0  0  0  0  0  0  0
    4.0783   -9.4444    5.8737 H   0  0  0  0  0  0  0  0  0  0  0  0
    5.0213   -9.7134    4.4724 H   0  0  0  0  0  0  0  0  0  0  0  0
    5.4163   -7.7097    6.1689 H   0  0  0  0  0  0  0  0  0  0  0  0
    0.8690   -4.7299    4.5229 H   0  0  0  0  0  0  0  0  0  0  0  0
    0.7998   -4.7040    2.7844 H   0  0  0  0  0  0  0  0  0  0  0  0
    0.0608   -6.9183    4.3698 H   0  0  0  0  0  0  0  0  0  0  0  0
    2.9694   -4.4066    2.4406 H   0  0  0  0  0  0  0  0  0  0  0  0
    4.1093   -4.4131    4.9302 H   0  0  0  0  0  0  0  0  0  0  0  0
    5.4501   -5.1328    3.1755 H   0  0  0  0  0  0  0  0  0  0  0  0
    4.8938   -8.1247    3.0165 H   0  0  0  0  0  0  0  0  0  0  0  0
    4.8079   -7.9966    0.2212 H   0  0  0  0  0  0  0  0  0  0  0  0
    5.5429   -9.2240    1.1593 H   0  0  0  0  0  0  0  0  0  0  0  0
    2.9092   -9.1592    0.5316 H   0  0  0  0  0  0  0  0  0  0  0  0
    3.6624  -10.2188    1.6854 H   0  0  0  0  0  0  0  0  0  0  0  0
    1.6449   -8.9091    2.3713 H   0  0  0  0  0  0  0  0  0  0  0  0
    1.5243   -6.9033    1.7881 H   0  0  0  0  0  0  0  0  0  0  0  0
    6.5235   -6.6734    0.4768 H   0  0  0  0  0  0  0  0  0  0  0  0
    7.1641   -4.3081    2.1645 H   0  0  0  0  0  0  0  0  0  0  0  0
    8.7582   -6.3355    1.1614 H   0  0  0  0  0  0  0  0  0  0  0  0
    7.5148   -3.0876    0.2904 H   0  0  0  0  0  0  0  0  0  0  0  0
    7.9765   -4.4400   -0.6841 H   0  0  0  0  0  0  0  0  0  0  0  0
    5.7340   -5.1171   -1.1124 H   0  0  0  0  0  0  0  0  0  0  0  0
    5.9975   -2.6839   -2.2234 H   0  0  0  0  0  0  0  0  0  0  0  0
    2.6550   -1.3294   -1.5326 H   0  0  0  0  0  0  0  0  0  0  0  0
    2.3658   -2.6196   -2.6856 H   0  0  0  0  0  0  0  0  0  0  0  0
    3.7229   -1.5040   -2.9399 H   0  0  0  0  0  0  0  0  0  0  0  0
    2.7051   -3.2879    0.3268 H   0  0  0  0  0  0  0  0  0  0  0  0
    2.9697   -4.6873   -0.7137 H   0  0  0  0  0  0  0  0  0  0  0  0
    4.8840   -2.3507    0.9230 H   0  0  0  0  0  0  0  0  0  0  0  0
    8.5518   -8.0537    2.6286 H   0  0  0  0  0  0  0  0  0  0  0  0
    7.6439   -8.4477    1.1861 H   0  0  0  0  0  0  0  0  0  0  0  0
    7.2803   -9.2623    2.7056 H   0  0  0  0  0  0  0  0  0  0  0  0
    7.0758   -7.9333    4.6163 H   0  0  0  0  0  0  0  0  0  0  0  0
    7.8745   -5.9338    4.4897 H   0  0  0  0  0  0  0  0  0  0  0  0
  1  2  2  0
  1 36  1  0
  1 37  1  0
  2 17  1  0
  2  3  1  0
  3  4  1  0
  3 38  1  0
  3 39  1  0
  4 34  1  0
  4  5  1  0
  4 40  1  1
  5  6  1  0
  6  7  2  0
  6  8  1  0
  8 18  1  0
  8  9  1  1
  8 11  1  0
  9 10  1  0
  9 41  1  0
  9 42  1  0
 10 43  1  0
 11 12  1  0
 11 13  1  0
 11 44  1  6
 12 45  1  0
 13 20  1  0
 13 14  1  0
 13 46  1  1
 14 32  1  0
 14 15  1  0
 14 47  1  1
 15 16  1  0
 15 48  1  0
 15 49  1  0
 16 17  1  0
 16 50  1  0
 16 51  1  0
 17 18  1  0
 17 52  1  6
 18 19  1  0
 18 53  1  6
 20 19  1  6
 20 30  1  0
 20 21  1  0
 21 22  1  0
 21 32  1  0
 21 54  1  6
 22 23  1  0
 22 24  1  0
 22 55  1  1
 23 56  1  0
 24 25  1  0
 24 57  1  0
 24 58  1  0
 25 30  1  0
 25 26  1  0
 25 59  1  6
 26 27  2  0
 26 60  1  0
 27 28  1  0
 27 29  1  0
 28 61  1  0
 28 62  1  0
 28 63  1  0
 29 30  1  0
 29 64  1  0
 29 65  1  0
 30 31  1  1
 31 66  1  0
 32 33  1  1
 32 34  1  0
 33 67  1  0
 33 68  1  0
 33 69  1  0
 34 35  1  0
 34 70  1  1
 35 71  1  0
M  END
>  <i_m_ct_stereo_status>  (237) 
1

>  <s_m_source_file>  (237) 
/var/tmp/pbs.5076255.sched01/tmpos3i1bch/920fm1no0n.sdf

>  <i_m_source_file_index>  (237) 
8

>  <i_lp_mmshare_version>  (237) 
48012

>  <i_f3d_flags>  (237) 
2

>  <s_epik_input>  (237) 
TzFDKD1PKVtDQF0oW0NIMl1bT0hdKShbQ0BIXTJbT0hdKVtDQEhdKE8zKVtDQEhdKFtDSDJdW0NIMl00KUMoPVtDSDJdKVtDSDJdW0NAQEhdMVtDQEhdKFtPSF0pW0NAXShbQ0gzXSkoW0NAQEhdNFtDQEBIXTJbQ0BAXTM1NilbQ0BIXTVbQ0BASF0oW09IXSlbQ0gyXVtDQEhdN1tDQF02KFtPSF0pW0NIMl1DKD1bQ0hdNylbQ0gzXQ==

>  <s_epik_cmdline>  (237) 
J2VwaWtfcHl0aG9uJywgJy1waHQnLCAnMi4wJywgJy1waCcsICc3LjAnLCAnLXRuJywgJzgnLCAnLW1hJywgJzIwMCcsICctaW1hZScsICc8aW5maWxlLm1hZT4nLCAnLW9tYWUnLCAnPG91dGZpbGUubWFlPic=

>  <r_lp_tautomer_probability>  (237) 
1

>  <r_epik_Ionization_Penalty>  (237) 
4.09778e-07

>  <r_epik_Ionization_Penalty_Charging>  (237) 
0

>  <r_epik_Ionization_Penalty_Neutral>  (237) 
4.09778e-07

>  <r_epik_State_Penalty>  (237) 
-0

>  <r_epik_Charging_Adjusted_Penalty>  (237) 
0

>  <i_epik_Tot_Q>  (237) 
0

>  <i_epik_Tot_abs_Q>  (237) 
0

>  <s_epik_Chemistry_Notes>  (237) 
This compound has an ester and may undergo hydrolysis at high or low pH.

>  <s_lp_Force_Field>  (237) 
OPLS3e

>  <r_lp_Energy>  (237) 
343.704

>  <b_lp_Chiralities_Consistent>  (237) 
0

>  <s_lp_Variant>  (237) 
69:0-1

>  <s_i_glide_gridfile>  (237) 
pfpi4k_grid

>  <i_i_glide_lignum>  (237) 
8

>  <i_i_glide_rotatable_bonds>  (237) 
6

>  <r_i_docking_score>  (237) 
-3.19306

>  <r_i_glide_ligand_efficiency>  (237) 
-0.0912304

>  <r_i_glide_ligand_efficiency_sa>  (237) 
-0.298421

>  <r_i_glide_ligand_efficiency_ln>  (237) 
-0.700948

>  <r_i_glide_gscore>  (237) 
-3.19306

>  <r_i_glide_lipo>  (237) 
-0.537876

>  <r_i_glide_hbond>  (237) 
0

>  <r_i_glide_metal>  (237) 
-0

>  <r_i_glide_rewards>  (237) 
-1.07793

>  <r_i_glide_evdw>  (237) 
-23.1965

>  <r_i_glide_ecoul>  (237) 
-3.35087

>  <r_i_glide_erotb>  (237) 
0.0852003

>  <r_i_glide_esite>  (237) 
0

>  <r_i_glide_emodel>  (237) 
-41.0693

>  <r_i_glide_energy>  (237) 
-26.5474

>  <r_i_glide_einternal>  (237) 
1.31297

>  <r_i_glide_intrahb_reward>  (237) 
-1

>  <i_i_glide_confnum>  (237) 
3

>  <i_i_glide_posenum>  (237) 
37

>  <r_i_glide_eff_state_penalty>  (237) 
0

>  <ligand_id>  (237) 
69

>  <original_smiles>  (237) 
C=C1CC2OC(=O)C3(CO)C(O)C4C5CCC1C3OC41C(C(O)CC3C=C(C)CC31O)C5(C)C2O

>  <smiles>  (237) 
[H]OC([H])([H])C12C(=O)OC3([H])C([H])([H])C(=C([H])[H])C4([H])C([H])([H])C([H])([H])C5([H])C([H])(C1([H])O[H])C1(OC42[H])C([H])(C([H])(O[H])C([H])([H])C2([H])C([H])=C(C([H])([H])[H])C([H])([H])C21O[H])C5(C([H])([H])[H])C3([H])O[H]

$$$$
69:0:1
     RDKit          3D

 71 77  0  0  1  0  0  0  0  0999 V2000
    2.5180  -10.2008    4.7430 C   0  0  0  0  0  0  0  0  0  0  0  0
    3.4359   -9.4004    4.1596 C   0  0  0  0  0  0  0  0  0  0  0  0
    4.8288   -9.2630    4.9372 C   0  0  0  0  0  0  0  0  0  0  0  0
    5.5680   -7.8378    5.2069 C   0  0  2  0  0  0  0  0  0  0  0  0
    4.6495   -6.7681    5.4712 O   0  0  0  0  0  0  0  0  0  0  0  0
    3.2939   -6.8166    5.2604 C   0  0  0  0  0  0  0  0  0  0  0  0
    2.5090   -7.2124    6.1192 O   0  0  0  0  0  0  0  0  0  0  0  0
    2.7969   -6.2338    3.8887 C   0  0  1  0  0  0  0  0  0  0  0  0
    1.3943   -5.6006    4.1123 C   0  0  0  0  0  0  0  0  0  0  0  0
    0.8528   -5.0608    2.9264 O   0  0  0  0  0  0  0  0  0  0  0  0
    3.8045   -5.2041    3.5052 C   0  0  1  0  0  0  0  0  0  0  0  0
    4.1157   -4.2391    4.5095 O   0  0  0  0  0  0  0  0  0  0  0  0
    5.0453   -5.8985    2.8353 C   0  0  1  0  0  0  0  0  0  0  0  0
    5.4892   -7.5025    2.4637 C   0  0  1  0  0  0  0  0  0  0  0  0
    5.0677   -8.5011    1.2671 C   0  0  0  0  0  0  0  0  0  0  0  0
    3.7695   -9.2655    1.5645 C   0  0  0  0  0  0  0  0  0  0  0  0
    3.0231   -8.7029    2.7765 C   0  0  2  0  0  0  0  0  0  0  0  0
    2.8266   -7.1226    2.5672 C   0  0  2  0  0  0  0  0  0  0  0  0
    3.5942   -6.4455    1.3825 O   0  0  0  0  0  0  0  0  0  0  0  0
    4.9604   -5.7063    1.4402 C   0  0  2  0  0  0  0  0  0  0  0  0
    6.5471   -6.2133    1.4353 C   0  0  1  0  0  0  0  0  0  0  0  0
    7.5740   -5.0426    1.3378 C   0  0  1  0  0  0  0  0  0  0  0  0
    8.9147   -5.4811    1.3272 O   0  0  0  0  0  0  0  0  0  0  0  0
    7.3658   -4.1257    0.1068 C   0  0  0  0  0  0  0  0  0  0  0  0
    5.9040   -4.2028   -0.3698 C   0  0  2  0  0  0  0  0  0  0  0  0
    5.3611   -3.1148   -1.2503 C   0  0  0  0  0  0  0  0  0  0  0  0
    4.0572   -2.9500   -1.0179 C   0  0  0  0  0  0  0  0  0  0  0  0
    3.1145   -2.0220   -1.7400 C   0  0  0  0  0  0  0  0  0  0  0  0
    3.5624   -3.8672    0.0820 C   0  0  0  0  0  0  0  0  0  0  0  0
    4.8782   -4.2917    0.7783 C   0  0  1  0  0  0  0  0  0  0  0  0
    5.1826   -3.2400    1.6837 O   0  0  0  0  0  0  0  0  0  0  0  0
    6.8772   -7.2975    2.6086 C   0  0  2  0  0  0  0  0  0  0  0  0
    7.8440   -8.3853    2.1182 C   0  0  0  0  0  0  0  0  0  0  0  0
    6.8521   -7.3394    4.2666 C   0  0  1  0  0  0  0  0  0  0  0  0
    7.5051   -6.2265    4.8466 O   0  0  0  0  0  0  0  0  0  0  0  0
    1.5390  -10.3629    4.3121 H   0  0  0  0  0  0  0  0  0  0  0  0
    2.7230  -10.7090    5.6778 H   0  0  0  0  0  0  0  0  0  0  0  0
    4.6928   -9.7321    5.9143 H   0  0  0  0  0  0  0  0  0  0  0  0
    5.5326   -9.9300    4.4355 H   0  0  0  0  0  0  0  0  0  0  0  0
    6.0328   -7.9929    6.1814 H   0  0  0  0  0  0  0  0  0  0  0  0
    0.6842   -6.3363    4.4946 H   0  0  0  0  0  0  0  0  0  0  0  0
    1.4476   -4.7973    4.8515 H   0  0  0  0  0  0  0  0  0  0  0  0
    1.4402   -4.3909    2.6081 H   0  0  0  0  0  0  0  0  0  0  0  0
    3.3152   -4.5537    2.7867 H   0  0  0  0  0  0  0  0  0  0  0  0
    4.6025   -4.6754    5.1961 H   0  0  0  0  0  0  0  0  0  0  0  0
    5.8275   -5.2908    3.3011 H   0  0  0  0  0  0  0  0  0  0  0  0
    5.2904   -8.2867    3.0601 H   0  0  0  0  0  0  0  0  0  0  0  0
    4.9922   -8.0342    0.2861 H   0  0  0  0  0  0  0  0  0  0  0  0
    5.7954   -9.2977    1.1122 H   0  0  0  0  0  0  0  0  0  0  0  0
    3.1220   -9.2151    0.6877 H   0  0  0  0  0  0  0  0  0  0  0  0
    3.9772  -10.3222    1.7288 H   0  0  0  0  0  0  0  0  0  0  0  0
    2.0110   -9.0866    2.6326 H   0  0  0  0  0  0  0  0  0  0  0  0
    1.8233   -7.1149    2.1418 H   0  0  0  0  0  0  0  0  0  0  0  0
    6.7098   -6.7127    0.4767 H   0  0  0  0  0  0  0  0  0  0  0  0
    7.4379   -4.4234    2.2095 H   0  0  0  0  0  0  0  0  0  0  0  0
    9.0271   -6.1296    2.0075 H   0  0  0  0  0  0  0  0  0  0  0  0
    7.6552   -3.1025    0.3652 H   0  0  0  0  0  0  0  0  0  0  0  0
    8.0401   -4.4123   -0.7042 H   0  0  0  0  0  0  0  0  0  0  0  0
    5.8005   -5.0935   -0.9824 H   0  0  0  0  0  0  0  0  0  0  0  0
    5.9457   -2.6144   -2.0084 H   0  0  0  0  0  0  0  0  0  0  0  0
    2.7170   -1.3482   -0.9880 H   0  0  0  0  0  0  0  0  0  0  0  0
    2.2949   -2.5787   -2.2012 H   0  0  0  0  0  0  0  0  0  0  0  0
    3.6243   -1.4264   -2.4965 H   0  0  0  0  0  0  0  0  0  0  0  0
    2.8541   -3.3705    0.7424 H   0  0  0  0  0  0  0  0  0  0  0  0
    3.0640   -4.7150   -0.3856 H   0  0  0  0  0  0  0  0  0  0  0  0
    5.1435   -2.4317    1.2002 H   0  0  0  0  0  0  0  0  0  0  0  0
    8.8605   -8.1467    2.4383 H   0  0  0  0  0  0  0  0  0  0  0  0
    7.8526   -8.4703    1.0293 H   0  0  0  0  0  0  0  0  0  0  0  0
    7.5925   -9.3617    2.5379 H   0  0  0  0  0  0  0  0  0  0  0  0
    7.5655   -8.1297    4.4992 H   0  0  0  0  0  0  0  0  0  0  0  0
    8.3482   -6.1256    4.4323 H   0  0  0  0  0  0  0  0  0  0  0  0
  1  2  2  0
  1 36  1  0
  1 37  1  0
  2 17  1  0
  2  3  1  0
  3  4  1  0
  3 38  1  0
  3 39  1  0
  4 34  1  0
  4  5  1  0
  4 40  1  1
  5  6  1  0
  6  7  2  0
  6  8  1  0
  8 18  1  0
  8  9  1  1
  8 11  1  0
  9 10  1  0
  9 41  1  0
  9 42  1  0
 10 43  1  0
 11 12  1  0
 11 13  1  0
 11 44  1  6
 12 45  1  0
 13 20  1  0
 13 14  1  0
 13 46  1  1
 14 32  1  0
 14 15  1  0
 14 47  1  1
 15 16  1  0
 15 48  1  0
 15 49  1  0
 16 17  1  0
 16 50  1  0
 16 51  1  0
 17 18  1  0
 17 52  1  6
 18 19  1  0
 18 53  1  6
 20 19  1  6
 20 30  1  0
 20 21  1  0
 21 22  1  0
 21 32  1  0
 21 54  1  6
 22 23  1  0
 22 24  1  0
 22 55  1  1
 23 56  1  0
 24 25  1  0
 24 57  1  0
 24 58  1  0
 25 30  1  0
 25 26  1  0
 25 59  1  6
 26 27  2  0
 26 60  1  0
 27 28  1  0
 27 29  1  0
 28 61  1  0
 28 62  1  0
 28 63  1  0
 29 30  1  0
 29 64  1  0
 29 65  1  0
 30 31  1  1
 31 66  1  0
 32 33  1  6
 32 34  1  0
 33 67  1  0
 33 68  1  0
 33 69  1  0
 34 35  1  0
 34 70  1  1
 35 71  1  0
M  END
>  <i_m_ct_stereo_status>  (238) 
1

>  <s_m_source_file>  (238) 
/var/tmp/pbs.5076255.sched01/tmpos3i1bch/920fm1no0n.sdf

>  <i_m_source_file_index>  (238) 
8

>  <i_lp_mmshare_version>  (238) 
48012

>  <i_f3d_flags>  (238) 
2

>  <s_epik_input>  (238) 
TzFDKD1PKVtDQF0oW0NIMl1bT0hdKShbQ0BIXTJbT0hdKVtDQEhdKE8zKVtDQEhdKFtDSDJdW0NIMl00KUMoPVtDSDJdKVtDSDJdW0NAQEhdMVtDQEhdKFtPSF0pW0NAXShbQ0gzXSkoW0NAQEhdNFtDQEBIXTJbQ0BAXTM1NilbQ0BIXTVbQ0BASF0oW09IXSlbQ0gyXVtDQEhdN1tDQF02KFtPSF0pW0NIMl1DKD1bQ0hdNylbQ0gzXQ==

>  <s_epik_cmdline>  (238) 
J2VwaWtfcHl0aG9uJywgJy1waHQnLCAnMi4wJywgJy1waCcsICc3LjAnLCAnLXRuJywgJzgnLCAnLW1hJywgJzIwMCcsICctaW1hZScsICc8aW5maWxlLm1hZT4nLCAnLW9tYWUnLCAnPG91dGZpbGUubWFlPic=

>  <r_lp_tautomer_probability>  (238) 
1

>  <r_epik_Ionization_Penalty>  (238) 
4.09778e-07

>  <r_epik_Ionization_Penalty_Charging>  (238) 
0

>  <r_epik_Ionization_Penalty_Neutral>  (238) 
4.09778e-07

>  <r_epik_State_Penalty>  (238) 
-0

>  <r_epik_Charging_Adjusted_Penalty>  (238) 
0

>  <i_epik_Tot_Q>  (238) 
0

>  <i_epik_Tot_abs_Q>  (238) 
0

>  <s_epik_Chemistry_Notes>  (238) 
This compound has an ester and may undergo hydrolysis at high or low pH.

>  <s_lp_Force_Field>  (238) 
OPLS3e

>  <r_lp_Energy>  (238) 
343.704

>  <b_lp_Chiralities_Consistent>  (238) 
0

>  <s_lp_Variant>  (238) 
69:0-1

>  <s_i_glide_gridfile>  (238) 
pfpi4k_grid

>  <i_i_glide_lignum>  (238) 
8

>  <i_i_glide_rotatable_bonds>  (238) 
6

>  <r_i_docking_score>  (238) 
-1.89904

>  <r_i_glide_ligand_efficiency>  (238) 
-0.0542582

>  <r_i_glide_ligand_efficiency_sa>  (238) 
-0.177482

>  <r_i_glide_ligand_efficiency_ln>  (238) 
-0.416881

>  <r_i_glide_gscore>  (238) 
-1.89904

>  <r_i_glide_lipo>  (238) 
-0.56226

>  <r_i_glide_hbond>  (238) 
0

>  <r_i_glide_metal>  (238) 
-0

>  <r_i_glide_rewards>  (238) 
-0.0779322

>  <r_i_glide_evdw>  (238) 
-17.6432

>  <r_i_glide_ecoul>  (238) 
-3.07925

>  <r_i_glide_erotb>  (238) 
0.0852003

>  <r_i_glide_esite>  (238) 
0

>  <r_i_glide_emodel>  (238) 
-21.0738

>  <r_i_glide_energy>  (238) 
-20.7224

>  <r_i_glide_einternal>  (238) 
5.32365

>  <r_i_glide_intrahb_reward>  (238) 
-0

>  <i_i_glide_confnum>  (238) 
3

>  <i_i_glide_posenum>  (238) 
4

>  <r_i_glide_eff_state_penalty>  (238) 
0

>  <ligand_id>  (238) 
69

>  <original_smiles>  (238) 
C=C1CC2OC(=O)C3(CO)C(O)C4C5CCC1C3OC41C(C(O)CC3C=C(C)CC31O)C5(C)C2O

>  <smiles>  (238) 
[H]OC([H])([H])C12C(=O)OC3([H])C([H])([H])C(=C([H])[H])C4([H])C([H])([H])C([H])([H])C5([H])C([H])(C1([H])O[H])C1(OC42[H])C([H])(C([H])(O[H])C([H])([H])C2([H])C([H])=C(C([H])([H])[H])C([H])([H])C21O[H])C5(C([H])([H])[H])C3([H])O[H]

$$$$
69:0:2
     RDKit          3D

 71 77  0  0  1  0  0  0  0  0999 V2000
    0.1172   -1.2319    5.8249 C   0  0  0  0  0  0  0  0  0  0  0  0
    1.1738   -1.6140    5.0844 C   0  0  0  0  0  0  0  0  0  0  0  0
    2.5996   -1.3342    5.7253 C   0  0  0  0  0  0  0  0  0  0  0  0
    3.7947   -0.6262    4.9096 C   0  0  2  0  0  0  0  0  0  0  0  0
    3.3802    0.3947    3.9957 O   0  0  0  0  0  0  0  0  0  0  0  0
    2.1129    0.6235    3.6290 C   0  0  0  0  0  0  0  0  0  0  0  0
    1.3775    1.3684    4.2790 O   0  0  0  0  0  0  0  0  0  0  0  0
    1.6889   -0.0628    2.2884 C   0  0  1  0  0  0  0  0  0  0  0  0
    0.6575    0.8559    1.5742 C   0  0  0  0  0  0  0  0  0  0  0  0
   -0.6606    0.7897    2.1104 O   0  0  0  0  0  0  0  0  0  0  0  0
    2.9125   -0.2229    1.4612 C   0  0  1  0  0  0  0  0  0  0  0  0
    3.6590    0.9448    1.2839 O   0  0  0  0  0  0  0  0  0  0  0  0
    3.7369   -1.4909    1.8925 C   0  0  1  0  0  0  0  0  0  0  0  0
    3.5537   -2.7043    3.0795 C   0  0  1  0  0  0  0  0  0  0  0  0
    2.6479   -4.0404    3.1317 C   0  0  0  0  0  0  0  0  0  0  0  0
    1.2150   -3.7662    3.6060 C   0  0  0  0  0  0  0  0  0  0  0  0
    0.8694   -2.2711    3.6617 C   0  0  2  0  0  0  0  0  0  0  0  0
    1.2430   -1.5853    2.2480 C   0  0  2  0  0  0  0  0  0  0  0  0
    2.0155   -2.4871    1.2225 O   0  0  0  0  0  0  0  0  0  0  0  0
    3.5470   -2.5179    0.9451 C   0  0  2  0  0  0  0  0  0  0  0  0
    4.8493   -3.2460    1.7232 C   0  0  1  0  0  0  0  0  0  0  0  0
    6.2061   -3.0451    0.9379 C   0  0  1  0  0  0  0  0  0  0  0  0
    7.2910   -3.7625    1.4843 O   0  0  0  0  0  0  0  0  0  0  0  0
    6.1482   -3.5382   -0.5247 C   0  0  0  0  0  0  0  0  0  0  0  0
    4.7246   -3.5453   -1.0701 C   0  0  2  0  0  0  0  0  0  0  0  0
    4.5167   -3.5458   -2.5592 C   0  0  0  0  0  0  0  0  0  0  0  0
    3.3920   -2.9205   -2.8501 C   0  0  0  0  0  0  0  0  0  0  0  0
    2.7299   -2.7228   -4.1857 C   0  0  0  0  0  0  0  0  0  0  0  0
    2.7664   -2.2991   -1.6438 C   0  0  0  0  0  0  0  0  0  0  0  0
    3.9004   -2.3323   -0.5891 C   0  0  1  0  0  0  0  0  0  0  0  0
    4.6728   -1.1503   -0.8264 O   0  0  0  0  0  0  0  0  0  0  0  0
    4.9347   -2.9118    3.3388 C   0  0  2  0  0  0  0  0  0  0  0  0
    5.3412   -4.1741    4.1818 C   0  0  0  0  0  0  0  0  0  0  0  0
    5.0287   -1.5187    4.2601 C   0  0  1  0  0  0  0  0  0  0  0  0
    5.9260   -0.5511    3.7803 O   0  0  0  0  0  0  0  0  0  0  0  0
   -0.8958   -1.3645    5.4812 H   0  0  0  0  0  0  0  0  0  0  0  0
    0.2673   -0.7793    6.7902 H   0  0  0  0  0  0  0  0  0  0  0  0
    2.4489   -0.7144    6.6081 H   0  0  0  0  0  0  0  0  0  0  0  0
    2.9713   -2.2791    6.1218 H   0  0  0  0  0  0  0  0  0  0  0  0
    4.3170   -0.0475    5.6784 H   0  0  0  0  0  0  0  0  0  0  0  0
    0.9555    1.8987    1.5897 H   0  0  0  0  0  0  0  0  0  0  0  0
    0.6470    0.6212    0.5234 H   0  0  0  0  0  0  0  0  0  0  0  0
   -1.2481    1.2589    1.5303 H   0  0  0  0  0  0  0  0  0  0  0  0
    2.5614   -0.3782    0.4506 H   0  0  0  0  0  0  0  0  0  0  0  0
    3.8303    1.3610    2.1384 H   0  0  0  0  0  0  0  0  0  0  0  0
    4.7319   -1.0518    1.8146 H   0  0  0  0  0  0  0  0  0  0  0  0
    3.1427   -2.5309    3.9857 H   0  0  0  0  0  0  0  0  0  0  0  0
    2.6093   -4.5821    2.1864 H   0  0  0  0  0  0  0  0  0  0  0  0
    3.0138   -4.7881    3.8399 H   0  0  0  0  0  0  0  0  0  0  0  0
    0.5605   -4.2726    2.9050 H   0  0  0  0  0  0  0  0  0  0  0  0
    1.0325   -4.2186    4.5783 H   0  0  0  0  0  0  0  0  0  0  0  0
   -0.2193   -2.2622    3.6371 H   0  0  0  0  0  0  0  0  0  0  0  0
    0.3067   -1.5311    1.7122 H   0  0  0  0  0  0  0  0  0  0  0  0
    4.6840   -4.3197    1.6173 H   0  0  0  0  0  0  0  0  0  0  0  0
    6.4448   -1.9813    0.9254 H   0  0  0  0  0  0  0  0  0  0  0  0
    6.9768   -4.6251    1.6961 H   0  0  0  0  0  0  0  0  0  0  0  0
    6.8159   -2.9405   -1.1445 H   0  0  0  0  0  0  0  0  0  0  0  0
    6.5018   -4.5632   -0.5638 H   0  0  0  0  0  0  0  0  0  0  0  0
    4.2347   -4.4594   -0.7178 H   0  0  0  0  0  0  0  0  0  0  0  0
    5.1483   -4.0962   -3.2385 H   0  0  0  0  0  0  0  0  0  0  0  0
    2.6483   -1.6575   -4.3992 H   0  0  0  0  0  0  0  0  0  0  0  0
    1.7248   -3.1366   -4.1753 H   0  0  0  0  0  0  0  0  0  0  0  0
    3.3137   -3.2032   -4.9609 H   0  0  0  0  0  0  0  0  0  0  0  0
    2.4972   -1.3001   -1.9869 H   0  0  0  0  0  0  0  0  0  0  0  0
    1.9118   -2.9090   -1.3396 H   0  0  0  0  0  0  0  0  0  0  0  0
    4.1362   -0.3961   -0.6199 H   0  0  0  0  0  0  0  0  0  0  0  0
    6.3846   -4.2339    4.4934 H   0  0  0  0  0  0  0  0  0  0  0  0
    5.1560   -5.0859    3.6091 H   0  0  0  0  0  0  0  0  0  0  0  0
    4.7506   -4.2143    5.1008 H   0  0  0  0  0  0  0  0  0  0  0  0
    5.5586   -1.8560    5.1386 H   0  0  0  0  0  0  0  0  0  0  0  0
    5.7850   -0.4036    2.8678 H   0  0  0  0  0  0  0  0  0  0  0  0
  1  2  2  0
  1 36  1  0
  1 37  1  0
  2 17  1  0
  2  3  1  0
  3  4  1  0
  3 38  1  0
  3 39  1  0
  4 34  1  0
  4  5  1  0
  4 40  1  1
  5  6  1  0
  6  7  2  0
  6  8  1  0
  8 18  1  0
  8  9  1  6
  8 11  1  0
  9 10  1  0
  9 41  1  0
  9 42  1  0
 10 43  1  0
 11 12  1  0
 11 13  1  0
 11 44  1  6
 12 45  1  0
 13 20  1  0
 13 14  1  0
 13 46  1  6
 14 32  1  0
 14 15  1  0
 14 47  1  1
 15 16  1  0
 15 48  1  0
 15 49  1  0
 16 17  1  0
 16 50  1  0
 16 51  1  0
 17 18  1  0
 17 52  1  6
 18 19  1  0
 18 53  1  6
 20 19  1  6
 20 30  1  0
 20 21  1  0
 21 22  1  0
 21 32  1  0
 21 54  1  1
 22 23  1  0
 22 24  1  0
 22 55  1  6
 23 56  1  0
 24 25  1  0
 24 57  1  0
 24 58  1  0
 25 30  1  0
 25 26  1  0
 25 59  1  1
 26 27  2  0
 26 60  1  0
 27 28  1  0
 27 29  1  0
 28 61  1  0
 28 62  1  0
 28 63  1  0
 29 30  1  0
 29 64  1  0
 29 65  1  0
 30 31  1  1
 31 66  1  0
 32 33  1  1
 32 34  1  0
 33 67  1  0
 33 68  1  0
 33 69  1  0
 34 35  1  0
 34 70  1  1
 35 71  1  0
M  END
>  <i_m_ct_stereo_status>  (239) 
1

>  <s_m_source_file>  (239) 
/var/tmp/pbs.5076255.sched01/tmpos3i1bch/920fm1no0n.sdf

>  <i_m_source_file_index>  (239) 
8

>  <i_lp_mmshare_version>  (239) 
48012

>  <i_f3d_flags>  (239) 
2

>  <s_epik_input>  (239) 
TzFDKD1PKVtDQF0oW0NIMl1bT0hdKShbQ0BIXTJbT0hdKVtDQEhdKE8zKVtDQEhdKFtDSDJdW0NIMl00KUMoPVtDSDJdKVtDSDJdW0NAQEhdMVtDQEhdKFtPSF0pW0NAXShbQ0gzXSkoW0NAQEhdNFtDQEBIXTJbQ0BAXTM1NilbQ0BIXTVbQ0BASF0oW09IXSlbQ0gyXVtDQEhdN1tDQF02KFtPSF0pW0NIMl1DKD1bQ0hdNylbQ0gzXQ==

>  <s_epik_cmdline>  (239) 
J2VwaWtfcHl0aG9uJywgJy1waHQnLCAnMi4wJywgJy1waCcsICc3LjAnLCAnLXRuJywgJzgnLCAnLW1hJywgJzIwMCcsICctaW1hZScsICc8aW5maWxlLm1hZT4nLCAnLW9tYWUnLCAnPG91dGZpbGUubWFlPic=

>  <r_lp_tautomer_probability>  (239) 
1

>  <r_epik_Ionization_Penalty>  (239) 
4.09778e-07

>  <r_epik_Ionization_Penalty_Charging>  (239) 
0

>  <r_epik_Ionization_Penalty_Neutral>  (239) 
4.09778e-07

>  <r_epik_State_Penalty>  (239) 
-0

>  <r_epik_Charging_Adjusted_Penalty>  (239) 
0

>  <i_epik_Tot_Q>  (239) 
0

>  <i_epik_Tot_abs_Q>  (239) 
0

>  <s_epik_Chemistry_Notes>  (239) 
This compound has an ester and may undergo hydrolysis at high or low pH.

>  <s_lp_Force_Field>  (239) 
OPLS3e

>  <r_lp_Energy>  (239) 
343.704

>  <b_lp_Chiralities_Consistent>  (239) 
0

>  <s_lp_Variant>  (239) 
69:0-1

>  <s_i_glide_gridfile>  (239) 
pfpi4k_grid

>  <i_i_glide_lignum>  (239) 
8

>  <i_i_glide_rotatable_bonds>  (239) 
6

>  <r_i_docking_score>  (239) 
-1.31235

>  <r_i_glide_ligand_efficiency>  (239) 
-0.0374957

>  <r_i_glide_ligand_efficiency_sa>  (239) 
-0.122651

>  <r_i_glide_ligand_efficiency_ln>  (239) 
-0.28809

>  <r_i_glide_gscore>  (239) 
-1.31235

>  <r_i_glide_lipo>  (239) 
-0.397077

>  <r_i_glide_hbond>  (239) 
-0.000809421

>  <r_i_glide_metal>  (239) 
-0

>  <r_i_glide_rewards>  (239) 
-0.0779322

>  <r_i_glide_evdw>  (239) 
-8.26077

>  <r_i_glide_ecoul>  (239) 
-3.37129

>  <r_i_glide_erotb>  (239) 
0.0852003

>  <r_i_glide_esite>  (239) 
-0.00300142

>  <r_i_glide_emodel>  (239) 
-10.2553

>  <r_i_glide_energy>  (239) 
-11.6321

>  <r_i_glide_einternal>  (239) 
0.696649

>  <r_i_glide_intrahb_reward>  (239) 
-0

>  <i_i_glide_confnum>  (239) 
1

>  <i_i_glide_posenum>  (239) 
10

>  <r_i_glide_eff_state_penalty>  (239) 
0

>  <ligand_id>  (239) 
69

>  <original_smiles>  (239) 
C=C1CC2OC(=O)C3(CO)C(O)C4C5CCC1C3OC41C(C(O)CC3C=C(C)CC31O)C5(C)C2O

>  <smiles>  (239) 
[H]OC([H])([H])C12C(=O)OC3([H])C([H])([H])C(=C([H])[H])C4([H])C([H])([H])C([H])([H])C5([H])C([H])(C1([H])O[H])C1(OC42[H])C([H])(C([H])(O[H])C([H])([H])C2([H])C([H])=C(C([H])([H])[H])C([H])([H])C21O[H])C5(C([H])([H])[H])C3([H])O[H]

$$$$
70:0:0
     RDKit          3D

 34 41  0  0  1  0  0  0  0  0999 V2000
    3.2050   -0.9476   -3.1427 C   0  0  0  0  0  0  0  0  0  0  0  0
    4.3172   -1.9646   -3.1321 C   0  0  2  0  0  0  0  0  0  0  0  0
    4.1546   -3.2757   -2.4271 C   0  0  0  0  0  0  0  0  0  0  0  0
    3.7010   -2.9070   -0.9972 C   0  0  2  0  0  0  0  0  0  0  0  0
    4.1779   -1.4519   -0.7200 C   0  0  2  0  0  0  0  0  0  0  0  0
    4.3113   -0.8647   -2.1131 C   0  0  2  0  0  0  0  0  0  0  0  0
    5.4754   -1.2550    0.0722 C   0  0  1  0  0  0  0  0  0  0  0  0
    5.7986   -1.7350    1.4844 C   0  0  2  0  0  0  0  0  0  0  0  0
    6.5245   -2.3221    0.1940 C   0  0  1  0  0  0  0  0  0  0  0  0
    6.3474   -3.8875    0.0151 C   0  0  2  0  0  0  0  0  0  0  0  0
    5.0615   -4.7732    0.1315 C   0  0  2  0  0  0  0  0  0  0  0  0
    3.8588   -3.9994    0.0775 C   0  0  1  0  0  0  0  0  0  0  0  0
    4.2358   -3.5482    1.4833 C   0  0  2  0  0  0  0  0  0  0  0  0
    5.1933   -3.0789    2.2818 C   0  0  1  0  0  0  0  0  0  0  0  0
    5.0979   -4.7442    1.7126 C   0  0  1  0  0  0  0  0  0  0  0  0
    6.0210   -4.0125    1.4189 C   0  0  1  0  0  0  0  0  0  0  0  0
    2.2158   -1.2653   -2.8113 H   0  0  0  0  0  0  0  0  0  0  0  0
    3.2227   -0.2138   -3.9394 H   0  0  0  0  0  0  0  0  0  0  0  0
    5.0340   -1.9211   -3.9391 H   0  0  0  0  0  0  0  0  0  0  0  0
    3.3950   -3.8569   -2.9435 H   0  0  0  0  0  0  0  0  0  0  0  0
    5.0995   -3.8207   -2.4616 H   0  0  0  0  0  0  0  0  0  0  0  0
    2.6162   -2.7921   -1.0712 H   0  0  0  0  0  0  0  0  0  0  0  0
    3.3911   -0.9065   -0.1933 H   0  0  0  0  0  0  0  0  0  0  0  0
    4.9951   -0.0308   -2.2402 H   0  0  0  0  0  0  0  0  0  0  0  0
    5.8562   -0.2459   -0.0768 H   0  0  0  0  0  0  0  0  0  0  0  0
    6.3578   -1.0498    2.1138 H   0  0  0  0  0  0  0  0  0  0  0  0
    7.5506   -1.9919    0.0537 H   0  0  0  0  0  0  0  0  0  0  0  0
    7.2445   -4.4464   -0.2460 H   0  0  0  0  0  0  0  0  0  0  0  0
    5.0780   -5.7631   -0.3381 H   0  0  0  0  0  0  0  0  0  0  0  0
    2.9804   -4.6544    0.0859 H   0  0  0  0  0  0  0  0  0  0  0  0
    3.6855   -2.6121    1.6288 H   0  0  0  0  0  0  0  0  0  0  0  0
    4.8378   -2.9317    3.3013 H   0  0  0  0  0  0  0  0  0  0  0  0
    5.5029   -5.5888    2.2798 H   0  0  0  0  0  0  0  0  0  0  0  0
    6.8668   -4.2992    2.1039 H   0  0  0  0  0  0  0  0  0  0  0  0
  1  6  1  0
  1  2  1  0
  1 17  1  0
  1 18  1  0
  2  6  1  0
  2  3  1  0
  2 19  1  6
  3  4  1  0
  3 20  1  0
  3 21  1  0
  4 12  1  0
  4  5  1  0
  4 22  1  6
  5  6  1  0
  5  7  1  0
  5 23  1  1
  6 24  1  1
  7  9  1  0
  7  8  1  0
  7 25  1  1
  8 14  1  0
  8  9  1  0
  8 26  1  1
  9 10  1  0
  9 27  1  1
 10 16  1  0
 10 11  1  0
 10 28  1  1
 11 15  1  0
 11 12  1  0
 11 29  1  1
 12 13  1  0
 12 30  1  1
 13 16  1  0
 13 14  1  0
 13 31  1  1
 14 15  1  0
 14 32  1  1
 15 16  1  0
 15 33  1  1
 16 34  1  1
M  END
>  <i_m_ct_stereo_status>  (240) 
1

>  <s_m_source_file>  (240) 
/var/tmp/pbs.5076255.sched01/tmpos3i1bch/920fm1no0n.sdf

>  <i_m_source_file_index>  (240) 
9

>  <i_lp_mmshare_version>  (240) 
48012

>  <i_f3d_flags>  (240) 
2

>  <s_epik_input>  (240) 
W0NIMl0xW0NAQEhdKFtDQEBIXTEyKVtDQEhdM1tDQEBIXShbQ0gyXTIpW0NASF00W0NASF01W0NASF02W0NASF03W0NAQEhdM1tDQEhdN1tDQEhdOFtDQEBIXTRbQ0BIXTZbQ0BIXTU4

>  <s_epik_cmdline>  (240) 
J2VwaWtfcHl0aG9uJywgJy1waHQnLCAnMi4wJywgJy1waCcsICc3LjAnLCAnLXRuJywgJzgnLCAnLW1hJywgJzIwMCcsICctaW1hZScsICc8aW5maWxlLm1hZT4nLCAnLW9tYWUnLCAnPG91dGZpbGUubWFlPic=

>  <r_lp_tautomer_probability>  (240) 
1

>  <r_epik_Ionization_Penalty>  (240) 
0

>  <r_epik_Ionization_Penalty_Charging>  (240) 
0

>  <r_epik_Ionization_Penalty_Neutral>  (240) 
0

>  <r_epik_State_Penalty>  (240) 
-0

>  <r_epik_Charging_Adjusted_Penalty>  (240) 
0

>  <i_epik_Tot_Q>  (240) 
0

>  <i_epik_Tot_abs_Q>  (240) 
0

>  <s_lp_Force_Field>  (240) 
OPLS3e

>  <r_lp_Energy>  (240) 
416.348

>  <b_lp_Chiralities_Consistent>  (240) 
0

>  <s_lp_Variant>  (240) 
70:0-1

>  <s_i_glide_gridfile>  (240) 
pfpi4k_grid

>  <i_i_glide_lignum>  (240) 
9

>  <i_i_glide_rotatable_bonds>  (240) 
0

>  <r_i_docking_score>  (240) 
-3.752

>  <r_i_glide_ligand_efficiency>  (240) 
-0.2345

>  <r_i_glide_ligand_efficiency_sa>  (240) 
-0.590904

>  <r_i_glide_ligand_efficiency_ln>  (240) 
-0.994544

>  <r_i_glide_gscore>  (240) 
-3.752

>  <r_i_glide_lipo>  (240) 
-0.635989

>  <r_i_glide_hbond>  (240) 
0

>  <r_i_glide_metal>  (240) 
-0

>  <r_i_glide_rewards>  (240) 
-1.97513

>  <r_i_glide_evdw>  (240) 
-21.4633

>  <r_i_glide_ecoul>  (240) 
-0.45147

>  <r_i_glide_erotb>  (240) 
0

>  <r_i_glide_esite>  (240) 
0

>  <r_i_glide_emodel>  (240) 
-26.848

>  <r_i_glide_energy>  (240) 
-21.9147

>  <r_i_glide_einternal>  (240) 
0

>  <r_i_glide_intrahb_reward>  (240) 
-0

>  <i_i_glide_confnum>  (240) 
2

>  <i_i_glide_posenum>  (240) 
16

>  <r_i_glide_eff_state_penalty>  (240) 
0

>  <ligand_id>  (240) 
70

>  <original_smiles>  (240) 
C1C2CC3C(C12)C1C2C1C1C4C3C3C2C4C31

>  <smiles>  (240) 
[H]C1([H])C2([H])C([H])([H])C3([H])C([H])(C12[H])C1([H])C2([H])C1([H])C1([H])C4([H])C3([H])C3([H])C2([H])C4([H])C31[H]

$$$$
70:0:1
     RDKit          3D

 34 41  0  0  1  0  0  0  0  0999 V2000
    3.7399   -1.7719   -3.9099 C   0  0  0  0  0  0  0  0  0  0  0  0
    3.5978   -3.0274   -3.0787 C   0  0  2  0  0  0  0  0  0  0  0  0
    2.9111   -2.9932   -1.7453 C   0  0  0  0  0  0  0  0  0  0  0  0
    3.6133   -1.8521   -0.9740 C   0  0  2  0  0  0  0  0  0  0  0  0
    5.0265   -1.6647   -1.5938 C   0  0  2  0  0  0  0  0  0  0  0  0
    4.8586   -2.2228   -2.9921 C   0  0  2  0  0  0  0  0  0  0  0  0
    6.2122   -2.3302   -0.8909 C   0  0  1  0  0  0  0  0  0  0  0  0
    6.7008   -2.1053    0.5349 C   0  0  2  0  0  0  0  0  0  0  0  0
    6.0505   -3.4783    0.0595 C   0  0  1  0  0  0  0  0  0  0  0  0
    4.7642   -3.8970    0.8829 C   0  0  2  0  0  0  0  0  0  0  0  0
    3.5183   -3.0440    1.2980 C   0  0  2  0  0  0  0  0  0  0  0  0
    3.4195   -1.8256    0.5547 C   0  0  1  0  0  0  0  0  0  0  0  0
    4.5972   -1.3620    1.4001 C   0  0  2  0  0  0  0  0  0  0  0  0
    5.8068   -1.6506    1.8765 C   0  0  1  0  0  0  0  0  0  0  0  0
    4.3028   -2.3489    2.4801 C   0  0  1  0  0  0  0  0  0  0  0  0
    5.1668   -3.0227    1.9666 C   0  0  1  0  0  0  0  0  0  0  0  0
    3.1412   -0.9048   -3.6276 H   0  0  0  0  0  0  0  0  0  0  0  0
    3.8790   -1.9080   -4.9694 H   0  0  0  0  0  0  0  0  0  0  0  0
    3.6489   -3.9878   -3.5862 H   0  0  0  0  0  0  0  0  0  0  0  0
    1.8498   -2.7860   -1.8924 H   0  0  0  0  0  0  0  0  0  0  0  0
    3.0085   -3.9700   -1.2683 H   0  0  0  0  0  0  0  0  0  0  0  0
    3.0868   -0.9512   -1.2955 H   0  0  0  0  0  0  0  0  0  0  0  0
    5.2500   -0.5980   -1.6752 H   0  0  0  0  0  0  0  0  0  0  0  0
    5.7438   -2.6414   -3.4687 H   0  0  0  0  0  0  0  0  0  0  0  0
    7.0551   -2.4201   -1.5771 H   0  0  0  0  0  0  0  0  0  0  0  0
    7.7748   -2.0774    0.6821 H   0  0  0  0  0  0  0  0  0  0  0  0
    6.7505   -4.3002   -0.0839 H   0  0  0  0  0  0  0  0  0  0  0  0
    4.6964   -4.9385    1.1865 H   0  0  0  0  0  0  0  0  0  0  0  0
    2.6015   -3.5803    1.5683 H   0  0  0  0  0  0  0  0  0  0  0  0
    2.5036   -1.2853    0.8176 H   0  0  0  0  0  0  0  0  0  0  0  0
    5.0434   -0.5403    0.8283 H   0  0  0  0  0  0  0  0  0  0  0  0
    6.2070   -0.8459    2.4938 H   0  0  0  0  0  0  0  0  0  0  0  0
    4.1797   -2.7022    3.5093 H   0  0  0  0  0  0  0  0  0  0  0  0
    5.7369   -3.4979    2.8170 H   0  0  0  0  0  0  0  0  0  0  0  0
  1  6  1  0
  1  2  1  0
  1 17  1  0
  1 18  1  0
  2  6  1  0
  2  3  1  0
  2 19  1  6
  3  4  1  0
  3 20  1  0
  3 21  1  0
  4 12  1  0
  4  5  1  0
  4 22  1  6
  5  6  1  0
  5  7  1  0
  5 23  1  6
  6 24  1  6
  7  9  1  0
  7  8  1  0
  7 25  1  6
  8 14  1  0
  8  9  1  0
  8 26  1  6
  9 10  1  0
  9 27  1  6
 10 16  1  0
 10 11  1  0
 10 28  1  1
 11 15  1  0
 11 12  1  0
 11 29  1  1
 12 13  1  0
 12 30  1  6
 13 16  1  0
 13 14  1  0
 13 31  1  1
 14 15  1  0
 14 32  1  1
 15 16  1  0
 15 33  1  1
 16 34  1  1
M  END
>  <i_m_ct_stereo_status>  (241) 
1

>  <s_m_source_file>  (241) 
/var/tmp/pbs.5076255.sched01/tmpos3i1bch/920fm1no0n.sdf

>  <i_m_source_file_index>  (241) 
9

>  <i_lp_mmshare_version>  (241) 
48012

>  <i_f3d_flags>  (241) 
2

>  <s_epik_input>  (241) 
W0NIMl0xW0NAQEhdKFtDQEBIXTEyKVtDQEhdM1tDQEBIXShbQ0gyXTIpW0NASF00W0NASF01W0NASF02W0NASF03W0NAQEhdM1tDQEhdN1tDQEhdOFtDQEBIXTRbQ0BIXTZbQ0BIXTU4

>  <s_epik_cmdline>  (241) 
J2VwaWtfcHl0aG9uJywgJy1waHQnLCAnMi4wJywgJy1waCcsICc3LjAnLCAnLXRuJywgJzgnLCAnLW1hJywgJzIwMCcsICctaW1hZScsICc8aW5maWxlLm1hZT4nLCAnLW9tYWUnLCAnPG91dGZpbGUubWFlPic=

>  <r_lp_tautomer_probability>  (241) 
1

>  <r_epik_Ionization_Penalty>  (241) 
0

>  <r_epik_Ionization_Penalty_Charging>  (241) 
0

>  <r_epik_Ionization_Penalty_Neutral>  (241) 
0

>  <r_epik_State_Penalty>  (241) 
-0

>  <r_epik_Charging_Adjusted_Penalty>  (241) 
0

>  <i_epik_Tot_Q>  (241) 
0

>  <i_epik_Tot_abs_Q>  (241) 
0

>  <s_lp_Force_Field>  (241) 
OPLS3e

>  <r_lp_Energy>  (241) 
416.348

>  <b_lp_Chiralities_Consistent>  (241) 
0

>  <s_lp_Variant>  (241) 
70:0-1

>  <s_i_glide_gridfile>  (241) 
pfpi4k_grid

>  <i_i_glide_lignum>  (241) 
9

>  <i_i_glide_rotatable_bonds>  (241) 
0

>  <r_i_docking_score>  (241) 
-3.63346

>  <r_i_glide_ligand_efficiency>  (241) 
-0.227091

>  <r_i_glide_ligand_efficiency_sa>  (241) 
-0.572234

>  <r_i_glide_ligand_efficiency_ln>  (241) 
-0.963121

>  <r_i_glide_gscore>  (241) 
-3.63346

>  <r_i_glide_lipo>  (241) 
-0.597759

>  <r_i_glide_hbond>  (241) 
0

>  <r_i_glide_metal>  (241) 
-0

>  <r_i_glide_rewards>  (241) 
-1.97513

>  <r_i_glide_evdw>  (241) 
-21.5867

>  <r_i_glide_ecoul>  (241) 
0.125111

>  <r_i_glide_erotb>  (241) 
0

>  <r_i_glide_esite>  (241) 
0

>  <r_i_glide_emodel>  (241) 
-26.237

>  <r_i_glide_energy>  (241) 
-21.4616

>  <r_i_glide_einternal>  (241) 
0

>  <r_i_glide_intrahb_reward>  (241) 
-0

>  <i_i_glide_confnum>  (241) 
1

>  <i_i_glide_posenum>  (241) 
1

>  <r_i_glide_eff_state_penalty>  (241) 
0

>  <ligand_id>  (241) 
70

>  <original_smiles>  (241) 
C1C2CC3C(C12)C1C2C1C1C4C3C3C2C4C31

>  <smiles>  (241) 
[H]C1([H])C2([H])C([H])([H])C3([H])C([H])(C12[H])C1([H])C2([H])C1([H])C1([H])C4([H])C3([H])C3([H])C2([H])C4([H])C31[H]

$$$$
70:0:2
     RDKit          3D

 34 41  0  0  1  0  0  0  0  0999 V2000
    4.4812   -0.5243    2.9992 C   0  0  0  0  0  0  0  0  0  0  0  0
    5.4298   -1.4543    2.2831 C   0  0  2  0  0  0  0  0  0  0  0  0
    5.8985   -1.1647    0.8836 C   0  0  0  0  0  0  0  0  0  0  0  0
    4.6005   -0.9509    0.0738 C   0  0  2  0  0  0  0  0  0  0  0  0
    3.4533   -1.6772    0.8302 C   0  0  2  0  0  0  0  0  0  0  0  0
    3.9572   -1.7363    2.2592 C   0  0  2  0  0  0  0  0  0  0  0  0
    3.0506   -3.0698    0.3448 C   0  0  1  0  0  0  0  0  0  0  0  0
    2.5428   -3.4733   -1.0387 C   0  0  2  0  0  0  0  0  0  0  0  0
    3.9573   -3.9414   -0.4736 C   0  0  1  0  0  0  0  0  0  0  0  0
    5.1706   -3.5079   -1.3817 C   0  0  2  0  0  0  0  0  0  0  0  0
    5.4868   -2.1229   -2.0289 C   0  0  2  0  0  0  0  0  0  0  0  0
    4.7230   -1.0617   -1.4580 C   0  0  1  0  0  0  0  0  0  0  0  0
    3.5602   -1.6712   -2.2278 C   0  0  2  0  0  0  0  0  0  0  0  0
    2.8769   -2.7734   -2.5136 C   0  0  1  0  0  0  0  0  0  0  0  0
    4.4363   -2.3444   -3.1916 C   0  0  1  0  0  0  0  0  0  0  0  0
    4.2886   -3.3398   -2.5193 C   0  0  1  0  0  0  0  0  0  0  0  0
    4.3025    0.4591    2.5653 H   0  0  0  0  0  0  0  0  0  0  0  0
    4.4841   -0.5638    4.0832 H   0  0  0  0  0  0  0  0  0  0  0  0
    6.0568   -2.1120    2.8820 H   0  0  0  0  0  0  0  0  0  0  0  0
    6.5269   -0.2738    0.8730 H   0  0  0  0  0  0  0  0  0  0  0  0
    6.4982   -2.0074    0.5344 H   0  0  0  0  0  0  0  0  0  0  0  0
    4.3572    0.1021    0.2245 H   0  0  0  0  0  0  0  0  0  0  0  0
    2.5564   -1.0581    0.8167 H   0  0  0  0  0  0  0  0  0  0  0  0
    3.5672   -2.5344    2.8895 H   0  0  0  0  0  0  0  0  0  0  0  0
    2.4966   -3.5951    1.1235 H   0  0  0  0  0  0  0  0  0  0  0  0
    1.7450   -4.2089   -1.0680 H   0  0  0  0  0  0  0  0  0  0  0  0
    4.0059   -4.9866   -0.1710 H   0  0  0  0  0  0  0  0  0  0  0  0
    5.9339   -4.2551   -1.5572 H   0  0  0  0  0  0  0  0  0  0  0  0
    6.5218   -1.9373   -2.3146 H   0  0  0  0  0  0  0  0  0  0  0  0
    5.0148   -0.1040   -1.8961 H   0  0  0  0  0  0  0  0  0  0  0  0
    2.6747   -1.2906   -1.7084 H   0  0  0  0  0  0  0  0  0  0  0  0
    2.0233   -2.5670   -3.1653 H   0  0  0  0  0  0  0  0  0  0  0  0
    4.7418   -2.6549   -4.1959 H   0  0  0  0  0  0  0  0  0  0  0  0
    4.2097   -4.2017   -3.2450 H   0  0  0  0  0  0  0  0  0  0  0  0
  1  6  1  0
  1  2  1  0
  1 17  1  0
  1 18  1  0
  2  6  1  0
  2  3  1  0
  2 19  1  1
  3  4  1  0
  3 20  1  0
  3 21  1  0
  4 12  1  0
  4  5  1  0
  4 22  1  6
  5  6  1  0
  5  7  1  0
  5 23  1  1
  6 24  1  1
  7  9  1  0
  7  8  1  0
  7 25  1  1
  8 14  1  0
  8  9  1  0
  8 26  1  1
  9 10  1  0
  9 27  1  1
 10 16  1  0
 10 11  1  0
 10 28  1  6
 11 15  1  0
 11 12  1  0
 11 29  1  6
 12 13  1  0
 12 30  1  6
 13 16  1  0
 13 14  1  0
 13 31  1  6
 14 15  1  0
 14 32  1  6
 15 16  1  0
 15 33  1  6
 16 34  1  6
M  END
>  <i_m_ct_stereo_status>  (242) 
1

>  <s_m_source_file>  (242) 
/var/tmp/pbs.5076255.sched01/tmpos3i1bch/920fm1no0n.sdf

>  <i_m_source_file_index>  (242) 
9

>  <i_lp_mmshare_version>  (242) 
48012

>  <i_f3d_flags>  (242) 
2

>  <s_epik_input>  (242) 
W0NIMl0xW0NAQEhdKFtDQEBIXTEyKVtDQEhdM1tDQEBIXShbQ0gyXTIpW0NASF00W0NASF01W0NASF02W0NASF03W0NAQEhdM1tDQEhdN1tDQEhdOFtDQEBIXTRbQ0BIXTZbQ0BIXTU4

>  <s_epik_cmdline>  (242) 
J2VwaWtfcHl0aG9uJywgJy1waHQnLCAnMi4wJywgJy1waCcsICc3LjAnLCAnLXRuJywgJzgnLCAnLW1hJywgJzIwMCcsICctaW1hZScsICc8aW5maWxlLm1hZT4nLCAnLW9tYWUnLCAnPG91dGZpbGUubWFlPic=

>  <r_lp_tautomer_probability>  (242) 
1

>  <r_epik_Ionization_Penalty>  (242) 
0

>  <r_epik_Ionization_Penalty_Charging>  (242) 
0

>  <r_epik_Ionization_Penalty_Neutral>  (242) 
0

>  <r_epik_State_Penalty>  (242) 
-0

>  <r_epik_Charging_Adjusted_Penalty>  (242) 
0

>  <i_epik_Tot_Q>  (242) 
0

>  <i_epik_Tot_abs_Q>  (242) 
0

>  <s_lp_Force_Field>  (242) 
OPLS3e

>  <r_lp_Energy>  (242) 
416.348

>  <b_lp_Chiralities_Consistent>  (242) 
0

>  <s_lp_Variant>  (242) 
70:0-1

>  <s_i_glide_gridfile>  (242) 
pfpi4k_grid

>  <i_i_glide_lignum>  (242) 
9

>  <i_i_glide_rotatable_bonds>  (242) 
0

>  <r_i_docking_score>  (242) 
-3.61047

>  <r_i_glide_ligand_efficiency>  (242) 
-0.225654

>  <r_i_glide_ligand_efficiency_sa>  (242) 
-0.568613

>  <r_i_glide_ligand_efficiency_ln>  (242) 
-0.957026

>  <r_i_glide_gscore>  (242) 
-3.61047

>  <r_i_glide_lipo>  (242) 
-0.50646

>  <r_i_glide_hbond>  (242) 
0

>  <r_i_glide_metal>  (242) 
-0

>  <r_i_glide_rewards>  (242) 
-1.97513

>  <r_i_glide_evdw>  (242) 
-22.1866

>  <r_i_glide_ecoul>  (242) 
-0.130289

>  <r_i_glide_erotb>  (242) 
0

>  <r_i_glide_esite>  (242) 
0

>  <r_i_glide_emodel>  (242) 
-27.0648

>  <r_i_glide_energy>  (242) 
-22.3169

>  <r_i_glide_einternal>  (242) 
0

>  <r_i_glide_intrahb_reward>  (242) 
-0

>  <i_i_glide_confnum>  (242) 
1

>  <i_i_glide_posenum>  (242) 
8

>  <r_i_glide_eff_state_penalty>  (242) 
0

>  <ligand_id>  (242) 
70

>  <original_smiles>  (242) 
C1C2CC3C(C12)C1C2C1C1C4C3C3C2C4C31

>  <smiles>  (242) 
[H]C1([H])C2([H])C([H])([H])C3([H])C([H])(C12[H])C1([H])C2([H])C1([H])C1([H])C4([H])C3([H])C3([H])C2([H])C4([H])C31[H]

$$$$
71:0:0
     RDKit          3D

 14 15  0  0  1  0  0  0  0  0999 V2000
    2.6558   -2.3810   -3.5205 C   0  0  0  0  0  0  0  0  0  0  0  0
    3.4518   -1.2139   -3.6259 C   0  0  0  0  0  0  0  0  0  0  0  0
    4.2199   -0.6829   -2.6762 N   0  0  0  0  0  0  0  0  0  0  0  0
    4.1570   -1.3936   -1.5159 N   0  0  0  0  0  0  0  0  0  0  0  0
    4.8338   -1.0945   -0.3459 C   0  0  0  0  0  0  0  0  0  0  0  0
    4.4891   -2.0580    0.5630 C   0  0  0  0  0  0  0  0  0  0  0  0
    3.6133   -2.9766   -0.0009 N   0  0  0  0  0  0  0  0  0  0  0  0
    3.4128   -2.5685   -1.2526 C   0  0  0  0  0  0  0  0  0  0  0  0
    2.6283   -3.0567   -2.3266 C   0  0  0  0  0  0  0  0  0  0  0  0
    2.0520   -2.7346   -4.3473 H   0  0  0  0  0  0  0  0  0  0  0  0
    3.4500   -0.6785   -4.5701 H   0  0  0  0  0  0  0  0  0  0  0  0
    5.4617   -0.2213   -0.2947 H   0  0  0  0  0  0  0  0  0  0  0  0
    4.8047   -2.1677    1.5934 H   0  0  0  0  0  0  0  0  0  0  0  0
    2.0275   -3.9497   -2.2014 H   0  0  0  0  0  0  0  0  0  0  0  0
  1  9  2  0
  1  2  1  0
  1 10  1  0
  2  3  2  0
  2 11  1  0
  3  4  1  0
  4  8  1  0
  4  5  1  0
  5  6  2  0
  5 12  1  0
  6  7  1  0
  6 13  1  0
  7  8  2  0
  8  9  1  0
  9 14  1  0
M  END
>  <i_m_ct_stereo_status>  (243) 
1

>  <s_m_source_file>  (243) 
/var/tmp/pbs.5076255.sched01/tmpos3i1bch/920fm1no0n.sdf

>  <i_m_source_file_index>  (243) 
10

>  <i_lp_mmshare_version>  (243) 
48012

>  <i_f3d_flags>  (243) 
0

>  <s_epik_input>  (243) 
bjFbY0hdW2NIXVtjSF1jKG4xMiluW2NIXVtjSF0y

>  <s_epik_cmdline>  (243) 
J2VwaWtfcHl0aG9uJywgJy1waHQnLCAnMi4wJywgJy1waCcsICc3LjAnLCAnLXRuJywgJzgnLCAnLW1hJywgJzIwMCcsICctaW1hZScsICc8aW5maWxlLm1hZT4nLCAnLW9tYWUnLCAnPG91dGZpbGUubWFlPic=

>  <r_lp_tautomer_probability>  (243) 
1

>  <r_epik_Ionization_Penalty>  (243) 
0.00304482

>  <r_epik_Ionization_Penalty_Charging>  (243) 
0

>  <r_epik_Ionization_Penalty_Neutral>  (243) 
0.00304482

>  <r_epik_State_Penalty>  (243) 
0.00214

>  <r_epik_Charging_Adjusted_Penalty>  (243) 
0.00214

>  <i_epik_Tot_Q>  (243) 
0

>  <i_epik_Tot_abs_Q>  (243) 
0

>  <s_lp_Force_Field>  (243) 
OPLS3e

>  <r_lp_Energy>  (243) 
13.0914

>  <b_lp_Chiralities_Consistent>  (243) 
1

>  <s_lp_Variant>  (243) 
71:0-1

>  <s_i_glide_gridfile>  (243) 
pfpi4k_grid

>  <i_i_glide_lignum>  (243) 
10

>  <i_i_glide_rotatable_bonds>  (243) 
0

>  <r_i_docking_score>  (243) 
-3.91486

>  <r_i_glide_ligand_efficiency>  (243) 
-0.434984

>  <r_i_glide_ligand_efficiency_sa>  (243) 
-0.904803

>  <r_i_glide_ligand_efficiency_ln>  (243) 
-1.22445

>  <r_i_glide_gscore>  (243) 
-3.91486

>  <r_i_glide_lipo>  (243) 
-0.483009

>  <r_i_glide_hbond>  (243) 
0

>  <r_i_glide_metal>  (243) 
-0

>  <r_i_glide_rewards>  (243) 
-2.25

>  <r_i_glide_evdw>  (243) 
-16.8221

>  <r_i_glide_ecoul>  (243) 
-1.68112

>  <r_i_glide_erotb>  (243) 
0

>  <r_i_glide_esite>  (243) 
-0.0885746

>  <r_i_glide_emodel>  (243) 
-23.3982

>  <r_i_glide_energy>  (243) 
-18.5032

>  <r_i_glide_einternal>  (243) 
0

>  <r_i_glide_intrahb_reward>  (243) 
-0

>  <i_i_glide_confnum>  (243) 
2

>  <i_i_glide_posenum>  (243) 
19

>  <r_i_glide_eff_state_penalty>  (243) 
0

>  <ligand_id>  (243) 
71

>  <original_smiles>  (243) 
c1cnn2ccnc2c1

>  <smiles>  (243) 
[H]c1nn2c([H])c([H])nc2c([H])c1[H]

$$$$
71:0:1
     RDKit          3D

 14 15  0  0  1  0  0  0  0  0999 V2000
   -1.0747    1.7931    3.2049 C   0  0  0  0  0  0  0  0  0  0  0  0
   -1.4551    3.1480    3.3649 C   0  0  0  0  0  0  0  0  0  0  0  0
   -1.8932    3.7258    4.4844 N   0  0  0  0  0  0  0  0  0  0  0  0
   -1.9458    2.8461    5.5230 N   0  0  0  0  0  0  0  0  0  0  0  0
   -2.3554    3.1420    6.8120 C   0  0  0  0  0  0  0  0  0  0  0  0
   -2.2527    1.9847    7.5326 C   0  0  0  0  0  0  0  0  0  0  0  0
   -1.8044    0.9394    6.7331 N   0  0  0  0  0  0  0  0  0  0  0  0
   -1.6068    1.4701    5.5234 C   0  0  0  0  0  0  0  0  0  0  0  0
   -1.1489    0.9457    4.2859 C   0  0  0  0  0  0  0  0  0  0  0  0
   -0.7341    1.4349    2.2372 H   0  0  0  0  0  0  0  0  0  0  0  0
   -1.3855    3.8019    2.4972 H   0  0  0  0  0  0  0  0  0  0  0  0
   -2.6666    4.1415    7.0746 H   0  0  0  0  0  0  0  0  0  0  0  0
   -2.4804    1.8157    8.5757 H   0  0  0  0  0  0  0  0  0  0  0  0
   -0.8691   -0.0981    4.2024 H   0  0  0  0  0  0  0  0  0  0  0  0
  1  9  2  0
  1  2  1  0
  1 10  1  0
  2  3  2  0
  2 11  1  0
  3  4  1  0
  4  8  1  0
  4  5  1  0
  5  6  2  0
  5 12  1  0
  6  7  1  0
  6 13  1  0
  7  8  2  0
  8  9  1  0
  9 14  1  0
M  END
>  <i_m_ct_stereo_status>  (244) 
1

>  <s_m_source_file>  (244) 
/var/tmp/pbs.5076255.sched01/tmpos3i1bch/920fm1no0n.sdf

>  <i_m_source_file_index>  (244) 
10

>  <i_lp_mmshare_version>  (244) 
48012

>  <i_f3d_flags>  (244) 
0

>  <s_epik_input>  (244) 
bjFbY0hdW2NIXVtjSF1jKG4xMiluW2NIXVtjSF0y

>  <s_epik_cmdline>  (244) 
J2VwaWtfcHl0aG9uJywgJy1waHQnLCAnMi4wJywgJy1waCcsICc3LjAnLCAnLXRuJywgJzgnLCAnLW1hJywgJzIwMCcsICctaW1hZScsICc8aW5maWxlLm1hZT4nLCAnLW9tYWUnLCAnPG91dGZpbGUubWFlPic=

>  <r_lp_tautomer_probability>  (244) 
1

>  <r_epik_Ionization_Penalty>  (244) 
0.00304482

>  <r_epik_Ionization_Penalty_Charging>  (244) 
0

>  <r_epik_Ionization_Penalty_Neutral>  (244) 
0.00304482

>  <r_epik_State_Penalty>  (244) 
0.00214

>  <r_epik_Charging_Adjusted_Penalty>  (244) 
0.00214

>  <i_epik_Tot_Q>  (244) 
0

>  <i_epik_Tot_abs_Q>  (244) 
0

>  <s_lp_Force_Field>  (244) 
OPLS3e

>  <r_lp_Energy>  (244) 
13.0914

>  <b_lp_Chiralities_Consistent>  (244) 
1

>  <s_lp_Variant>  (244) 
71:0-1

>  <s_i_glide_gridfile>  (244) 
pfpi4k_grid

>  <i_i_glide_lignum>  (244) 
10

>  <i_i_glide_rotatable_bonds>  (244) 
0

>  <r_i_docking_score>  (244) 
-3.85973

>  <r_i_glide_ligand_efficiency>  (244) 
-0.428858

>  <r_i_glide_ligand_efficiency_sa>  (244) 
-0.892061

>  <r_i_glide_ligand_efficiency_ln>  (244) 
-1.20721

>  <r_i_glide_gscore>  (244) 
-3.85973

>  <r_i_glide_lipo>  (244) 
-0.109858

>  <r_i_glide_hbond>  (244) 
-0.151913

>  <r_i_glide_metal>  (244) 
-0

>  <r_i_glide_rewards>  (244) 
-2.29825

>  <r_i_glide_evdw>  (244) 
-12.428

>  <r_i_glide_ecoul>  (244) 
-4.36498

>  <r_i_glide_erotb>  (244) 
0

>  <r_i_glide_esite>  (244) 
-0.0235586

>  <r_i_glide_emodel>  (244) 
-21.6212

>  <r_i_glide_energy>  (244) 
-16.793

>  <r_i_glide_einternal>  (244) 
0

>  <r_i_glide_intrahb_reward>  (244) 
-0

>  <i_i_glide_confnum>  (244) 
2

>  <i_i_glide_posenum>  (244) 
17

>  <r_i_glide_eff_state_penalty>  (244) 
0

>  <ligand_id>  (244) 
71

>  <original_smiles>  (244) 
c1cnn2ccnc2c1

>  <smiles>  (244) 
[H]c1nn2c([H])c([H])nc2c([H])c1[H]

$$$$
71:0:2
     RDKit          3D

 14 15  0  0  1  0  0  0  0  0999 V2000
    2.9946   -2.0828   -3.5933 C   0  0  0  0  0  0  0  0  0  0  0  0
    3.9135   -1.1268   -3.1023 C   0  0  0  0  0  0  0  0  0  0  0  0
    4.4253   -1.0674   -1.8736 N   0  0  0  0  0  0  0  0  0  0  0  0
    3.9233   -2.0444   -1.0684 N   0  0  0  0  0  0  0  0  0  0  0  0
    4.2498   -2.2368    0.2617 C   0  0  0  0  0  0  0  0  0  0  0  0
    3.5339   -3.3248    0.6859 C   0  0  0  0  0  0  0  0  0  0  0  0
    2.7497   -3.8348   -0.3412 N   0  0  0  0  0  0  0  0  0  0  0  0
    2.9976   -3.0615   -1.4020 C   0  0  0  0  0  0  0  0  0  0  0  0
    2.5318   -3.0561   -2.7422 C   0  0  0  0  0  0  0  0  0  0  0  0
    2.6260   -2.0380   -4.6120 H   0  0  0  0  0  0  0  0  0  0  0  0
    4.2530   -0.3517   -3.7818 H   0  0  0  0  0  0  0  0  0  0  0  0
    4.9470   -1.5744    0.7488 H   0  0  0  0  0  0  0  0  0  0  0  0
    3.5180   -3.7921    1.6621 H   0  0  0  0  0  0  0  0  0  0  0  0
    1.8270   -3.8136   -3.0692 H   0  0  0  0  0  0  0  0  0  0  0  0
  1  9  2  0
  1  2  1  0
  1 10  1  0
  2  3  2  0
  2 11  1  0
  3  4  1  0
  4  8  1  0
  4  5  1  0
  5  6  2  0
  5 12  1  0
  6  7  1  0
  6 13  1  0
  7  8  2  0
  8  9  1  0
  9 14  1  0
M  END
>  <i_m_ct_stereo_status>  (245) 
1

>  <s_m_source_file>  (245) 
/var/tmp/pbs.5076255.sched01/tmpos3i1bch/920fm1no0n.sdf

>  <i_m_source_file_index>  (245) 
10

>  <i_lp_mmshare_version>  (245) 
48012

>  <i_f3d_flags>  (245) 
0

>  <s_epik_input>  (245) 
bjFbY0hdW2NIXVtjSF1jKG4xMiluW2NIXVtjSF0y

>  <s_epik_cmdline>  (245) 
J2VwaWtfcHl0aG9uJywgJy1waHQnLCAnMi4wJywgJy1waCcsICc3LjAnLCAnLXRuJywgJzgnLCAnLW1hJywgJzIwMCcsICctaW1hZScsICc8aW5maWxlLm1hZT4nLCAnLW9tYWUnLCAnPG91dGZpbGUubWFlPic=

>  <r_lp_tautomer_probability>  (245) 
1

>  <r_epik_Ionization_Penalty>  (245) 
0.00304482

>  <r_epik_Ionization_Penalty_Charging>  (245) 
0

>  <r_epik_Ionization_Penalty_Neutral>  (245) 
0.00304482

>  <r_epik_State_Penalty>  (245) 
0.00214

>  <r_epik_Charging_Adjusted_Penalty>  (245) 
0.00214

>  <i_epik_Tot_Q>  (245) 
0

>  <i_epik_Tot_abs_Q>  (245) 
0

>  <s_lp_Force_Field>  (245) 
OPLS3e

>  <r_lp_Energy>  (245) 
13.0914

>  <b_lp_Chiralities_Consistent>  (245) 
1

>  <s_lp_Variant>  (245) 
71:0-1

>  <s_i_glide_gridfile>  (245) 
pfpi4k_grid

>  <i_i_glide_lignum>  (245) 
10

>  <i_i_glide_rotatable_bonds>  (245) 
0

>  <r_i_docking_score>  (245) 
-3.65439

>  <r_i_glide_ligand_efficiency>  (245) 
-0.406043

>  <r_i_glide_ligand_efficiency_sa>  (245) 
-0.844604

>  <r_i_glide_ligand_efficiency_ln>  (245) 
-1.14299

>  <r_i_glide_gscore>  (245) 
-3.65439

>  <r_i_glide_lipo>  (245) 
-0.361239

>  <r_i_glide_hbond>  (245) 
0

>  <r_i_glide_metal>  (245) 
-0

>  <r_i_glide_rewards>  (245) 
-2.26252

>  <r_i_glide_evdw>  (245) 
-15.5884

>  <r_i_glide_ecoul>  (245) 
-1.38611

>  <r_i_glide_erotb>  (245) 
0

>  <r_i_glide_esite>  (245) 
-0.0432919

>  <r_i_glide_emodel>  (245) 
-21.5429

>  <r_i_glide_energy>  (245) 
-16.9745

>  <r_i_glide_einternal>  (245) 
0

>  <r_i_glide_intrahb_reward>  (245) 
-0

>  <i_i_glide_confnum>  (245) 
2

>  <i_i_glide_posenum>  (245) 
23

>  <r_i_glide_eff_state_penalty>  (245) 
0

>  <ligand_id>  (245) 
71

>  <original_smiles>  (245) 
c1cnn2ccnc2c1

>  <smiles>  (245) 
[H]c1nn2c([H])c([H])nc2c([H])c1[H]

$$$$
72:0:0
     RDKit          3D

 19 20  0  0  1  0  0  0  0  0999 V2000
    1.1717   -3.8866   -1.5259 O   0  0  0  0  0  0  0  0  0  0  0  0
    2.5049   -3.4033   -1.5694 C   0  0  0  0  0  0  0  0  0  0  0  0
    2.7828   -2.6303   -2.8878 C   0  0  0  0  0  0  0  0  0  0  0  0
    3.1142   -1.1659   -2.7052 C   0  0  2  0  0  0  0  0  0  0  0  0
    3.5041   -0.7345   -4.1012 C   0  0  0  0  0  0  0  0  0  0  0  0
    4.2075   -1.8822   -4.5173 O   0  0  0  0  0  0  0  0  0  0  0  0
    4.1633   -2.8218   -3.4632 C   0  0  1  0  0  0  0  0  0  0  0  0
    5.0753   -2.2669   -2.3796 C   0  0  0  0  0  0  0  0  0  0  0  0
    4.3260   -1.1441   -1.9638 O   0  0  0  0  0  0  0  0  0  0  0  0
    0.9423   -4.1838   -2.3945 H   0  0  0  0  0  0  0  0  0  0  0  0
    2.7218   -2.7835   -0.6960 H   0  0  0  0  0  0  0  0  0  0  0  0
    3.1649   -4.2580   -1.4950 H   0  0  0  0  0  0  0  0  0  0  0  0
    2.0252   -2.8071   -3.6599 H   0  0  0  0  0  0  0  0  0  0  0  0
    2.3256   -0.5497   -2.2966 H   0  0  0  0  0  0  0  0  0  0  0  0
    2.6368   -0.5970   -4.7390 H   0  0  0  0  0  0  0  0  0  0  0  0
    4.1407    0.1448   -4.1228 H   0  0  0  0  0  0  0  0  0  0  0  0
    4.4056   -3.8271   -3.8016 H   0  0  0  0  0  0  0  0  0  0  0  0
    5.1837   -2.9669   -1.5569 H   0  0  0  0  0  0  0  0  0  0  0  0
    6.0675   -1.9979   -2.7158 H   0  0  0  0  0  0  0  0  0  0  0  0
  1  2  1  0
  1 10  1  0
  2  3  1  0
  2 11  1  0
  2 12  1  0
  3  7  1  0
  3  4  1  0
  3 13  1  0
  4  9  1  0
  4  5  1  0
  4 14  1  1
  5  6  1  0
  5 15  1  0
  5 16  1  0
  6  7  1  0
  7  8  1  0
  7 17  1  6
  8  9  1  0
  8 18  1  0
  8 19  1  0
M  END
>  <i_m_ct_stereo_status>  (246) 
1

>  <s_m_source_file>  (246) 
/var/tmp/pbs.5076255.sched01/tmpos3i1bch/920fm1no0n.sdf

>  <i_m_source_file_index>  (246) 
11

>  <i_lp_mmshare_version>  (246) 
48012

>  <i_f3d_flags>  (246) 
0

>  <s_epik_input>  (246) 
W09IXVtDSDJdW0NASF0oW0NASF0xMilbQ0BIXShbQ0gyXU8yKU9bQ0gyXTE=

>  <s_epik_cmdline>  (246) 
J2VwaWtfcHl0aG9uJywgJy1waHQnLCAnMi4wJywgJy1waCcsICc3LjAnLCAnLXRuJywgJzgnLCAnLW1hJywgJzIwMCcsICctaW1hZScsICc8aW5maWxlLm1hZT4nLCAnLW9tYWUnLCAnPG91dGZpbGUubWFlPic=

>  <r_lp_tautomer_probability>  (246) 
1

>  <r_epik_Ionization_Penalty>  (246) 
5.99814e-08

>  <r_epik_Ionization_Penalty_Charging>  (246) 
0

>  <r_epik_Ionization_Penalty_Neutral>  (246) 
5.99814e-08

>  <r_epik_State_Penalty>  (246) 
-0

>  <r_epik_Charging_Adjusted_Penalty>  (246) 
0

>  <i_epik_Tot_Q>  (246) 
0

>  <i_epik_Tot_abs_Q>  (246) 
0

>  <s_lp_Force_Field>  (246) 
OPLS3e

>  <r_lp_Energy>  (246) 
10.7326

>  <b_lp_Chiralities_Consistent>  (246) 
1

>  <s_lp_Variant>  (246) 
72:0-1

>  <s_i_glide_gridfile>  (246) 
pfpi4k_grid

>  <i_i_glide_lignum>  (246) 
11

>  <i_i_glide_rotatable_bonds>  (246) 
2

>  <r_i_docking_score>  (246) 
-5.2564

>  <r_i_glide_ligand_efficiency>  (246) 
-0.584044

>  <r_i_glide_ligand_efficiency_sa>  (246) 
-1.21486

>  <r_i_glide_ligand_efficiency_ln>  (246) 
-1.64405

>  <r_i_glide_gscore>  (246) 
-5.2564

>  <r_i_glide_lipo>  (246) 
-0.603335

>  <r_i_glide_hbond>  (246) 
-0.632284

>  <r_i_glide_metal>  (246) 
-0

>  <r_i_glide_rewards>  (246) 
-2.25

>  <r_i_glide_evdw>  (246) 
-9.76635

>  <r_i_glide_ecoul>  (246) 
-8.54974

>  <r_i_glide_erotb>  (246) 
0

>  <r_i_glide_esite>  (246) 
0

>  <r_i_glide_emodel>  (246) 
-24.1473

>  <r_i_glide_energy>  (246) 
-18.3161

>  <r_i_glide_einternal>  (246) 
1.76678

>  <r_i_glide_intrahb_reward>  (246) 
-0

>  <i_i_glide_confnum>  (246) 
2

>  <i_i_glide_posenum>  (246) 
14

>  <r_i_glide_eff_state_penalty>  (246) 
0

>  <ligand_id>  (246) 
72

>  <original_smiles>  (246) 
OCC1C2COC1CO2

>  <smiles>  (246) 
[H]OC([H])([H])C1([H])C2([H])OC([H])([H])C1([H])OC2([H])[H]

$$$$
72:0:1
     RDKit          3D

 19 20  0  0  1  0  0  0  0  0999 V2000
    2.1707   -4.3532   -0.6573 O   0  0  0  0  0  0  0  0  0  0  0  0
    3.0470   -3.2534   -0.6500 C   0  0  0  0  0  0  0  0  0  0  0  0
    3.0248   -2.5280   -2.0132 C   0  0  0  0  0  0  0  0  0  0  0  0
    3.9771   -1.3675   -2.1218 C   0  0  2  0  0  0  0  0  0  0  0  0
    3.7671   -0.9222   -3.5665 C   0  0  0  0  0  0  0  0  0  0  0  0
    3.6111   -2.1729   -4.2264 O   0  0  0  0  0  0  0  0  0  0  0  0
    3.6966   -3.1706   -3.2079 C   0  0  1  0  0  0  0  0  0  0  0  0
    5.1658   -3.2001   -2.7970 C   0  0  0  0  0  0  0  0  0  0  0  0
    5.2735   -1.9700   -2.0820 O   0  0  0  0  0  0  0  0  0  0  0  0
    2.4507   -4.9445   -1.3676 H   0  0  0  0  0  0  0  0  0  0  0  0
    2.7438   -2.5776    0.1494 H   0  0  0  0  0  0  0  0  0  0  0  0
    4.0241   -3.6205   -0.3508 H   0  0  0  0  0  0  0  0  0  0  0  0
    2.0021   -2.2550   -2.2751 H   0  0  0  0  0  0  0  0  0  0  0  0
    3.8742   -0.5880   -1.3716 H   0  0  0  0  0  0  0  0  0  0  0  0
    2.8622   -0.3343   -3.6911 H   0  0  0  0  0  0  0  0  0  0  0  0
    4.6058   -0.3750   -3.9780 H   0  0  0  0  0  0  0  0  0  0  0  0
    3.2740   -4.0992   -3.5708 H   0  0  0  0  0  0  0  0  0  0  0  0
    5.3724   -4.0238   -2.1238 H   0  0  0  0  0  0  0  0  0  0  0  0
    5.8627   -3.2456   -3.6253 H   0  0  0  0  0  0  0  0  0  0  0  0
  1  2  1  0
  1 10  1  0
  2  3  1  0
  2 11  1  0
  2 12  1  0
  3  7  1  0
  3  4  1  0
  3 13  1  0
  4  9  1  0
  4  5  1  0
  4 14  1  1
  5  6  1  0
  5 15  1  0
  5 16  1  0
  6  7  1  0
  7  8  1  0
  7 17  1  6
  8  9  1  0
  8 18  1  0
  8 19  1  0
M  END
>  <i_m_ct_stereo_status>  (247) 
1

>  <s_m_source_file>  (247) 
/var/tmp/pbs.5076255.sched01/tmpos3i1bch/920fm1no0n.sdf

>  <i_m_source_file_index>  (247) 
11

>  <i_lp_mmshare_version>  (247) 
48012

>  <i_f3d_flags>  (247) 
0

>  <s_epik_input>  (247) 
W09IXVtDSDJdW0NASF0oW0NASF0xMilbQ0BIXShbQ0gyXU8yKU9bQ0gyXTE=

>  <s_epik_cmdline>  (247) 
J2VwaWtfcHl0aG9uJywgJy1waHQnLCAnMi4wJywgJy1waCcsICc3LjAnLCAnLXRuJywgJzgnLCAnLW1hJywgJzIwMCcsICctaW1hZScsICc8aW5maWxlLm1hZT4nLCAnLW9tYWUnLCAnPG91dGZpbGUubWFlPic=

>  <r_lp_tautomer_probability>  (247) 
1

>  <r_epik_Ionization_Penalty>  (247) 
5.99814e-08

>  <r_epik_Ionization_Penalty_Charging>  (247) 
0

>  <r_epik_Ionization_Penalty_Neutral>  (247) 
5.99814e-08

>  <r_epik_State_Penalty>  (247) 
-0

>  <r_epik_Charging_Adjusted_Penalty>  (247) 
0

>  <i_epik_Tot_Q>  (247) 
0

>  <i_epik_Tot_abs_Q>  (247) 
0

>  <s_lp_Force_Field>  (247) 
OPLS3e

>  <r_lp_Energy>  (247) 
10.7326

>  <b_lp_Chiralities_Consistent>  (247) 
1

>  <s_lp_Variant>  (247) 
72:0-1

>  <s_i_glide_gridfile>  (247) 
pfpi4k_grid

>  <i_i_glide_lignum>  (247) 
11

>  <i_i_glide_rotatable_bonds>  (247) 
2

>  <r_i_docking_score>  (247) 
-5.16537

>  <r_i_glide_ligand_efficiency>  (247) 
-0.57393

>  <r_i_glide_ligand_efficiency_sa>  (247) 
-1.19382

>  <r_i_glide_ligand_efficiency_ln>  (247) 
-1.61558

>  <r_i_glide_gscore>  (247) 
-5.16537

>  <r_i_glide_lipo>  (247) 
-0.559774

>  <r_i_glide_hbond>  (247) 
-0.608

>  <r_i_glide_metal>  (247) 
-0

>  <r_i_glide_rewards>  (247) 
-2.25

>  <r_i_glide_evdw>  (247) 
-11.9628

>  <r_i_glide_ecoul>  (247) 
-7.66302

>  <r_i_glide_erotb>  (247) 
0

>  <r_i_glide_esite>  (247) 
0

>  <r_i_glide_emodel>  (247) 
-26.2403

>  <r_i_glide_energy>  (247) 
-19.6259

>  <r_i_glide_einternal>  (247) 
0.869465

>  <r_i_glide_intrahb_reward>  (247) 
-0

>  <i_i_glide_confnum>  (247) 
2

>  <i_i_glide_posenum>  (247) 
33

>  <r_i_glide_eff_state_penalty>  (247) 
0

>  <ligand_id>  (247) 
72

>  <original_smiles>  (247) 
OCC1C2COC1CO2

>  <smiles>  (247) 
[H]OC([H])([H])C1([H])C2([H])OC([H])([H])C1([H])OC2([H])[H]

$$$$
72:0:2
     RDKit          3D

 19 20  0  0  1  0  0  0  0  0999 V2000
    2.2195   -4.2966   -0.6722 O   0  0  0  0  0  0  0  0  0  0  0  0
    2.6169   -2.9745   -0.9277 C   0  0  0  0  0  0  0  0  0  0  0  0
    4.1395   -2.8976   -1.1211 C   0  0  0  0  0  0  0  0  0  0  0  0
    4.6375   -3.2801   -2.4907 C   0  0  2  0  0  0  0  0  0  0  0  0
    6.1226   -2.9833   -2.3612 C   0  0  0  0  0  0  0  0  0  0  0  0
    6.1076   -1.8091   -1.5562 O   0  0  0  0  0  0  0  0  0  0  0  0
    4.7372   -1.5214   -1.2961 C   0  0  1  0  0  0  0  0  0  0  0  0
    4.1203   -1.0623   -2.6215 C   0  0  0  0  0  0  0  0  0  0  0  0
    4.1123   -2.2802   -3.3586 O   0  0  0  0  0  0  0  0  0  0  0  0
    2.5080   -4.8432   -1.4065 H   0  0  0  0  0  0  0  0  0  0  0  0
    2.0682   -2.6540   -1.8117 H   0  0  0  0  0  0  0  0  0  0  0  0
    2.2970   -2.3466   -0.0962 H   0  0  0  0  0  0  0  0  0  0  0  0
    4.6373   -3.4388   -0.3130 H   0  0  0  0  0  0  0  0  0  0  0  0
    4.4061   -4.2890   -2.8268 H   0  0  0  0  0  0  0  0  0  0  0  0
    6.6454   -3.7736   -1.8307 H   0  0  0  0  0  0  0  0  0  0  0  0
    6.5836   -2.8280   -3.3261 H   0  0  0  0  0  0  0  0  0  0  0  0
    4.6086   -0.8307   -0.4595 H   0  0  0  0  0  0  0  0  0  0  0  0
    3.0980   -0.7152   -2.4816 H   0  0  0  0  0  0  0  0  0  0  0  0
    4.6807   -0.2792   -3.1206 H   0  0  0  0  0  0  0  0  0  0  0  0
  1  2  1  0
  1 10  1  0
  2  3  1  0
  2 11  1  0
  2 12  1  0
  3  7  1  0
  3  4  1  0
  3 13  1  0
  4  9  1  0
  4  5  1  0
  4 14  1  6
  5  6  1  0
  5 15  1  0
  5 16  1  0
  6  7  1  0
  7  8  1  0
  7 17  1  1
  8  9  1  0
  8 18  1  0
  8 19  1  0
M  END
>  <i_m_ct_stereo_status>  (248) 
1

>  <s_m_source_file>  (248) 
/var/tmp/pbs.5076255.sched01/tmpos3i1bch/920fm1no0n.sdf

>  <i_m_source_file_index>  (248) 
11

>  <i_lp_mmshare_version>  (248) 
48012

>  <i_f3d_flags>  (248) 
0

>  <s_epik_input>  (248) 
W09IXVtDSDJdW0NASF0oW0NASF0xMilbQ0BIXShbQ0gyXU8yKU9bQ0gyXTE=

>  <s_epik_cmdline>  (248) 
J2VwaWtfcHl0aG9uJywgJy1waHQnLCAnMi4wJywgJy1waCcsICc3LjAnLCAnLXRuJywgJzgnLCAnLW1hJywgJzIwMCcsICctaW1hZScsICc8aW5maWxlLm1hZT4nLCAnLW9tYWUnLCAnPG91dGZpbGUubWFlPic=

>  <r_lp_tautomer_probability>  (248) 
1

>  <r_epik_Ionization_Penalty>  (248) 
5.99814e-08

>  <r_epik_Ionization_Penalty_Charging>  (248) 
0

>  <r_epik_Ionization_Penalty_Neutral>  (248) 
5.99814e-08

>  <r_epik_State_Penalty>  (248) 
-0

>  <r_epik_Charging_Adjusted_Penalty>  (248) 
0

>  <i_epik_Tot_Q>  (248) 
0

>  <i_epik_Tot_abs_Q>  (248) 
0

>  <s_lp_Force_Field>  (248) 
OPLS3e

>  <r_lp_Energy>  (248) 
10.7326

>  <b_lp_Chiralities_Consistent>  (248) 
1

>  <s_lp_Variant>  (248) 
72:0-1

>  <s_i_glide_gridfile>  (248) 
pfpi4k_grid

>  <i_i_glide_lignum>  (248) 
11

>  <i_i_glide_rotatable_bonds>  (248) 
2

>  <r_i_docking_score>  (248) 
-4.58852

>  <r_i_glide_ligand_efficiency>  (248) 
-0.509835

>  <r_i_glide_ligand_efficiency_sa>  (248) 
-1.0605

>  <r_i_glide_ligand_efficiency_ln>  (248) 
-1.43516

>  <r_i_glide_gscore>  (248) 
-4.58852

>  <r_i_glide_lipo>  (248) 
-0.198646

>  <r_i_glide_hbond>  (248) 
-0.452078

>  <r_i_glide_metal>  (248) 
-0

>  <r_i_glide_rewards>  (248) 
-2.25

>  <r_i_glide_evdw>  (248) 
-10.1395

>  <r_i_glide_ecoul>  (248) 
-7.87211

>  <r_i_glide_erotb>  (248) 
0

>  <r_i_glide_esite>  (248) 
0

>  <r_i_glide_emodel>  (248) 
-24.2682

>  <r_i_glide_energy>  (248) 
-18.0116

>  <r_i_glide_einternal>  (248) 
0.0242704

>  <r_i_glide_intrahb_reward>  (248) 
-0

>  <i_i_glide_confnum>  (248) 
2

>  <i_i_glide_posenum>  (248) 
18

>  <r_i_glide_eff_state_penalty>  (248) 
0

>  <ligand_id>  (248) 
72

>  <original_smiles>  (248) 
OCC1C2COC1CO2

>  <smiles>  (248) 
[H]OC([H])([H])C1([H])C2([H])OC([H])([H])C1([H])OC2([H])[H]

$$$$
73:0:0
     RDKit          3D

 73 79  0  0  1  0  0  0  0  0999 V2000
    0.9442   -6.4323    1.0369 C   0  0  0  0  0  0  0  0  0  0  0  0
    1.0974   -7.5534    2.0765 C   0  0  2  0  0  0  0  0  0  0  0  0
    0.1007   -7.3916    3.2598 C   0  0  0  0  0  0  0  0  0  0  0  0
    0.5837   -8.1133    4.5470 C   0  0  1  0  0  0  0  0  0  0  0  0
    0.7755   -9.6130    4.1948 C   0  0  0  0  0  0  0  0  0  0  0  0
    2.2941   -9.8640    4.0160 C   0  0  2  0  0  0  0  0  0  0  0  0
    2.4745  -10.6350    2.6804 C   0  0  0  0  0  0  0  0  0  0  0  0
    2.8710  -10.8074    5.1740 C   0  0  1  0  0  0  0  0  0  0  0  0
    3.9634  -11.8289    4.7237 C   0  0  0  0  0  0  0  0  0  0  0  0
    3.3222  -10.1762    6.5394 C   0  0  1  0  0  0  0  0  0  0  0  0
    4.6441   -9.7443    6.2995 O   0  0  0  0  0  0  0  0  0  0  0  0
    2.3411   -9.1507    7.2258 C   0  0  1  0  0  0  0  0  0  0  0  0
    1.1081   -9.8491    7.0844 O   0  0  0  0  0  0  0  0  0  0  0  0
    2.3243   -8.8297    8.7921 C   0  0  1  0  0  0  0  0  0  0  0  0
    2.0740   -9.9938    9.5736 O   0  0  0  0  0  0  0  0  0  0  0  0
    3.5392   -8.1036    9.5049 C   0  0  1  0  0  0  0  0  0  0  0  0
    4.8171   -8.0401    8.7318 C   0  0  0  0  0  0  0  0  0  0  0  0
    4.4990   -6.8969    7.7847 C   0  0  1  0  0  0  0  0  0  0  0  0
    3.6562   -7.1736    6.6424 O   0  0  0  0  0  0  0  0  0  0  0  0
    2.3071   -7.7197    6.5978 C   0  0  2  0  0  0  0  0  0  0  0  0
    1.2879   -6.9750    7.5794 C   0  0  2  0  0  0  0  0  0  0  0  0
    1.4655   -5.4730    7.9226 C   0  0  0  0  0  0  0  0  0  0  0  0
    2.8836   -4.9224    8.1040 C   0  0  0  0  0  0  0  0  0  0  0  0
    3.9067   -5.8715    8.7581 C   0  0  2  0  0  0  0  0  0  0  0  0
    4.9970   -5.0211    9.4500 C   0  0  0  0  0  0  0  0  0  0  0  0
    3.3366   -6.6974    9.7749 O   0  0  0  0  0  0  0  0  0  0  0  0
    1.1420   -7.8193    8.8828 C   0  0  1  0  0  0  0  0  0  0  0  0
   -0.1526   -8.3944    8.9554 O   0  0  0  0  0  0  0  0  0  0  0  0
    1.9647   -7.5486    5.0213 C   0  0  2  0  0  0  0  0  0  0  0  0
    2.0630   -5.9995    4.7705 C   0  0  0  0  0  0  0  0  0  0  0  0
    2.8066   -8.3677    3.9557 C   0  0  1  0  0  0  0  0  0  0  0  0
    4.2055   -8.2963    4.1169 O   0  0  0  0  0  0  0  0  0  0  0  0
    2.5847   -7.7308    2.5266 C   0  0  0  0  0  0  0  0  0  0  0  0
    1.2229   -5.4755    1.4736 H   0  0  0  0  0  0  0  0  0  0  0  0
   -0.0811   -6.3725    0.6768 H   0  0  0  0  0  0  0  0  0  0  0  0
    1.5870   -6.5921    0.1733 H   0  0  0  0  0  0  0  0  0  0  0  0
    0.7978   -8.4574    1.5523 H   0  0  0  0  0  0  0  0  0  0  0  0
   -0.1258   -6.3413    3.4546 H   0  0  0  0  0  0  0  0  0  0  0  0
   -0.8583   -7.8166    2.9629 H   0  0  0  0  0  0  0  0  0  0  0  0
   -0.1931   -8.0205    5.3023 H   0  0  0  0  0  0  0  0  0  0  0  0
    0.3087  -10.2749    4.9167 H   0  0  0  0  0  0  0  0  0  0  0  0
    0.2276   -9.8643    3.2885 H   0  0  0  0  0  0  0  0  0  0  0  0
    3.5164  -10.6961    2.3657 H   0  0  0  0  0  0  0  0  0  0  0  0
    1.9324  -10.2075    1.8466 H   0  0  0  0  0  0  0  0  0  0  0  0
    2.0788  -11.6459    2.7692 H   0  0  0  0  0  0  0  0  0  0  0  0
    2.0478  -11.4790    5.4206 H   0  0  0  0  0  0  0  0  0  0  0  0
    4.8144  -11.3417    4.2488 H   0  0  0  0  0  0  0  0  0  0  0  0
    3.5808  -12.5764    4.0324 H   0  0  0  0  0  0  0  0  0  0  0  0
    4.3357  -12.3982    5.5742 H   0  0  0  0  0  0  0  0  0  0  0  0
    3.4290  -11.0100    7.2392 H   0  0  0  0  0  0  0  0  0  0  0  0
    5.1573  -10.5112    6.0679 H   0  0  0  0  0  0  0  0  0  0  0  0
    1.2357  -10.7969    7.2669 H   0  0  0  0  0  0  0  0  0  0  0  0
    1.7691  -10.6897    9.0040 H   0  0  0  0  0  0  0  0  0  0  0  0
    3.7190   -8.5625   10.4768 H   0  0  0  0  0  0  0  0  0  0  0  0
    5.6141   -7.7285    9.4041 H   0  0  0  0  0  0  0  0  0  0  0  0
    5.1659   -8.9833    8.3564 H   0  0  0  0  0  0  0  0  0  0  0  0
    5.4260   -6.5043    7.3671 H   0  0  0  0  0  0  0  0  0  0  0  0
    0.3073   -7.0187    7.1159 H   0  0  0  0  0  0  0  0  0  0  0  0
    0.9464   -4.8424    7.2109 H   0  0  0  0  0  0  0  0  0  0  0  0
    0.9249   -5.2771    8.8473 H   0  0  0  0  0  0  0  0  0  0  0  0
    3.2823   -4.5859    7.1490 H   0  0  0  0  0  0  0  0  0  0  0  0
    2.8000   -4.0159    8.7031 H   0  0  0  0  0  0  0  0  0  0  0  0
    5.5098   -4.3814    8.7336 H   0  0  0  0  0  0  0  0  0  0  0  0
    5.7485   -5.6279    9.9459 H   0  0  0  0  0  0  0  0  0  0  0  0
    4.5570   -4.3813   10.2122 H   0  0  0  0  0  0  0  0  0  0  0  0
    1.1629   -7.2251    9.7958 H   0  0  0  0  0  0  0  0  0  0  0  0
   -0.1675   -9.0321    8.2444 H   0  0  0  0  0  0  0  0  0  0  0  0
    3.0167   -5.5800    5.0844 H   0  0  0  0  0  0  0  0  0  0  0  0
    1.2623   -5.4789    5.2783 H   0  0  0  0  0  0  0  0  0  0  0  0
    1.9570   -5.6553    3.7508 H   0  0  0  0  0  0  0  0  0  0  0  0
    4.4087   -8.6949    4.9621 H   0  0  0  0  0  0  0  0  0  0  0  0
    3.1006   -8.3201    1.7679 H   0  0  0  0  0  0  0  0  0  0  0  0
    3.1119   -6.7811    2.4490 H   0  0  0  0  0  0  0  0  0  0  0  0
  1  2  1  0
  1 34  1  0
  1 35  1  0
  1 36  1  0
  2 33  1  0
  2  3  1  0
  2 37  1  6
  3  4  1  0
  3 38  1  0
  3 39  1  0
  4 29  1  0
  4  5  1  0
  4 40  1  1
  5  6  1  0
  5 41  1  0
  5 42  1  0
  6 31  1  0
  6  7  1  6
  6  8  1  0
  7 43  1  0
  7 44  1  0
  7 45  1  0
  8  9  1  0
  8 10  1  0
  8 46  1  1
  9 47  1  0
  9 48  1  0
  9 49  1  0
 10 11  1  0
 10 12  1  0
 10 50  1  1
 11 51  1  0
 12 20  1  0
 12 13  1  6
 12 14  1  0
 13 52  1  0
 14 27  1  0
 14 15  1  1
 14 16  1  0
 15 53  1  0
 16 26  1  0
 16 17  1  0
 16 54  1  1
 17 18  1  0
 17 55  1  0
 17 56  1  0
 18 24  1  0
 18 19  1  0
 18 57  1  6
 20 19  1  6
 20 21  1  0
 20 29  1  0
 21 22  1  0
 21 27  1  0
 21 58  1  6
 22 23  1  0
 22 59  1  0
 22 60  1  0
 23 24  1  0
 23 61  1  0
 23 62  1  0
 24 25  1  1
 24 26  1  0
 25 63  1  0
 25 64  1  0
 25 65  1  0
 27 28  1  0
 27 66  1  1
 28 67  1  0
 29 30  1  6
 29 31  1  0
 30 68  1  0
 30 69  1  0
 30 70  1  0
 31 32  1  1
 31 33  1  0
 32 71  1  0
 33 72  1  0
 33 73  1  0
M  END
>  <i_m_ct_stereo_status>  (249) 
1

>  <s_m_source_file>  (249) 
/var/tmp/pbs.5076255.sched01/tmpos3i1bch/920fm1no0n.sdf

>  <i_m_source_file_index>  (249) 
12

>  <i_lp_mmshare_version>  (249) 
48012

>  <i_f3d_flags>  (249) 
0

>  <s_epik_input>  (249) 
W0NIM11bQ0BASF0oW0NIMl0xKVtDSDJdW0NAQEhdKFtDSDJdMilbQ0BdMyhbQ0gzXSlbQ0BAXTEoW09IXSlbQ0BAXTIoW0NIM10pW0NAQEhdKFtDSDNdKVtDQEBIXShbT0hdKVtDQEBdKFtDQF0zNDUpKFtPSF0pW0NAQF02KFtPSF0pW0NASF03W0NIMl1bQ0BASF0oTzQpW0NAQF0oTzcpKFtDSDNdKVtDSDJdW0NIMl1bQ0BASF01W0NASF02W09IXQ==

>  <s_epik_cmdline>  (249) 
J2VwaWtfcHl0aG9uJywgJy1waHQnLCAnMi4wJywgJy1waCcsICc3LjAnLCAnLXRuJywgJzgnLCAnLW1hJywgJzIwMCcsICctaW1hZScsICc8aW5maWxlLm1hZT4nLCAnLW9tYWUnLCAnPG91dGZpbGUubWFlPic=

>  <r_lp_tautomer_probability>  (249) 
1

>  <r_epik_Ionization_Penalty>  (249) 
9.44463e-07

>  <r_epik_Ionization_Penalty_Charging>  (249) 
0

>  <r_epik_Ionization_Penalty_Neutral>  (249) 
9.44463e-07

>  <r_epik_State_Penalty>  (249) 
-0

>  <r_epik_Charging_Adjusted_Penalty>  (249) 
0

>  <i_epik_Tot_Q>  (249) 
0

>  <i_epik_Tot_abs_Q>  (249) 
0

>  <s_lp_Force_Field>  (249) 
OPLS3e

>  <r_lp_Energy>  (249) 
147.059

>  <b_lp_Chiralities_Consistent>  (249) 
1

>  <s_lp_Variant>  (249) 
73:0-1

>  <s_i_glide_gridfile>  (249) 
pfpi4k_grid

>  <i_i_glide_lignum>  (249) 
12

>  <i_i_glide_rotatable_bonds>  (249) 
5

>  <r_i_docking_score>  (249) 
-3.96039

>  <r_i_glide_ligand_efficiency>  (249) 
-0.120012

>  <r_i_glide_ligand_efficiency_sa>  (249) 
-0.384942

>  <r_i_glide_ligand_efficiency_ln>  (249) 
-0.88077

>  <r_i_glide_gscore>  (249) 
-3.96039

>  <r_i_glide_lipo>  (249) 
0

>  <r_i_glide_hbond>  (249) 
0

>  <r_i_glide_metal>  (249) 
-0

>  <r_i_glide_rewards>  (249) 
-1.24142

>  <r_i_glide_evdw>  (249) 
-19.7681

>  <r_i_glide_ecoul>  (249) 
-11.5371

>  <r_i_glide_erotb>  (249) 
0

>  <r_i_glide_esite>  (249) 
0

>  <r_i_glide_emodel>  (249) 
-49.5254

>  <r_i_glide_energy>  (249) 
-31.3052

>  <r_i_glide_einternal>  (249) 
1.56181

>  <r_i_glide_intrahb_reward>  (249) 
-1

>  <i_i_glide_confnum>  (249) 
2

>  <i_i_glide_posenum>  (249) 
1

>  <r_i_glide_eff_state_penalty>  (249) 
0

>  <ligand_id>  (249) 
73

>  <original_smiles>  (249) 
CC1CC2CC3(C)C(C)C(O)C4(O)C5(O)C6CC7OC4(C(CCC7(C)O6)C5O)C2(C)C3(O)C1

>  <smiles>  (249) 
[H]OC1([H])C2([H])C([H])([H])C([H])([H])C3(C([H])([H])[H])OC4([H])C([H])([H])C3([H])OC23C(O[H])(C([H])(O[H])C([H])(C([H])([H])[H])C2(C([H])([H])[H])C([H])([H])C5([H])C([H])([H])C([H])(C([H])([H])[H])C([H])([H])C2(O[H])C53C([H])([H])[H])C41O[H]

$$$$
73:0:1
     RDKit          3D

 73 79  0  0  1  0  0  0  0  0999 V2000
    0.3452   -4.0015    6.7667 C   0  0  0  0  0  0  0  0  0  0  0  0
    0.3287   -5.4645    6.3009 C   0  0  2  0  0  0  0  0  0  0  0  0
    1.3280   -6.3327    7.1094 C   0  0  0  0  0  0  0  0  0  0  0  0
    1.7752   -7.6063    6.3390 C   0  0  1  0  0  0  0  0  0  0  0  0
    0.4987   -8.4143    5.9879 C   0  0  0  0  0  0  0  0  0  0  0  0
    0.1585   -8.1543    4.5018 C   0  0  2  0  0  0  0  0  0  0  0  0
   -1.3501   -7.7830    4.4234 C   0  0  0  0  0  0  0  0  0  0  0  0
    0.3569   -9.4839    3.6376 C   0  0  1  0  0  0  0  0  0  0  0  0
   -0.6894   -9.6890    2.4980 C   0  0  0  0  0  0  0  0  0  0  0  0
    1.7657   -9.8428    3.0576 C   0  0  1  0  0  0  0  0  0  0  0  0
    1.8579   -9.0974    1.8618 O   0  0  0  0  0  0  0  0  0  0  0  0
    2.9943   -9.7496    4.0433 C   0  0  1  0  0  0  0  0  0  0  0  0
    2.4769  -10.3779    5.2103 O   0  0  0  0  0  0  0  0  0  0  0  0
    4.3498  -10.5657    3.8715 C   0  0  1  0  0  0  0  0  0  0  0  0
    4.1195  -11.9678    3.8387 O   0  0  0  0  0  0  0  0  0  0  0  0
    5.3537  -10.2797    2.6895 C   0  0  1  0  0  0  0  0  0  0  0  0
    4.8045   -9.4497    1.5731 C   0  0  0  0  0  0  0  0  0  0  0  0
    4.8996   -8.0699    2.1869 C   0  0  1  0  0  0  0  0  0  0  0  0
    3.8920   -7.6765    3.1423 O   0  0  0  0  0  0  0  0  0  0  0  0
    3.5094   -8.3230    4.3901 C   0  0  2  0  0  0  0  0  0  0  0  0
    4.7499   -8.6664    5.3456 C   0  0  2  0  0  0  0  0  0  0  0  0
    6.0240   -7.7760    5.3304 C   0  0  0  0  0  0  0  0  0  0  0  0
    6.5067   -7.2108    3.9910 C   0  0  0  0  0  0  0  0  0  0  0  0
    6.3159   -8.1209    2.7707 C   0  0  2  0  0  0  0  0  0  0  0  0
    7.3837   -7.7383    1.7270 C   0  0  0  0  0  0  0  0  0  0  0  0
    6.5211   -9.5091    3.0496 O   0  0  0  0  0  0  0  0  0  0  0  0
    5.1307  -10.1691    5.1558 C   0  0  1  0  0  0  0  0  0  0  0  0
    4.8218  -10.9374    6.3056 O   0  0  0  0  0  0  0  0  0  0  0  0
    2.4733   -7.2326    4.9944 C   0  0  2  0  0  0  0  0  0  0  0  0
    3.3481   -5.9353    5.1553 C   0  0  0  0  0  0  0  0  0  0  0  0
    1.1263   -6.9377    4.2213 C   0  0  1  0  0  0  0  0  0  0  0  0
    1.2549   -6.7071    2.8405 O   0  0  0  0  0  0  0  0  0  0  0  0
    0.5230   -5.5791    4.7544 C   0  0  0  0  0  0  0  0  0  0  0  0
    1.3183   -3.5252    6.5850 H   0  0  0  0  0  0  0  0  0  0  0  0
    0.1454   -3.9184    7.8354 H   0  0  0  0  0  0  0  0  0  0  0  0
   -0.4042   -3.4046    6.2457 H   0  0  0  0  0  0  0  0  0  0  0  0
   -0.6806   -5.8277    6.5534 H   0  0  0  0  0  0  0  0  0  0  0  0
    2.1883   -5.7377    7.4578 H   0  0  0  0  0  0  0  0  0  0  0  0
    0.8478   -6.6445    8.0231 H   0  0  0  0  0  0  0  0  0  0  0  0
    2.4048   -8.1991    6.9936 H   0  0  0  0  0  0  0  0  0  0  0  0
    0.5827   -9.4633    6.2395 H   0  0  0  0  0  0  0  0  0  0  0  0
   -0.3100   -8.1177    6.6426 H   0  0  0  0  0  0  0  0  0  0  0  0
   -1.6438   -7.4218    3.4386 H   0  0  0  0  0  0  0  0  0  0  0  0
   -1.6556   -7.0171    5.1218 H   0  0  0  0  0  0  0  0  0  0  0  0
   -1.9722   -8.6435    4.6730 H   0  0  0  0  0  0  0  0  0  0  0  0
    0.0996  -10.3057    4.3125 H   0  0  0  0  0  0  0  0  0  0  0  0
   -0.7200   -8.8492    1.8059 H   0  0  0  0  0  0  0  0  0  0  0  0
   -1.6978   -9.8373    2.8779 H   0  0  0  0  0  0  0  0  0  0  0  0
   -0.4742  -10.5910    1.9336 H   0  0  0  0  0  0  0  0  0  0  0  0
    1.7253  -10.8881    2.7526 H   0  0  0  0  0  0  0  0  0  0  0  0
    1.2105   -9.4520    1.2552 H   0  0  0  0  0  0  0  0  0  0  0  0
    2.1016  -11.2281    4.9804 H   0  0  0  0  0  0  0  0  0  0  0  0
    3.7000  -12.2492    4.6500 H   0  0  0  0  0  0  0  0  0  0  0  0
    5.7344  -11.2214    2.2988 H   0  0  0  0  0  0  0  0  0  0  0  0
    5.4921   -9.5178    0.7357 H   0  0  0  0  0  0  0  0  0  0  0  0
    3.8800   -9.8110    1.1621 H   0  0  0  0  0  0  0  0  0  0  0  0
    4.8593   -7.3209    1.3914 H   0  0  0  0  0  0  0  0  0  0  0  0
    4.3983   -8.5968    6.3785 H   0  0  0  0  0  0  0  0  0  0  0  0
    5.9414   -6.9574    6.0382 H   0  0  0  0  0  0  0  0  0  0  0  0
    6.8417   -8.3647    5.7503 H   0  0  0  0  0  0  0  0  0  0  0  0
    6.0276   -6.2469    3.7957 H   0  0  0  0  0  0  0  0  0  0  0  0
    7.5671   -6.9723    4.1121 H   0  0  0  0  0  0  0  0  0  0  0  0
    7.2849   -6.6976    1.4002 H   0  0  0  0  0  0  0  0  0  0  0  0
    7.3413   -8.3693    0.8458 H   0  0  0  0  0  0  0  0  0  0  0  0
    8.3910   -7.8577    2.1253 H   0  0  0  0  0  0  0  0  0  0  0  0
    6.2123  -10.3407    5.0969 H   0  0  0  0  0  0  0  0  0  0  0  0
    3.8700  -10.9127    6.4180 H   0  0  0  0  0  0  0  0  0  0  0  0
    3.8504   -5.6410    4.2348 H   0  0  0  0  0  0  0  0  0  0  0  0
    4.0868   -6.0690    5.9355 H   0  0  0  0  0  0  0  0  0  0  0  0
    2.8416   -5.0311    5.4696 H   0  0  0  0  0  0  0  0  0  0  0  0
    1.6688   -7.4920    2.4683 H   0  0  0  0  0  0  0  0  0  0  0  0
   -0.4269   -5.4066    4.2866 H   0  0  0  0  0  0  0  0  0  0  0  0
    1.1054   -4.7227    4.3778 H   0  0  0  0  0  0  0  0  0  0  0  0
  1  2  1  0
  1 34  1  0
  1 35  1  0
  1 36  1  0
  2 33  1  0
  2  3  1  0
  2 37  1  6
  3  4  1  0
  3 38  1  0
  3 39  1  0
  4 29  1  0
  4  5  1  0
  4 40  1  1
  5  6  1  0
  5 41  1  0
  5 42  1  0
  6 31  1  0
  6  7  1  1
  6  8  1  0
  7 43  1  0
  7 44  1  0
  7 45  1  0
  8  9  1  0
  8 10  1  0
  8 46  1  1
  9 47  1  0
  9 48  1  0
  9 49  1  0
 10 11  1  0
 10 12  1  0
 10 50  1  6
 11 51  1  0
 12 20  1  0
 12 13  1  1
 12 14  1  0
 13 52  1  0
 14 27  1  0
 14 15  1  1
 14 16  1  0
 15 53  1  0
 16 26  1  0
 16 17  1  0
 16 54  1  6
 17 18  1  0
 17 55  1  0
 17 56  1  0
 18 24  1  0
 18 19  1  0
 18 57  1  6
 20 19  1  6
 20 21  1  0
 20 29  1  0
 21 22  1  0
 21 27  1  0
 21 58  1  1
 22 23  1  0
 22 59  1  0
 22 60  1  0
 23 24  1  0
 23 61  1  0
 23 62  1  0
 24 25  1  6
 24 26  1  0
 25 63  1  0
 25 64  1  0
 25 65  1  0
 27 28  1  0
 27 66  1  6
 28 67  1  0
 29 30  1  1
 29 31  1  0
 30 68  1  0
 30 69  1  0
 30 70  1  0
 31 32  1  6
 31 33  1  0
 32 71  1  0
 33 72  1  0
 33 73  1  0
M  END
>  <i_m_ct_stereo_status>  (250) 
1

>  <s_m_source_file>  (250) 
/var/tmp/pbs.5076255.sched01/tmpos3i1bch/920fm1no0n.sdf

>  <i_m_source_file_index>  (250) 
12

>  <i_lp_mmshare_version>  (250) 
48012

>  <i_f3d_flags>  (250) 
0

>  <s_epik_input>  (250) 
W0NIM11bQ0BASF0oW0NIMl0xKVtDSDJdW0NAQEhdKFtDSDJdMilbQ0BdMyhbQ0gzXSlbQ0BAXTEoW09IXSlbQ0BAXTIoW0NIM10pW0NAQEhdKFtDSDNdKVtDQEBIXShbT0hdKVtDQEBdKFtDQF0zNDUpKFtPSF0pW0NAQF02KFtPSF0pW0NASF03W0NIMl1bQ0BASF0oTzQpW0NAQF0oTzcpKFtDSDNdKVtDSDJdW0NIMl1bQ0BASF01W0NASF02W09IXQ==

>  <s_epik_cmdline>  (250) 
J2VwaWtfcHl0aG9uJywgJy1waHQnLCAnMi4wJywgJy1waCcsICc3LjAnLCAnLXRuJywgJzgnLCAnLW1hJywgJzIwMCcsICctaW1hZScsICc8aW5maWxlLm1hZT4nLCAnLW9tYWUnLCAnPG91dGZpbGUubWFlPic=

>  <r_lp_tautomer_probability>  (250) 
1

>  <r_epik_Ionization_Penalty>  (250) 
9.44463e-07

>  <r_epik_Ionization_Penalty_Charging>  (250) 
0

>  <r_epik_Ionization_Penalty_Neutral>  (250) 
9.44463e-07

>  <r_epik_State_Penalty>  (250) 
-0

>  <r_epik_Charging_Adjusted_Penalty>  (250) 
0

>  <i_epik_Tot_Q>  (250) 
0

>  <i_epik_Tot_abs_Q>  (250) 
0

>  <s_lp_Force_Field>  (250) 
OPLS3e

>  <r_lp_Energy>  (250) 
147.059

>  <b_lp_Chiralities_Consistent>  (250) 
1

>  <s_lp_Variant>  (250) 
73:0-1

>  <s_i_glide_gridfile>  (250) 
pfpi4k_grid

>  <i_i_glide_lignum>  (250) 
12

>  <i_i_glide_rotatable_bonds>  (250) 
5

>  <r_i_docking_score>  (250) 
-3.4604

>  <r_i_glide_ligand_efficiency>  (250) 
-0.104861

>  <r_i_glide_ligand_efficiency_sa>  (250) 
-0.336344

>  <r_i_glide_ligand_efficiency_ln>  (250) 
-0.769576

>  <r_i_glide_gscore>  (250) 
-3.4604

>  <r_i_glide_lipo>  (250) 
-0.190152

>  <r_i_glide_hbond>  (250) 
0

>  <r_i_glide_metal>  (250) 
-0

>  <r_i_glide_rewards>  (250) 
-1.24142

>  <r_i_glide_evdw>  (250) 
-28.4616

>  <r_i_glide_ecoul>  (250) 
-4.03831

>  <r_i_glide_erotb>  (250) 
0

>  <r_i_glide_esite>  (250) 
0

>  <r_i_glide_emodel>  (250) 
-50.406

>  <r_i_glide_energy>  (250) 
-32.5

>  <r_i_glide_einternal>  (250) 
0.551416

>  <r_i_glide_intrahb_reward>  (250) 
-1

>  <i_i_glide_confnum>  (250) 
1

>  <i_i_glide_posenum>  (250) 
4

>  <r_i_glide_eff_state_penalty>  (250) 
0

>  <ligand_id>  (250) 
73

>  <original_smiles>  (250) 
CC1CC2CC3(C)C(C)C(O)C4(O)C5(O)C6CC7OC4(C(CCC7(C)O6)C5O)C2(C)C3(O)C1

>  <smiles>  (250) 
[H]OC1([H])C2([H])C([H])([H])C([H])([H])C3(C([H])([H])[H])OC4([H])C([H])([H])C3([H])OC23C(O[H])(C([H])(O[H])C([H])(C([H])([H])[H])C2(C([H])([H])[H])C([H])([H])C5([H])C([H])([H])C([H])(C([H])([H])[H])C([H])([H])C2(O[H])C53C([H])([H])[H])C41O[H]

$$$$
73:0:2
     RDKit          3D

 73 79  0  0  1  0  0  0  0  0999 V2000
    0.3921   -4.0313    6.8134 C   0  0  0  0  0  0  0  0  0  0  0  0
    0.3759   -5.4880    6.3333 C   0  0  2  0  0  0  0  0  0  0  0  0
    1.3684   -6.3773    7.1313 C   0  0  0  0  0  0  0  0  0  0  0  0
    1.8073   -7.6462    6.3432 C   0  0  1  0  0  0  0  0  0  0  0  0
    0.5255   -8.4488    5.9987 C   0  0  0  0  0  0  0  0  0  0  0  0
    0.1785   -8.1701    4.5139 C   0  0  2  0  0  0  0  0  0  0  0  0
   -1.3306   -7.7953    4.4464 C   0  0  0  0  0  0  0  0  0  0  0  0
    0.3658   -9.4945    3.6290 C   0  0  1  0  0  0  0  0  0  0  0  0
   -0.6857   -9.6872    2.5002 C   0  0  0  0  0  0  0  0  0  0  0  0
    1.7831   -9.8502    3.0457 C   0  0  1  0  0  0  0  0  0  0  0  0
    1.8591   -9.0959    1.8439 O   0  0  0  0  0  0  0  0  0  0  0  0
    3.0148   -9.7626    4.0182 C   0  0  1  0  0  0  0  0  0  0  0  0
    2.4907  -10.4325    5.1586 O   0  0  0  0  0  0  0  0  0  0  0  0
    4.3714  -10.5789    3.8388 C   0  0  1  0  0  0  0  0  0  0  0  0
    4.1223  -11.9811    3.8216 O   0  0  0  0  0  0  0  0  0  0  0  0
    5.3625  -10.2914    2.6502 C   0  0  1  0  0  0  0  0  0  0  0  0
    4.8081   -9.4578    1.5418 C   0  0  0  0  0  0  0  0  0  0  0  0
    4.9091   -8.0740    2.1650 C   0  0  1  0  0  0  0  0  0  0  0  0
    3.9046   -7.6860    3.1272 O   0  0  0  0  0  0  0  0  0  0  0  0
    3.5301   -8.3351    4.3771 C   0  0  2  0  0  0  0  0  0  0  0  0
    4.7755   -8.6905    5.3193 C   0  0  2  0  0  0  0  0  0  0  0  0
    6.0513   -7.8100    5.3114 C   0  0  0  0  0  0  0  0  0  0  0  0
    6.5286   -7.2322    3.9757 C   0  0  0  0  0  0  0  0  0  0  0  0
    6.3293   -8.1286    2.7427 C   0  0  2  0  0  0  0  0  0  0  0  0
    7.3976   -7.7433    1.6945 C   0  0  0  0  0  0  0  0  0  0  0  0
    6.5295   -9.5213    3.0083 O   0  0  0  0  0  0  0  0  0  0  0  0
    5.1489  -10.1940    5.1277 C   0  0  1  0  0  0  0  0  0  0  0  0
    4.8330  -10.9583    6.2841 O   0  0  0  0  0  0  0  0  0  0  0  0
    2.4999   -7.2523    4.9980 C   0  0  2  0  0  0  0  0  0  0  0  0
    3.3795   -5.9616    5.1634 C   0  0  0  0  0  0  0  0  0  0  0  0
    1.1429   -6.9499    4.2369 C   0  0  1  0  0  0  0  0  0  0  0  0
    1.2709   -6.7074    2.8543 O   0  0  0  0  0  0  0  0  0  0  0  0
    0.5429   -5.5975    4.7826 C   0  0  0  0  0  0  0  0  0  0  0  0
    1.3620   -3.5594    6.6349 H   0  0  0  0  0  0  0  0  0  0  0  0
    0.1960   -3.9630    7.8863 H   0  0  0  0  0  0  0  0  0  0  0  0
   -0.3602   -3.4288    6.3031 H   0  0  0  0  0  0  0  0  0  0  0  0
   -0.6273   -5.8519    6.5851 H   0  0  0  0  0  0  0  0  0  0  0  0
    2.2315   -5.7941    7.4714 H   0  0  0  0  0  0  0  0  0  0  0  0
    0.8903   -6.6892    8.0524 H   0  0  0  0  0  0  0  0  0  0  0  0
    2.4449   -8.2384    6.9937 H   0  0  0  0  0  0  0  0  0  0  0  0
    0.5856   -9.4986    6.2585 H   0  0  0  0  0  0  0  0  0  0  0  0
   -0.2775   -8.1292    6.6543 H   0  0  0  0  0  0  0  0  0  0  0  0
   -1.6297   -7.4213    3.4681 H   0  0  0  0  0  0  0  0  0  0  0  0
   -1.6265   -7.0335    5.1557 H   0  0  0  0  0  0  0  0  0  0  0  0
   -1.9553   -8.6520    4.6919 H   0  0  0  0  0  0  0  0  0  0  0  0
    0.1035  -10.3240    4.2937 H   0  0  0  0  0  0  0  0  0  0  0  0
   -0.7220   -8.8382    1.8111 H   0  0  0  0  0  0  0  0  0  0  0  0
   -1.6940   -9.8461    2.8805 H   0  0  0  0  0  0  0  0  0  0  0  0
   -0.4715  -10.5810    1.9165 H   0  0  0  0  0  0  0  0  0  0  0  0
    1.7341  -10.8948    2.7280 H   0  0  0  0  0  0  0  0  0  0  0  0
    1.2271   -9.4522    1.2356 H   0  0  0  0  0  0  0  0  0  0  0  0
    1.6267  -10.0955    5.3449 H   0  0  0  0  0  0  0  0  0  0  0  0
    3.5151  -12.1612    4.5209 H   0  0  0  0  0  0  0  0  0  0  0  0
    5.7359  -11.2331    2.2488 H   0  0  0  0  0  0  0  0  0  0  0  0
    5.4876   -9.5119    0.6998 H   0  0  0  0  0  0  0  0  0  0  0  0
    3.8794   -9.8060    1.1370 H   0  0  0  0  0  0  0  0  0  0  0  0
    4.8589   -7.3182    1.3800 H   0  0  0  0  0  0  0  0  0  0  0  0
    4.4283   -8.6267    6.3543 H   0  0  0  0  0  0  0  0  0  0  0  0
    5.9753   -6.9964    6.0256 H   0  0  0  0  0  0  0  0  0  0  0  0
    6.8700   -8.4049    5.7173 H   0  0  0  0  0  0  0  0  0  0  0  0
    6.0494   -6.2684    3.7893 H   0  0  0  0  0  0  0  0  0  0  0  0
    7.5888   -7.0007    4.0903 H   0  0  0  0  0  0  0  0  0  0  0  0
    7.2929   -6.7046    1.3818 H   0  0  0  0  0  0  0  0  0  0  0  0
    7.3453   -8.3710    0.8099 H   0  0  0  0  0  0  0  0  0  0  0  0
    8.4030   -7.8711    2.0945 H   0  0  0  0  0  0  0  0  0  0  0  0
    6.2239  -10.3723    5.0564 H   0  0  0  0  0  0  0  0  0  0  0  0
    3.8856  -10.9944    6.3390 H   0  0  0  0  0  0  0  0  0  0  0  0
    3.8757   -5.6594    4.2464 H   0  0  0  0  0  0  0  0  0  0  0  0
    4.1221   -6.1017    5.9391 H   0  0  0  0  0  0  0  0  0  0  0  0
    2.8759   -5.0567    5.4915 H   0  0  0  0  0  0  0  0  0  0  0  0
    1.6855   -7.4787    2.4728 H   0  0  0  0  0  0  0  0  0  0  0  0
   -0.4127   -5.4077    4.3209 H   0  0  0  0  0  0  0  0  0  0  0  0
    1.1310   -4.7484    4.4146 H   0  0  0  0  0  0  0  0  0  0  0  0
  1  2  1  0
  1 34  1  0
  1 35  1  0
  1 36  1  0
  2 33  1  0
  2  3  1  0
  2 37  1  6
  3  4  1  0
  3 38  1  0
  3 39  1  0
  4 29  1  0
  4  5  1  0
  4 40  1  1
  5  6  1  0
  5 41  1  0
  5 42  1  0
  6 31  1  0
  6  7  1  1
  6  8  1  0
  7 43  1  0
  7 44  1  0
  7 45  1  0
  8  9  1  0
  8 10  1  0
  8 46  1  1
  9 47  1  0
  9 48  1  0
  9 49  1  0
 10 11  1  0
 10 12  1  0
 10 50  1  6
 11 51  1  0
 12 20  1  0
 12 13  1  1
 12 14  1  0
 13 52  1  0
 14 27  1  0
 14 15  1  1
 14 16  1  0
 15 53  1  0
 16 26  1  0
 16 17  1  0
 16 54  1  6
 17 18  1  0
 17 55  1  0
 17 56  1  0
 18 24  1  0
 18 19  1  0
 18 57  1  6
 20 19  1  6
 20 21  1  0
 20 29  1  0
 21 22  1  0
 21 27  1  0
 21 58  1  1
 22 23  1  0
 22 59  1  0
 22 60  1  0
 23 24  1  0
 23 61  1  0
 23 62  1  0
 24 25  1  6
 24 26  1  0
 25 63  1  0
 25 64  1  0
 25 65  1  0
 27 28  1  0
 27 66  1  6
 28 67  1  0
 29 30  1  1
 29 31  1  0
 30 68  1  0
 30 69  1  0
 30 70  1  0
 31 32  1  6
 31 33  1  0
 32 71  1  0
 33 72  1  0
 33 73  1  0
M  END
>  <i_m_ct_stereo_status>  (251) 
1

>  <s_m_source_file>  (251) 
/var/tmp/pbs.5076255.sched01/tmpos3i1bch/920fm1no0n.sdf

>  <i_m_source_file_index>  (251) 
12

>  <i_lp_mmshare_version>  (251) 
48012

>  <i_f3d_flags>  (251) 
0

>  <s_epik_input>  (251) 
W0NIM11bQ0BASF0oW0NIMl0xKVtDSDJdW0NAQEhdKFtDSDJdMilbQ0BdMyhbQ0gzXSlbQ0BAXTEoW09IXSlbQ0BAXTIoW0NIM10pW0NAQEhdKFtDSDNdKVtDQEBIXShbT0hdKVtDQEBdKFtDQF0zNDUpKFtPSF0pW0NAQF02KFtPSF0pW0NASF03W0NIMl1bQ0BASF0oTzQpW0NAQF0oTzcpKFtDSDNdKVtDSDJdW0NIMl1bQ0BASF01W0NASF02W09IXQ==

>  <s_epik_cmdline>  (251) 
J2VwaWtfcHl0aG9uJywgJy1waHQnLCAnMi4wJywgJy1waCcsICc3LjAnLCAnLXRuJywgJzgnLCAnLW1hJywgJzIwMCcsICctaW1hZScsICc8aW5maWxlLm1hZT4nLCAnLW9tYWUnLCAnPG91dGZpbGUubWFlPic=

>  <r_lp_tautomer_probability>  (251) 
1

>  <r_epik_Ionization_Penalty>  (251) 
9.44463e-07

>  <r_epik_Ionization_Penalty_Charging>  (251) 
0

>  <r_epik_Ionization_Penalty_Neutral>  (251) 
9.44463e-07

>  <r_epik_State_Penalty>  (251) 
-0

>  <r_epik_Charging_Adjusted_Penalty>  (251) 
0

>  <i_epik_Tot_Q>  (251) 
0

>  <i_epik_Tot_abs_Q>  (251) 
0

>  <s_lp_Force_Field>  (251) 
OPLS3e

>  <r_lp_Energy>  (251) 
147.059

>  <b_lp_Chiralities_Consistent>  (251) 
1

>  <s_lp_Variant>  (251) 
73:0-1

>  <s_i_glide_gridfile>  (251) 
pfpi4k_grid

>  <i_i_glide_lignum>  (251) 
12

>  <i_i_glide_rotatable_bonds>  (251) 
5

>  <r_i_docking_score>  (251) 
-3.38436

>  <r_i_glide_ligand_efficiency>  (251) 
-0.102556

>  <r_i_glide_ligand_efficiency_sa>  (251) 
-0.328953

>  <r_i_glide_ligand_efficiency_ln>  (251) 
-0.752664

>  <r_i_glide_gscore>  (251) 
-3.38436

>  <r_i_glide_lipo>  (251) 
-0.189811

>  <r_i_glide_hbond>  (251) 
0

>  <r_i_glide_metal>  (251) 
-0

>  <r_i_glide_rewards>  (251) 
-1.24142

>  <r_i_glide_evdw>  (251) 
-28.4415

>  <r_i_glide_ecoul>  (251) 
-3.54036

>  <r_i_glide_erotb>  (251) 
0

>  <r_i_glide_esite>  (251) 
0

>  <r_i_glide_emodel>  (251) 
-49.5035

>  <r_i_glide_energy>  (251) 
-31.9818

>  <r_i_glide_einternal>  (251) 
0.705262

>  <r_i_glide_intrahb_reward>  (251) 
-1

>  <i_i_glide_confnum>  (251) 
2

>  <i_i_glide_posenum>  (251) 
21

>  <r_i_glide_eff_state_penalty>  (251) 
0

>  <ligand_id>  (251) 
73

>  <original_smiles>  (251) 
CC1CC2CC3(C)C(C)C(O)C4(O)C5(O)C6CC7OC4(C(CCC7(C)O6)C5O)C2(C)C3(O)C1

>  <smiles>  (251) 
[H]OC1([H])C2([H])C([H])([H])C([H])([H])C3(C([H])([H])[H])OC4([H])C([H])([H])C3([H])OC23C(O[H])(C([H])(O[H])C([H])(C([H])([H])[H])C2(C([H])([H])[H])C([H])([H])C5([H])C([H])([H])C([H])(C([H])([H])[H])C([H])([H])C2(O[H])C53C([H])([H])[H])C41O[H]

$$$$
74:0:0
     RDKit          3D

 33 35  0  0  1  0  0  0  0  0999 V2000
    2.9708   -3.4513   -2.2437 O   0  0  0  0  0  0  0  0  0  0  0  0
    3.4006   -3.1870   -0.9820 C   0  0  0  0  0  0  0  0  0  0  0  0
    3.9256   -1.9496   -0.7033 N   0  0  0  0  0  0  0  0  0  0  0  0
    4.3248   -1.8483    0.6252 C   0  0  0  0  0  0  0  0  0  0  0  0
    4.8951   -0.7774    1.3448 C   0  0  0  0  0  0  0  0  0  0  0  0
    5.2361   -0.9444    2.7037 C   0  0  0  0  0  0  0  0  0  0  0  0
    4.9764   -2.1809    3.3278 C   0  0  0  0  0  0  0  0  0  0  0  0
    4.3430   -3.2204    2.6155 C   0  0  0  0  0  0  0  0  0  0  0  0
    4.0171   -3.1039    1.2300 C   0  0  0  0  0  0  0  0  0  0  0  0
    3.4185   -3.9190    0.1846 C   0  0  0  0  0  0  0  0  0  0  0  0
    2.8958   -5.2258    0.2902 N   0  0  0  0  0  0  0  0  0  0  0  0
    2.2874   -5.4590    1.3418 N   0  0  0  0  0  0  0  0  0  0  0  0
    1.9007   -6.7379    1.5501 C   0  0  0  0  0  0  0  0  0  0  0  0
    0.2669   -7.0543    1.7048 S   0  0  0  0  0  0  0  0  0  0  0  0
    2.8517   -7.7017    1.7139 N   0  0  0  0  0  0  0  0  0  0  0  0
    4.2841   -7.6424    1.6917 C   0  0  0  0  0  0  0  0  0  0  0  0
    4.9957   -8.8418    1.4526 C   0  0  0  0  0  0  0  0  0  0  0  0
    6.4138   -8.8299    1.4209 C   0  0  0  0  0  0  0  0  0  0  0  0
    7.1345   -7.6306    1.6415 C   0  0  0  0  0  0  0  0  0  0  0  0
    6.4216   -6.4455    1.9014 C   0  0  0  0  0  0  0  0  0  0  0  0
    5.0219   -6.4597    1.9374 C   0  0  0  0  0  0  0  0  0  0  0  0
    3.9156   -1.2087   -1.4007 H   0  0  0  0  0  0  0  0  0  0  0  0
    2.8641   -4.3869   -2.3248 H   0  0  0  0  0  0  0  0  0  0  0  0
    5.0526    0.1756    0.8534 H   0  0  0  0  0  0  0  0  0  0  0  0
    5.6696   -0.1314    3.2700 H   0  0  0  0  0  0  0  0  0  0  0  0
    5.2369   -2.3286    4.3617 H   0  0  0  0  0  0  0  0  0  0  0  0
    4.1207   -4.0837    3.2076 H   0  0  0  0  0  0  0  0  0  0  0  0
    2.4587   -8.6133    1.8500 H   0  0  0  0  0  0  0  0  0  0  0  0
    4.4546   -9.7641    1.2717 H   0  0  0  0  0  0  0  0  0  0  0  0
    6.9469   -9.7478    1.2154 H   0  0  0  0  0  0  0  0  0  0  0  0
    8.2154   -7.6132    1.5955 H   0  0  0  0  0  0  0  0  0  0  0  0
    6.9386   -5.5191    2.0596 H   0  0  0  0  0  0  0  0  0  0  0  0
    4.5107   -5.5709    2.1611 H   0  0  0  0  0  0  0  0  0  0  0  0
  1  2  1  0
  1 23  1  0
  2 10  2  0
  2  3  1  0
  3 22  1  0
  3  4  1  0
  4  9  2  0
  4  5  1  0
  5  6  2  0
  5 24  1  0
  6  7  1  0
  6 25  1  0
  7  8  2  0
  7 26  1  0
  8  9  1  0
  8 27  1  0
  9 10  1  0
 10 11  1  0
 11 12  2  3
 12 13  1  0
 13 14  2  0
 13 15  1  0
 15 16  1  0
 15 28  1  0
 16 21  1  0
 16 17  2  0
 17 18  1  0
 17 29  1  0
 18 19  2  0
 18 30  1  0
 19 20  1  0
 19 31  1  0
 20 21  2  0
 20 32  1  0
 21 33  1  0
M  END
>  <i_m_ct_stereo_status>  (252) 
1

>  <s_m_source_file>  (252) 
/var/tmp/pbs.5076255.sched01/tmpos3i1bch/920fm1no0n.sdf

>  <i_m_source_file_index>  (252) 
13

>  <i_lp_mmshare_version>  (252) 
48012

>  <i_f3d_flags>  (252) 
0

>  <s_epik_input>  (252) 
W2NIXTFbY0hdW2NIXVtjSF1jKGMxMiljKGMoW09IXSlbbkhdMikvTj1OL0MoPVMpW05IXWMzW2NIXVtjSF1bY0hdW2NIXVtjSF0z

>  <s_epik_cmdline>  (252) 
J2VwaWtfcHl0aG9uJywgJy1waHQnLCAnMi4wJywgJy1waCcsICc3LjAnLCAnLXRuJywgJzgnLCAnLW1hJywgJzIwMCcsICctaW1hZScsICc8aW5maWxlLm1hZT4nLCAnLW9tYWUnLCAnPG91dGZpbGUubWFlPic=

>  <r_epik_Ionization_Penalty>  (252) 
0.00622285

>  <r_epik_Ionization_Penalty_Charging>  (252) 
0

>  <r_epik_Ionization_Penalty_Neutral>  (252) 
0.00622285

>  <r_epik_State_Penalty>  (252) 
0.0045908

>  <r_epik_Charging_Adjusted_Penalty>  (252) 
0.0045908

>  <i_epik_Tot_Q>  (252) 
0

>  <i_epik_Tot_abs_Q>  (252) 
0

>  <s_lp_Force_Field>  (252) 
OPLS3e

>  <r_lp_Energy>  (252) 
31.0967

>  <b_lp_Chiralities_Consistent>  (252) 
1

>  <s_lp_Variant>  (252) 
74:0-1

>  <s_i_glide_gridfile>  (252) 
pfpi4k_grid

>  <i_i_glide_lignum>  (252) 
13

>  <i_i_glide_rotatable_bonds>  (252) 
5

>  <r_i_docking_score>  (252) 
-4.24123

>  <r_i_glide_ligand_efficiency>  (252) 
-0.201963

>  <r_i_glide_ligand_efficiency_sa>  (252) 
-0.557201

>  <r_i_glide_ligand_efficiency_ln>  (252) 
-1.04864

>  <r_i_glide_gscore>  (252) 
-4.24123

>  <r_i_glide_lipo>  (252) 
-0.675354

>  <r_i_glide_hbond>  (252) 
-0.32

>  <r_i_glide_metal>  (252) 
-0

>  <r_i_glide_rewards>  (252) 
-1.38854

>  <r_i_glide_evdw>  (252) 
-26.8207

>  <r_i_glide_ecoul>  (252) 
-5.98491

>  <r_i_glide_erotb>  (252) 
0.625761

>  <r_i_glide_esite>  (252) 
-0.24433

>  <r_i_glide_emodel>  (252) 
-38.9141

>  <r_i_glide_energy>  (252) 
-32.8056

>  <r_i_glide_einternal>  (252) 
3.61375

>  <r_i_glide_intrahb_reward>  (252) 
-0

>  <i_i_glide_confnum>  (252) 
3

>  <i_i_glide_posenum>  (252) 
17

>  <r_i_glide_eff_state_penalty>  (252) 
0

>  <ligand_id>  (252) 
74

>  <original_smiles>  (252) 
Oc1[nH]c2ccccc2c1N=NC(=S)Nc1ccccc1

>  <smiles>  (252) 
[H]Oc1c(N=NC(=S)N([H])c2c([H])c([H])c([H])c([H])c2[H])c2c([H])c([H])c([H])c([H])c2n1[H]

$$$$
74:0:1
     RDKit          3D

 33 35  0  0  1  0  0  0  0  0999 V2000
    4.2224   -3.8353   -2.5556 O   0  0  0  0  0  0  0  0  0  0  0  0
    4.3706   -3.4086   -1.2782 C   0  0  0  0  0  0  0  0  0  0  0  0
    4.8904   -2.1309   -1.1028 N   0  0  0  0  0  0  0  0  0  0  0  0
    4.9858   -1.8289    0.2477 C   0  0  0  0  0  0  0  0  0  0  0  0
    5.4132   -0.6776    0.9327 C   0  0  0  0  0  0  0  0  0  0  0  0
    5.4170   -0.6558    2.3385 C   0  0  0  0  0  0  0  0  0  0  0  0
    5.0032   -1.7909    3.0581 C   0  0  0  0  0  0  0  0  0  0  0  0
    4.5551   -2.9325    2.3769 C   0  0  0  0  0  0  0  0  0  0  0  0
    4.5180   -2.9806    0.9609 C   0  0  0  0  0  0  0  0  0  0  0  0
    4.0902   -3.9168   -0.0567 C   0  0  0  0  0  0  0  0  0  0  0  0
    3.4752   -5.1815    0.1413 N   0  0  0  0  0  0  0  0  0  0  0  0
    2.7742   -5.2631    1.1648 N   0  0  0  0  0  0  0  0  0  0  0  0
    2.3077   -6.4982    1.4866 C   0  0  0  0  0  0  0  0  0  0  0  0
    0.6696   -6.7130    1.6939 S   0  0  0  0  0  0  0  0  0  0  0  0
    3.2024   -7.5034    1.7071 N   0  0  0  0  0  0  0  0  0  0  0  0
    4.6261   -7.5400    1.6325 C   0  0  0  0  0  0  0  0  0  0  0  0
    5.2173   -8.7967    1.3850 C   0  0  0  0  0  0  0  0  0  0  0  0
    6.6152   -8.9208    1.2861 C   0  0  0  0  0  0  0  0  0  0  0  0
    7.4390   -7.7919    1.4297 C   0  0  0  0  0  0  0  0  0  0  0  0
    6.8571   -6.5375    1.6961 C   0  0  0  0  0  0  0  0  0  0  0  0
    5.4716   -6.4256    1.8371 C   0  0  0  0  0  0  0  0  0  0  0  0
    5.0743   -1.5085   -1.8641 H   0  0  0  0  0  0  0  0  0  0  0  0
    3.7532   -4.6820   -2.5143 H   0  0  0  0  0  0  0  0  0  0  0  0
    5.7227    0.1888    0.3730 H   0  0  0  0  0  0  0  0  0  0  0  0
    5.7448    0.2290    2.8665 H   0  0  0  0  0  0  0  0  0  0  0  0
    5.0166   -1.7639    4.1319 H   0  0  0  0  0  0  0  0  0  0  0  0
    4.2277   -3.7749    2.9691 H   0  0  0  0  0  0  0  0  0  0  0  0
    2.7668   -8.3886    1.9003 H   0  0  0  0  0  0  0  0  0  0  0  0
    4.5953   -9.6763    1.2514 H   0  0  0  0  0  0  0  0  0  0  0  0
    7.0407   -9.8886    1.0890 H   0  0  0  0  0  0  0  0  0  0  0  0
    8.5079   -7.8673    1.3327 H   0  0  0  0  0  0  0  0  0  0  0  0
    7.4776   -5.6581    1.8027 H   0  0  0  0  0  0  0  0  0  0  0  0
    5.0706   -5.4651    2.0936 H   0  0  0  0  0  0  0  0  0  0  0  0
  1  2  1  0
  1 23  1  0
  2 10  2  0
  2  3  1  0
  3 22  1  0
  3  4  1  0
  4  9  2  0
  4  5  1  0
  5  6  2  0
  5 24  1  0
  6  7  1  0
  6 25  1  0
  7  8  2  0
  7 26  1  0
  8  9  1  0
  8 27  1  0
  9 10  1  0
 10 11  1  0
 11 12  2  3
 12 13  1  0
 13 14  2  0
 13 15  1  0
 15 16  1  0
 15 28  1  0
 16 21  1  0
 16 17  2  0
 17 18  1  0
 17 29  1  0
 18 19  2  0
 18 30  1  0
 19 20  1  0
 19 31  1  0
 20 21  2  0
 20 32  1  0
 21 33  1  0
M  END
>  <i_m_ct_stereo_status>  (253) 
1

>  <s_m_source_file>  (253) 
/var/tmp/pbs.5076255.sched01/tmpos3i1bch/920fm1no0n.sdf

>  <i_m_source_file_index>  (253) 
13

>  <i_lp_mmshare_version>  (253) 
48012

>  <i_f3d_flags>  (253) 
0

>  <s_epik_input>  (253) 
W2NIXTFbY0hdW2NIXVtjSF1jKGMxMiljKGMoW09IXSlbbkhdMikvTj1OL0MoPVMpW05IXWMzW2NIXVtjSF1bY0hdW2NIXVtjSF0z

>  <s_epik_cmdline>  (253) 
J2VwaWtfcHl0aG9uJywgJy1waHQnLCAnMi4wJywgJy1waCcsICc3LjAnLCAnLXRuJywgJzgnLCAnLW1hJywgJzIwMCcsICctaW1hZScsICc8aW5maWxlLm1hZT4nLCAnLW9tYWUnLCAnPG91dGZpbGUubWFlPic=

>  <r_epik_Ionization_Penalty>  (253) 
0.00622285

>  <r_epik_Ionization_Penalty_Charging>  (253) 
0

>  <r_epik_Ionization_Penalty_Neutral>  (253) 
0.00622285

>  <r_epik_State_Penalty>  (253) 
0.0045908

>  <r_epik_Charging_Adjusted_Penalty>  (253) 
0.0045908

>  <i_epik_Tot_Q>  (253) 
0

>  <i_epik_Tot_abs_Q>  (253) 
0

>  <s_lp_Force_Field>  (253) 
OPLS3e

>  <r_lp_Energy>  (253) 
31.0967

>  <b_lp_Chiralities_Consistent>  (253) 
1

>  <s_lp_Variant>  (253) 
74:0-1

>  <s_i_glide_gridfile>  (253) 
pfpi4k_grid

>  <i_i_glide_lignum>  (253) 
13

>  <i_i_glide_rotatable_bonds>  (253) 
5

>  <r_i_docking_score>  (253) 
-4.19651

>  <r_i_glide_ligand_efficiency>  (253) 
-0.199834

>  <r_i_glide_ligand_efficiency_sa>  (253) 
-0.551327

>  <r_i_glide_ligand_efficiency_ln>  (253) 
-1.03758

>  <r_i_glide_gscore>  (253) 
-4.19651

>  <r_i_glide_lipo>  (253) 
-0.640721

>  <r_i_glide_hbond>  (253) 
-0.32

>  <r_i_glide_metal>  (253) 
-0

>  <r_i_glide_rewards>  (253) 
-1.38854

>  <r_i_glide_evdw>  (253) 
-24.8178

>  <r_i_glide_ecoul>  (253) 
-7.07886

>  <r_i_glide_erotb>  (253) 
0.625761

>  <r_i_glide_esite>  (253) 
-0.1703

>  <r_i_glide_emodel>  (253) 
-38.9816

>  <r_i_glide_energy>  (253) 
-31.8966

>  <r_i_glide_einternal>  (253) 
2.83195

>  <r_i_glide_intrahb_reward>  (253) 
-0

>  <i_i_glide_confnum>  (253) 
3

>  <i_i_glide_posenum>  (253) 
22

>  <r_i_glide_eff_state_penalty>  (253) 
0

>  <ligand_id>  (253) 
74

>  <original_smiles>  (253) 
Oc1[nH]c2ccccc2c1N=NC(=S)Nc1ccccc1

>  <smiles>  (253) 
[H]Oc1c(N=NC(=S)N([H])c2c([H])c([H])c([H])c([H])c2[H])c2c([H])c([H])c([H])c([H])c2n1[H]

$$$$
74:0:2
     RDKit          3D

 33 35  0  0  1  0  0  0  0  0999 V2000
    4.8557   -9.8487    1.1233 O   0  0  0  0  0  0  0  0  0  0  0  0
    3.7383   -9.2376    1.6116 C   0  0  0  0  0  0  0  0  0  0  0  0
    2.7298  -10.0403    2.1208 N   0  0  0  0  0  0  0  0  0  0  0  0
    1.6604   -9.2846    2.5908 C   0  0  0  0  0  0  0  0  0  0  0  0
    0.4339   -9.6289    3.1887 C   0  0  0  0  0  0  0  0  0  0  0  0
   -0.4708   -8.6195    3.5852 C   0  0  0  0  0  0  0  0  0  0  0  0
   -0.1313   -7.2627    3.3828 C   0  0  0  0  0  0  0  0  0  0  0  0
    1.0972   -6.9306    2.7810 C   0  0  0  0  0  0  0  0  0  0  0  0
    2.0203   -7.9225    2.3625 C   0  0  0  0  0  0  0  0  0  0  0  0
    3.3150   -7.9449    1.7279 C   0  0  0  0  0  0  0  0  0  0  0  0
    4.0484   -6.8340    1.2722 N   0  0  0  0  0  0  0  0  0  0  0  0
    3.3580   -5.8561    0.9065 N   0  0  0  0  0  0  0  0  0  0  0  0
    3.9694   -4.6921    0.5192 C   0  0  0  0  0  0  0  0  0  0  0  0
    3.0321   -3.5198   -0.1924 S   0  0  0  0  0  0  0  0  0  0  0  0
    5.3010   -4.6609    0.7859 N   0  0  0  0  0  0  0  0  0  0  0  0
    6.2851   -3.6760    0.5572 C   0  0  0  0  0  0  0  0  0  0  0  0
    7.5865   -4.1563    0.3048 C   0  0  0  0  0  0  0  0  0  0  0  0
    8.6500   -3.2575    0.1103 C   0  0  0  0  0  0  0  0  0  0  0  0
    8.4258   -1.8740    0.2003 C   0  0  0  0  0  0  0  0  0  0  0  0
    7.1326   -1.3915    0.4801 C   0  0  0  0  0  0  0  0  0  0  0  0
    6.0635   -2.2846    0.6691 C   0  0  0  0  0  0  0  0  0  0  0  0
    2.7811  -11.0477    2.1196 H   0  0  0  0  0  0  0  0  0  0  0  0
    4.6175  -10.7632    0.8728 H   0  0  0  0  0  0  0  0  0  0  0  0
    0.1876  -10.6677    3.3524 H   0  0  0  0  0  0  0  0  0  0  0  0
   -1.4078   -8.8939    4.0555 H   0  0  0  0  0  0  0  0  0  0  0  0
   -0.8031   -6.4796    3.7034 H   0  0  0  0  0  0  0  0  0  0  0  0
    1.3637   -5.8942    2.6448 H   0  0  0  0  0  0  0  0  0  0  0  0
    5.6507   -5.5502    1.1077 H   0  0  0  0  0  0  0  0  0  0  0  0
    7.7691   -5.2242    0.2625 H   0  0  0  0  0  0  0  0  0  0  0  0
    9.6430   -3.6280   -0.0873 H   0  0  0  0  0  0  0  0  0  0  0  0
    9.2542   -1.1940    0.0832 H   0  0  0  0  0  0  0  0  0  0  0  0
    6.9574   -0.3265    0.5553 H   0  0  0  0  0  0  0  0  0  0  0  0
    5.0906   -1.8798    0.9215 H   0  0  0  0  0  0  0  0  0  0  0  0
  1  2  1  0
  1 23  1  0
  2 10  2  0
  2  3  1  0
  3 22  1  0
  3  4  1  0
  4  9  2  0
  4  5  1  0
  5  6  2  0
  5 24  1  0
  6  7  1  0
  6 25  1  0
  7  8  2  0
  7 26  1  0
  8  9  1  0
  8 27  1  0
  9 10  1  0
 10 11  1  0
 11 12  2  3
 12 13  1  0
 13 14  2  0
 13 15  1  0
 15 16  1  0
 15 28  1  0
 16 21  1  0
 16 17  2  0
 17 18  1  0
 17 29  1  0
 18 19  2  0
 18 30  1  0
 19 20  1  0
 19 31  1  0
 20 21  2  0
 20 32  1  0
 21 33  1  0
M  END
>  <i_m_ct_stereo_status>  (254) 
1

>  <s_m_source_file>  (254) 
/var/tmp/pbs.5076255.sched01/tmpos3i1bch/920fm1no0n.sdf

>  <i_m_source_file_index>  (254) 
13

>  <i_lp_mmshare_version>  (254) 
48012

>  <i_f3d_flags>  (254) 
0

>  <s_epik_input>  (254) 
W2NIXTFbY0hdW2NIXVtjSF1jKGMxMiljKGMoW09IXSlbbkhdMikvTj1OL0MoPVMpW05IXWMzW2NIXVtjSF1bY0hdW2NIXVtjSF0z

>  <s_epik_cmdline>  (254) 
J2VwaWtfcHl0aG9uJywgJy1waHQnLCAnMi4wJywgJy1waCcsICc3LjAnLCAnLXRuJywgJzgnLCAnLW1hJywgJzIwMCcsICctaW1hZScsICc8aW5maWxlLm1hZT4nLCAnLW9tYWUnLCAnPG91dGZpbGUubWFlPic=

>  <r_epik_Ionization_Penalty>  (254) 
0.00622285

>  <r_epik_Ionization_Penalty_Charging>  (254) 
0

>  <r_epik_Ionization_Penalty_Neutral>  (254) 
0.00622285

>  <r_epik_State_Penalty>  (254) 
0.0045908

>  <r_epik_Charging_Adjusted_Penalty>  (254) 
0.0045908

>  <i_epik_Tot_Q>  (254) 
0

>  <i_epik_Tot_abs_Q>  (254) 
0

>  <s_lp_Force_Field>  (254) 
OPLS3e

>  <r_lp_Energy>  (254) 
31.0967

>  <b_lp_Chiralities_Consistent>  (254) 
1

>  <s_lp_Variant>  (254) 
74:0-1

>  <s_i_glide_gridfile>  (254) 
pfpi4k_grid

>  <i_i_glide_lignum>  (254) 
13

>  <i_i_glide_rotatable_bonds>  (254) 
5

>  <r_i_docking_score>  (254) 
-3.68586

>  <r_i_glide_ligand_efficiency>  (254) 
-0.175517

>  <r_i_glide_ligand_efficiency_sa>  (254) 
-0.484239

>  <r_i_glide_ligand_efficiency_ln>  (254) 
-0.911322

>  <r_i_glide_gscore>  (254) 
-3.68586

>  <r_i_glide_lipo>  (254) 
-0.503733

>  <r_i_glide_hbond>  (254) 
-0.16

>  <r_i_glide_metal>  (254) 
-0

>  <r_i_glide_rewards>  (254) 
-1.4164

>  <r_i_glide_evdw>  (254) 
-25.1956

>  <r_i_glide_ecoul>  (254) 
-6.24787

>  <r_i_glide_erotb>  (254) 
0.625761

>  <r_i_glide_esite>  (254) 
-0.0345378

>  <r_i_glide_emodel>  (254) 
-37.6252

>  <r_i_glide_energy>  (254) 
-31.4434

>  <r_i_glide_einternal>  (254) 
3.3426

>  <r_i_glide_intrahb_reward>  (254) 
-0

>  <i_i_glide_confnum>  (254) 
2

>  <i_i_glide_posenum>  (254) 
32

>  <r_i_glide_eff_state_penalty>  (254) 
0

>  <ligand_id>  (254) 
74

>  <original_smiles>  (254) 
Oc1[nH]c2ccccc2c1N=NC(=S)Nc1ccccc1

>  <smiles>  (254) 
[H]Oc1c(N=NC(=S)N([H])c2c([H])c([H])c([H])c([H])c2[H])c2c([H])c([H])c([H])c([H])c2n1[H]

$$$$
74:1:0
     RDKit          3D

 33 35  0  0  1  0  0  0  0  0999 V2000
    2.0589   -0.2756    1.2916 O   0  0  0  0  0  0  0  0  0  0  0  0
    1.3063    0.4150    2.1691 C   0  0  0  0  0  0  0  0  0  0  0  0
    0.0917    0.9557    1.7678 N   0  0  0  0  0  0  0  0  0  0  0  0
   -0.5460    1.5759    2.8442 C   0  0  0  0  0  0  0  0  0  0  0  0
   -1.7748    2.2492    2.9627 C   0  0  0  0  0  0  0  0  0  0  0  0
   -2.1889    2.7664    4.2076 C   0  0  0  0  0  0  0  0  0  0  0  0
   -1.3702    2.5877    5.3407 C   0  0  0  0  0  0  0  0  0  0  0  0
   -0.1374    1.9129    5.2195 C   0  0  0  0  0  0  0  0  0  0  0  0
    0.3129    1.4060    3.9712 C   0  0  0  0  0  0  0  0  0  0  0  0
    1.4588    0.6803    3.5034 C   0  0  0  0  0  0  0  0  0  0  0  0
    2.5132    0.2376    4.3461 N   0  0  0  0  0  0  0  0  0  0  0  0
    2.8685   -0.9692    4.4225 N   0  0  0  0  0  0  0  0  0  0  0  0
    2.0251   -2.0208    4.1635 C   0  0  0  0  0  0  0  0  0  0  0  0
    0.5212   -2.2373    4.8991 S   0  0  0  0  0  0  0  0  0  0  0  0
    2.6669   -2.8719    3.3223 N   0  0  0  0  0  0  0  0  0  0  0  0
    2.2276   -4.0908    2.7079 C   0  0  0  0  0  0  0  0  0  0  0  0
    2.7037   -4.3713    1.4054 C   0  0  0  0  0  0  0  0  0  0  0  0
    2.3454   -5.5684    0.7488 C   0  0  0  0  0  0  0  0  0  0  0  0
    1.5149   -6.5078    1.3888 C   0  0  0  0  0  0  0  0  0  0  0  0
    1.0527   -6.2532    2.6933 C   0  0  0  0  0  0  0  0  0  0  0  0
    1.4183   -5.0622    3.3558 C   0  0  0  0  0  0  0  0  0  0  0  0
   -0.2768    0.9062    0.8203 H   0  0  0  0  0  0  0  0  0  0  0  0
    1.5017   -0.4723    0.5185 H   0  0  0  0  0  0  0  0  0  0  0  0
   -2.4023    2.3617    2.0931 H   0  0  0  0  0  0  0  0  0  0  0  0
   -3.1343    3.2805    4.2899 H   0  0  0  0  0  0  0  0  0  0  0  0
   -1.6854    2.9673    6.3021 H   0  0  0  0  0  0  0  0  0  0  0  0
    0.4849    1.7679    6.0952 H   0  0  0  0  0  0  0  0  0  0  0  0
    3.5475   -2.5141    2.9710 H   0  0  0  0  0  0  0  0  0  0  0  0
    3.3485   -3.6599    0.9037 H   0  0  0  0  0  0  0  0  0  0  0  0
    2.7262   -5.7635   -0.2423 H   0  0  0  0  0  0  0  0  0  0  0  0
    1.2526   -7.4296    0.8915 H   0  0  0  0  0  0  0  0  0  0  0  0
    0.4360   -6.9801    3.2017 H   0  0  0  0  0  0  0  0  0  0  0  0
    1.0742   -4.9170    4.3709 H   0  0  0  0  0  0  0  0  0  0  0  0
  1  2  1  0
  1 23  1  0
  2 10  2  0
  2  3  1  0
  3 22  1  0
  3  4  1  0
  4  9  2  0
  4  5  1  0
  5  6  2  0
  5 24  1  0
  6  7  1  0
  6 25  1  0
  7  8  2  0
  7 26  1  0
  8  9  1  0
  8 27  1  0
  9 10  1  0
 10 11  1  0
 11 12  2  3
 12 13  1  0
 13 14  2  0
 13 15  1  0
 15 16  1  0
 15 28  1  0
 16 21  1  0
 16 17  2  0
 17 18  1  0
 17 29  1  0
 18 19  2  0
 18 30  1  0
 19 20  1  0
 19 31  1  0
 20 21  2  0
 20 32  1  0
 21 33  1  0
M  END
>  <i_m_ct_stereo_status>  (255) 
1

>  <s_m_source_file>  (255) 
/var/tmp/pbs.5076255.sched01/tmpos3i1bch/920fm1no0n.sdf

>  <i_m_source_file_index>  (255) 
14

>  <i_lp_mmshare_version>  (255) 
48012

>  <i_f3d_flags>  (255) 
0

>  <s_epik_input>  (255) 
W2NIXTFbY0hdW2NIXVtjSF1jKGMxMiljKGMoW09IXSlbbkhdMikvTj1OL0MoPVMpW05IXWMzW2NIXVtjSF1bY0hdW2NIXVtjSF0z

>  <s_epik_cmdline>  (255) 
J2VwaWtfcHl0aG9uJywgJy1waHQnLCAnMi4wJywgJy1waCcsICc3LjAnLCAnLXRuJywgJzgnLCAnLW1hJywgJzIwMCcsICctaW1hZScsICc8aW5maWxlLm1hZT4nLCAnLW9tYWUnLCAnPG91dGZpbGUubWFlPic=

>  <r_epik_Ionization_Penalty>  (255) 
0.00622285

>  <r_epik_Ionization_Penalty_Charging>  (255) 
0

>  <r_epik_Ionization_Penalty_Neutral>  (255) 
0.00622285

>  <r_epik_State_Penalty>  (255) 
0.0045908

>  <r_epik_Charging_Adjusted_Penalty>  (255) 
0.0045908

>  <i_epik_Tot_Q>  (255) 
0

>  <i_epik_Tot_abs_Q>  (255) 
0

>  <s_lp_Force_Field>  (255) 
OPLS3e

>  <r_lp_Energy>  (255) 
53.4735

>  <b_lp_Chiralities_Consistent>  (255) 
1

>  <s_lp_Variant>  (255) 
74:0-2

>  <s_i_glide_gridfile>  (255) 
pfpi4k_grid

>  <i_i_glide_lignum>  (255) 
14

>  <i_i_glide_rotatable_bonds>  (255) 
5

>  <r_i_docking_score>  (255) 
-3.29805

>  <r_i_glide_ligand_efficiency>  (255) 
-0.15705

>  <r_i_glide_ligand_efficiency_sa>  (255) 
-0.433289

>  <r_i_glide_ligand_efficiency_ln>  (255) 
-0.815436

>  <r_i_glide_gscore>  (255) 
-3.29805

>  <r_i_glide_lipo>  (255) 
-0.0126842

>  <r_i_glide_hbond>  (255) 
-0.304

>  <r_i_glide_metal>  (255) 
-0

>  <r_i_glide_rewards>  (255) 
-1.40389

>  <r_i_glide_evdw>  (255) 
-20.8554

>  <r_i_glide_ecoul>  (255) 
-7.1285

>  <r_i_glide_erotb>  (255) 
0.625761

>  <r_i_glide_esite>  (255) 
-0.0911857

>  <r_i_glide_emodel>  (255) 
-32.7818

>  <r_i_glide_energy>  (255) 
-27.9839

>  <r_i_glide_einternal>  (255) 
5.00935

>  <r_i_glide_intrahb_reward>  (255) 
-0

>  <i_i_glide_confnum>  (255) 
2

>  <i_i_glide_posenum>  (255) 
4

>  <r_i_glide_eff_state_penalty>  (255) 
0

>  <ligand_id>  (255) 
74

>  <original_smiles>  (255) 
Oc1[nH]c2ccccc2c1N=NC(=S)Nc1ccccc1

>  <smiles>  (255) 
[H]Oc1c(N=NC(=S)N([H])c2c([H])c([H])c([H])c([H])c2[H])c2c([H])c([H])c([H])c([H])c2n1[H]

$$$$
74:1:1
     RDKit          3D

 33 35  0  0  1  0  0  0  0  0999 V2000
    0.4268    0.1402    1.6886 O   0  0  0  0  0  0  0  0  0  0  0  0
    1.2851    0.8677    2.4524 C   0  0  0  0  0  0  0  0  0  0  0  0
    1.3642    2.2310    2.2290 N   0  0  0  0  0  0  0  0  0  0  0  0
    2.1852    2.8329    3.1648 C   0  0  0  0  0  0  0  0  0  0  0  0
    2.5507    4.1748    3.3722 C   0  0  0  0  0  0  0  0  0  0  0  0
    3.4017    4.5159    4.4396 C   0  0  0  0  0  0  0  0  0  0  0  0
    3.8606    3.5116    5.3103 C   0  0  0  0  0  0  0  0  0  0  0  0
    3.4860    2.1666    5.1016 C   0  0  0  0  0  0  0  0  0  0  0  0
    2.6570    1.7884    4.0134 C   0  0  0  0  0  0  0  0  0  0  0  0
    2.1183    0.5659    3.4978 C   0  0  0  0  0  0  0  0  0  0  0  0
    2.3158   -0.7049    4.0879 N   0  0  0  0  0  0  0  0  0  0  0  0
    2.9667   -1.6489    3.5471 N   0  0  0  0  0  0  0  0  0  0  0  0
    3.7300   -1.4786    2.4183 C   0  0  0  0  0  0  0  0  0  0  0  0
    5.3264   -1.0218    2.5650 S   0  0  0  0  0  0  0  0  0  0  0  0
    3.0440   -1.8182    1.2907 N   0  0  0  0  0  0  0  0  0  0  0  0
    3.5050   -1.9246   -0.0593 C   0  0  0  0  0  0  0  0  0  0  0  0
    4.3474   -0.9443   -0.6255 C   0  0  0  0  0  0  0  0  0  0  0  0
    4.7609   -1.0297   -1.9623 C   0  0  0  0  0  0  0  0  0  0  0  0
    4.3199   -2.0811   -2.7794 C   0  0  0  0  0  0  0  0  0  0  0  0
    3.4590   -3.0542   -2.2415 C   0  0  0  0  0  0  0  0  0  0  0  0
    3.0550   -2.9842   -0.8875 C   0  0  0  0  0  0  0  0  0  0  0  0
    0.8285    2.7594    1.5400 H   0  0  0  0  0  0  0  0  0  0  0  0
    0.3691    0.4993    0.8113 H   0  0  0  0  0  0  0  0  0  0  0  0
    2.1815    4.9252    2.6927 H   0  0  0  0  0  0  0  0  0  0  0  0
    3.7065    5.5443    4.5774 H   0  0  0  0  0  0  0  0  0  0  0  0
    4.5208    3.7627    6.1262 H   0  0  0  0  0  0  0  0  0  0  0  0
    3.8475    1.3972    5.7673 H   0  0  0  0  0  0  0  0  0  0  0  0
    2.0897   -2.1049    1.4650 H   0  0  0  0  0  0  0  0  0  0  0  0
    4.6501   -0.0687   -0.0716 H   0  0  0  0  0  0  0  0  0  0  0  0
    5.3978   -0.2553   -2.3549 H   0  0  0  0  0  0  0  0  0  0  0  0
    4.6322   -2.1369   -3.8120 H   0  0  0  0  0  0  0  0  0  0  0  0
    3.0917   -3.8514   -2.8691 H   0  0  0  0  0  0  0  0  0  0  0  0
    2.3689   -3.7257   -0.4945 H   0  0  0  0  0  0  0  0  0  0  0  0
  1  2  1  0
  1 23  1  0
  2 10  2  0
  2  3  1  0
  3 22  1  0
  3  4  1  0
  4  9  2  0
  4  5  1  0
  5  6  2  0
  5 24  1  0
  6  7  1  0
  6 25  1  0
  7  8  2  0
  7 26  1  0
  8  9  1  0
  8 27  1  0
  9 10  1  0
 10 11  1  0
 11 12  2  3
 12 13  1  0
 13 14  2  0
 13 15  1  0
 15 16  1  0
 15 28  1  0
 16 21  1  0
 16 17  2  0
 17 18  1  0
 17 29  1  0
 18 19  2  0
 18 30  1  0
 19 20  1  0
 19 31  1  0
 20 21  2  0
 20 32  1  0
 21 33  1  0
M  END
>  <i_m_ct_stereo_status>  (256) 
1

>  <s_m_source_file>  (256) 
/var/tmp/pbs.5076255.sched01/tmpos3i1bch/920fm1no0n.sdf

>  <i_m_source_file_index>  (256) 
14

>  <i_lp_mmshare_version>  (256) 
48012

>  <i_f3d_flags>  (256) 
0

>  <s_epik_input>  (256) 
W2NIXTFbY0hdW2NIXVtjSF1jKGMxMiljKGMoW09IXSlbbkhdMikvTj1OL0MoPVMpW05IXWMzW2NIXVtjSF1bY0hdW2NIXVtjSF0z

>  <s_epik_cmdline>  (256) 
J2VwaWtfcHl0aG9uJywgJy1waHQnLCAnMi4wJywgJy1waCcsICc3LjAnLCAnLXRuJywgJzgnLCAnLW1hJywgJzIwMCcsICctaW1hZScsICc8aW5maWxlLm1hZT4nLCAnLW9tYWUnLCAnPG91dGZpbGUubWFlPic=

>  <r_epik_Ionization_Penalty>  (256) 
0.00622285

>  <r_epik_Ionization_Penalty_Charging>  (256) 
0

>  <r_epik_Ionization_Penalty_Neutral>  (256) 
0.00622285

>  <r_epik_State_Penalty>  (256) 
0.0045908

>  <r_epik_Charging_Adjusted_Penalty>  (256) 
0.0045908

>  <i_epik_Tot_Q>  (256) 
0

>  <i_epik_Tot_abs_Q>  (256) 
0

>  <s_lp_Force_Field>  (256) 
OPLS3e

>  <r_lp_Energy>  (256) 
53.4735

>  <b_lp_Chiralities_Consistent>  (256) 
1

>  <s_lp_Variant>  (256) 
74:0-2

>  <s_i_glide_gridfile>  (256) 
pfpi4k_grid

>  <i_i_glide_lignum>  (256) 
14

>  <i_i_glide_rotatable_bonds>  (256) 
5

>  <r_i_docking_score>  (256) 
-3.27189

>  <r_i_glide_ligand_efficiency>  (256) 
-0.155804

>  <r_i_glide_ligand_efficiency_sa>  (256) 
-0.429852

>  <r_i_glide_ligand_efficiency_ln>  (256) 
-0.808968

>  <r_i_glide_gscore>  (256) 
-3.27189

>  <r_i_glide_lipo>  (256) 
-0.072473

>  <r_i_glide_hbond>  (256) 
-0.265048

>  <r_i_glide_metal>  (256) 
-0

>  <r_i_glide_rewards>  (256) 
-1.53693

>  <r_i_glide_evdw>  (256) 
-23.9569

>  <r_i_glide_ecoul>  (256) 
-4.77215

>  <r_i_glide_erotb>  (256) 
0.625761

>  <r_i_glide_esite>  (256) 
-0.109535

>  <r_i_glide_emodel>  (256) 
-31.7336

>  <r_i_glide_energy>  (256) 
-28.7291

>  <r_i_glide_einternal>  (256) 
7.81385

>  <r_i_glide_intrahb_reward>  (256) 
-0

>  <i_i_glide_confnum>  (256) 
4

>  <i_i_glide_posenum>  (256) 
31

>  <r_i_glide_eff_state_penalty>  (256) 
0

>  <ligand_id>  (256) 
74

>  <original_smiles>  (256) 
Oc1[nH]c2ccccc2c1N=NC(=S)Nc1ccccc1

>  <smiles>  (256) 
[H]Oc1c(N=NC(=S)N([H])c2c([H])c([H])c([H])c([H])c2[H])c2c([H])c([H])c([H])c([H])c2n1[H]

$$$$
74:1:2
     RDKit          3D

 33 35  0  0  1  0  0  0  0  0999 V2000
    1.3855   -4.4182    3.3196 O   0  0  0  0  0  0  0  0  0  0  0  0
    1.3124   -5.7770    3.3589 C   0  0  0  0  0  0  0  0  0  0  0  0
    1.5293   -6.3919    4.5761 N   0  0  0  0  0  0  0  0  0  0  0  0
    1.4254   -7.7736    4.4496 C   0  0  0  0  0  0  0  0  0  0  0  0
    1.6132   -8.8063    5.3794 C   0  0  0  0  0  0  0  0  0  0  0  0
    1.4224  -10.1338    4.9599 C   0  0  0  0  0  0  0  0  0  0  0  0
    1.0579  -10.4138    3.6267 C   0  0  0  0  0  0  0  0  0  0  0  0
    0.8995   -9.3771    2.7168 C   0  0  0  0  0  0  0  0  0  0  0  0
    1.0933   -8.0377    3.0811 C   0  0  0  0  0  0  0  0  0  0  0  0
    1.0912   -6.7550    2.4301 C   0  0  0  0  0  0  0  0  0  0  0  0
    0.9034   -6.5803    1.0345 N   0  0  0  0  0  0  0  0  0  0  0  0
    1.5987   -5.8449    0.2722 N   0  0  0  0  0  0  0  0  0  0  0  0
    2.8341   -5.3085    0.5828 C   0  0  0  0  0  0  0  0  0  0  0  0
    4.0374   -6.2407    1.2753 S   0  0  0  0  0  0  0  0  0  0  0  0
    2.9306   -4.0432    0.1074 N   0  0  0  0  0  0  0  0  0  0  0  0
    3.9635   -3.0432    0.2057 C   0  0  0  0  0  0  0  0  0  0  0  0
    4.0239   -2.0727   -0.8176 C   0  0  0  0  0  0  0  0  0  0  0  0
    4.9874   -1.0528   -0.7724 C   0  0  0  0  0  0  0  0  0  0  0  0
    5.8929   -0.9872    0.2988 C   0  0  0  0  0  0  0  0  0  0  0  0
    5.8235   -1.9298    1.3312 C   0  0  0  0  0  0  0  0  0  0  0  0
    4.8498   -2.9376    1.3043 C   0  0  0  0  0  0  0  0  0  0  0  0
    1.8355   -5.8817    5.3862 H   0  0  0  0  0  0  0  0  0  0  0  0
    1.5452   -4.1304    2.4290 H   0  0  0  0  0  0  0  0  0  0  0  0
    1.9011   -8.5883    6.3880 H   0  0  0  0  0  0  0  0  0  0  0  0
    1.5303  -10.9447    5.6802 H   0  0  0  0  0  0  0  0  0  0  0  0
    0.9077  -11.4400    3.3354 H   0  0  0  0  0  0  0  0  0  0  0  0
    0.6540   -9.6065    1.6833 H   0  0  0  0  0  0  0  0  0  0  0  0
    2.1859   -3.7975   -0.5236 H   0  0  0  0  0  0  0  0  0  0  0  0
    3.3246   -2.1098   -1.6415 H   0  0  0  0  0  0  0  0  0  0  0  0
    5.0200   -0.3153   -1.5586 H   0  0  0  0  0  0  0  0  0  0  0  0
    6.6253   -0.2047    0.3465 H   0  0  0  0  0  0  0  0  0  0  0  0
    6.5033   -1.8751    2.1598 H   0  0  0  0  0  0  0  0  0  0  0  0
    4.8042   -3.6113    2.1451 H   0  0  0  0  0  0  0  0  0  0  0  0
  1  2  1  0
  1 23  1  0
  2 10  2  0
  2  3  1  0
  3 22  1  0
  3  4  1  0
  4  9  2  0
  4  5  1  0
  5  6  2  0
  5 24  1  0
  6  7  1  0
  6 25  1  0
  7  8  2  0
  7 26  1  0
  8  9  1  0
  8 27  1  0
  9 10  1  0
 10 11  1  0
 11 12  2  3
 12 13  1  0
 13 14  2  0
 13 15  1  0
 15 16  1  0
 15 28  1  0
 16 21  1  0
 16 17  2  0
 17 18  1  0
 17 29  1  0
 18 19  2  0
 18 30  1  0
 19 20  1  0
 19 31  1  0
 20 21  2  0
 20 32  1  0
 21 33  1  0
M  END
>  <i_m_ct_stereo_status>  (257) 
1

>  <s_m_source_file>  (257) 
/var/tmp/pbs.5076255.sched01/tmpos3i1bch/920fm1no0n.sdf

>  <i_m_source_file_index>  (257) 
14

>  <i_lp_mmshare_version>  (257) 
48012

>  <i_f3d_flags>  (257) 
0

>  <s_epik_input>  (257) 
W2NIXTFbY0hdW2NIXVtjSF1jKGMxMiljKGMoW09IXSlbbkhdMikvTj1OL0MoPVMpW05IXWMzW2NIXVtjSF1bY0hdW2NIXVtjSF0z

>  <s_epik_cmdline>  (257) 
J2VwaWtfcHl0aG9uJywgJy1waHQnLCAnMi4wJywgJy1waCcsICc3LjAnLCAnLXRuJywgJzgnLCAnLW1hJywgJzIwMCcsICctaW1hZScsICc8aW5maWxlLm1hZT4nLCAnLW9tYWUnLCAnPG91dGZpbGUubWFlPic=

>  <r_epik_Ionization_Penalty>  (257) 
0.00622285

>  <r_epik_Ionization_Penalty_Charging>  (257) 
0

>  <r_epik_Ionization_Penalty_Neutral>  (257) 
0.00622285

>  <r_epik_State_Penalty>  (257) 
0.0045908

>  <r_epik_Charging_Adjusted_Penalty>  (257) 
0.0045908

>  <i_epik_Tot_Q>  (257) 
0

>  <i_epik_Tot_abs_Q>  (257) 
0

>  <s_lp_Force_Field>  (257) 
OPLS3e

>  <r_lp_Energy>  (257) 
53.4735

>  <b_lp_Chiralities_Consistent>  (257) 
1

>  <s_lp_Variant>  (257) 
74:0-2

>  <s_i_glide_gridfile>  (257) 
pfpi4k_grid

>  <i_i_glide_lignum>  (257) 
14

>  <i_i_glide_rotatable_bonds>  (257) 
5

>  <r_i_docking_score>  (257) 
-3.22615

>  <r_i_glide_ligand_efficiency>  (257) 
-0.153626

>  <r_i_glide_ligand_efficiency_sa>  (257) 
-0.423843

>  <r_i_glide_ligand_efficiency_ln>  (257) 
-0.797658

>  <r_i_glide_gscore>  (257) 
-3.22615

>  <r_i_glide_lipo>  (257) 
-0.336823

>  <r_i_glide_hbond>  (257) 
0

>  <r_i_glide_metal>  (257) 
-0

>  <r_i_glide_rewards>  (257) 
-1.47958

>  <r_i_glide_evdw>  (257) 
-25.7678

>  <r_i_glide_ecoul>  (257) 
-3.32021

>  <r_i_glide_erotb>  (257) 
0.625761

>  <r_i_glide_esite>  (257) 
-0.249085

>  <r_i_glide_emodel>  (257) 
-33.372

>  <r_i_glide_energy>  (257) 
-29.088

>  <r_i_glide_einternal>  (257) 
4.29155

>  <r_i_glide_intrahb_reward>  (257) 
-0

>  <i_i_glide_confnum>  (257) 
4

>  <i_i_glide_posenum>  (257) 
34

>  <r_i_glide_eff_state_penalty>  (257) 
0

>  <ligand_id>  (257) 
74

>  <original_smiles>  (257) 
Oc1[nH]c2ccccc2c1N=NC(=S)Nc1ccccc1

>  <smiles>  (257) 
[H]Oc1c(N=NC(=S)N([H])c2c([H])c([H])c([H])c([H])c2[H])c2c([H])c([H])c([H])c([H])c2n1[H]

$$$$
75:0:0
     RDKit          3D

 80 87  0  0  1  0  0  0  0  0999 V2000
    1.5503    5.2088    4.5419 C   0  0  0  0  0  0  0  0  0  0  0  0
    0.4774    4.6774    5.4883 C   0  0  0  0  0  0  0  0  0  0  0  0
   -0.5987    5.2620    5.5311 O   0  0  0  0  0  0  0  0  0  0  0  0
    0.7933    3.4671    6.4216 C   0  0  1  0  0  0  0  0  0  0  0  0
    1.7178    4.1338    7.4938 C   0  0  0  0  0  0  0  0  0  0  0  0
   -0.4820    2.8498    7.1182 C   0  0  0  0  0  0  0  0  0  0  0  0
   -0.7647    1.2754    6.9656 C   0  0  1  0  0  0  0  0  0  0  0  0
   -2.1668    1.0711    7.0138 O   0  0  0  0  0  0  0  0  0  0  0  0
   -0.0587    0.2179    5.8839 C   0  0  2  0  0  0  0  0  0  0  0  0
    1.5522   -0.0905    5.0836 C   0  0  2  0  0  0  0  0  0  0  0  0
    1.9700   -1.1763    5.9356 C   0  0  1  0  0  0  0  0  0  0  0  0
    2.1420   -0.2868    7.2229 C   0  0  0  0  0  0  0  0  0  0  0  0
    1.9372    1.3286    7.1316 C   0  0  0  0  0  0  0  0  0  0  0  0
    1.3517    2.1900    5.7152 C   0  0  2  0  0  0  0  0  0  0  0  0
    2.8507    2.1159    5.2400 C   0  0  0  0  0  0  0  0  0  0  0  0
    2.6157    1.0226    4.2568 C   0  0  1  0  0  0  0  0  0  0  0  0
    3.5550    0.0949    3.4771 C   0  0  0  0  0  0  0  0  0  0  0  0
    2.6713   -0.4467    2.2621 C   0  0  0  0  0  0  0  0  0  0  0  0
    1.1502    0.0877    2.0804 C   0  0  0  0  0  0  0  0  0  0  0  0
    0.4740    1.3693    2.8146 C   0  0  2  0  0  0  0  0  0  0  0  0
    1.2722    2.5049    2.5154 N   0  0  0  0  0  0  0  0  0  0  0  0
    2.5675    2.1213    3.0056 C   0  0  0  0  0  0  0  0  0  0  0  0
    0.0576    1.5656    4.3919 C   0  0  2  0  0  0  0  0  0  0  0  0
   -1.1736    2.5313    4.1408 C   0  0  0  0  0  0  0  0  0  0  0  0
   -0.7450    0.1285    4.7076 C   0  0  1  0  0  0  0  0  0  0  0  0
   -0.4804   -1.5203    4.6455 C   0  0  0  0  0  0  0  0  0  0  0  0
    0.7369   -2.2057    5.5710 C   0  0  1  0  0  0  0  0  0  0  0  0
    1.1763   -3.5616    4.9803 C   0  0  0  0  0  0  0  0  0  0  0  0
    2.3304   -3.6951    4.1774 C   0  0  0  0  0  0  0  0  0  0  0  0
    2.6780   -4.9593    3.6757 C   0  0  0  0  0  0  0  0  0  0  0  0
    1.8531   -6.0615    3.9740 C   0  0  0  0  0  0  0  0  0  0  0  0
    2.1834   -7.3386    3.4854 C   0  0  0  0  0  0  0  0  0  0  0  0
    1.3639   -8.4457    3.7874 C   0  0  0  0  0  0  0  0  0  0  0  0
    0.2160   -8.2582    4.5805 C   0  0  0  0  0  0  0  0  0  0  0  0
   -0.1090   -6.9715    5.0606 C   0  0  0  0  0  0  0  0  0  0  0  0
    0.7008   -5.8489    4.7763 C   0  0  0  0  0  0  0  0  0  0  0  0
    0.3740   -4.6214    5.2507 N   0  0  0  0  0  0  0  0  0  0  0  0
    2.0305    4.3912    4.0445 H   0  0  0  0  0  0  0  0  0  0  0  0
    2.3128    5.7800    5.0728 H   0  0  0  0  0  0  0  0  0  0  0  0
    1.1171    5.8106    3.7407 H   0  0  0  0  0  0  0  0  0  0  0  0
    1.8019    3.5901    8.4359 H   0  0  0  0  0  0  0  0  0  0  0  0
    1.3381    5.1147    7.7925 H   0  0  0  0  0  0  0  0  0  0  0  0
    2.7289    4.2941    7.1167 H   0  0  0  0  0  0  0  0  0  0  0  0
   -0.3999    3.0295    8.1933 H   0  0  0  0  0  0  0  0  0  0  0  0
   -1.3804    3.4278    6.9112 H   0  0  0  0  0  0  0  0  0  0  0  0
   -0.5394    0.8780    7.9564 H   0  0  0  0  0  0  0  0  0  0  0  0
   -2.5543    1.5558    6.2981 H   0  0  0  0  0  0  0  0  0  0  0  0
   -0.3786   -0.5428    6.5934 H   0  0  0  0  0  0  0  0  0  0  0  0
    1.5098   -0.6975    4.2185 H   0  0  0  0  0  0  0  0  0  0  0  0
    2.9367   -1.5987    5.6896 H   0  0  0  0  0  0  0  0  0  0  0  0
    1.5238   -0.6995    8.0203 H   0  0  0  0  0  0  0  0  0  0  0  0
    3.1568   -0.4576    7.5792 H   0  0  0  0  0  0  0  0  0  0  0  0
    1.3746    1.5214    8.0326 H   0  0  0  0  0  0  0  0  0  0  0  0
    2.8290    1.7722    7.5775 H   0  0  0  0  0  0  0  0  0  0  0  0
    3.2677    3.0871    4.9942 H   0  0  0  0  0  0  0  0  0  0  0  0
    3.6824    1.7513    5.8453 H   0  0  0  0  0  0  0  0  0  0  0  0
    4.4526    0.6049    3.1172 H   0  0  0  0  0  0  0  0  0  0  0  0
    3.9494   -0.7181    4.0811 H   0  0  0  0  0  0  0  0  0  0  0  0
    3.2203   -0.2598    1.3363 H   0  0  0  0  0  0  0  0  0  0  0  0
    2.6412   -1.5325    2.2977 H   0  0  0  0  0  0  0  0  0  0  0  0
    1.1064    0.3423    1.0187 H   0  0  0  0  0  0  0  0  0  0  0  0
    0.4852   -0.7634    2.1210 H   0  0  0  0  0  0  0  0  0  0  0  0
   -0.4208    1.4777    2.2040 H   0  0  0  0  0  0  0  0  0  0  0  0
    1.2682    2.6897    1.5233 H   0  0  0  0  0  0  0  0  0  0  0  0
    3.2086    2.9923    3.0782 H   0  0  0  0  0  0  0  0  0  0  0  0
    3.0655    1.8405    2.0813 H   0  0  0  0  0  0  0  0  0  0  0  0
   -1.9256    2.0706    3.4960 H   0  0  0  0  0  0  0  0  0  0  0  0
   -0.9081    3.4529    3.6258 H   0  0  0  0  0  0  0  0  0  0  0  0
   -1.7669    2.7915    5.0033 H   0  0  0  0  0  0  0  0  0  0  0  0
   -1.8189    0.2655    4.7755 H   0  0  0  0  0  0  0  0  0  0  0  0
   -1.4013   -2.0296    4.9214 H   0  0  0  0  0  0  0  0  0  0  0  0
   -0.3334   -1.8383    3.6273 H   0  0  0  0  0  0  0  0  0  0  0  0
    0.3025   -2.4937    6.5316 H   0  0  0  0  0  0  0  0  0  0  0  0
    2.9669   -2.8573    3.9482 H   0  0  0  0  0  0  0  0  0  0  0  0
    3.5675   -5.0782    3.0734 H   0  0  0  0  0  0  0  0  0  0  0  0
    3.0676   -7.4878    2.8818 H   0  0  0  0  0  0  0  0  0  0  0  0
    1.6210   -9.4330    3.4175 H   0  0  0  0  0  0  0  0  0  0  0  0
   -0.4099   -9.1131    4.8220 H   0  0  0  0  0  0  0  0  0  0  0  0
   -0.9855   -6.8417    5.6717 H   0  0  0  0  0  0  0  0  0  0  0  0
    0.8962    3.3103    2.9832 H   0  0  0  0  0  0  0  0  0  0  0  0
  1  2  1  0
  1 38  1  0
  1 39  1  0
  1 40  1  0
  2  3  2  0
  2  4  1  0
  4 14  1  0
  4  5  1  1
  4  6  1  0
  5 41  1  0
  5 42  1  0
  5 43  1  0
  6  7  1  0
  6 44  1  0
  6 45  1  0
  7  8  1  0
  7  9  1  0
  7 46  1  1
  8 47  1  0
  9 25  1  0
  9 10  1  0
  9 48  1  1
 10 16  1  0
 10 11  1  0
 10 49  1  6
 11 27  1  0
 11 12  1  0
 11 50  1  6
 12 13  1  0
 12 51  1  0
 12 52  1  0
 14 13  1  1
 13 53  1  0
 13 54  1  0
 14 23  1  0
 14 15  1  0
 15 16  1  0
 15 55  1  0
 15 56  1  0
 16 22  1  0
 16 17  1  6
 17 18  1  0
 17 57  1  0
 17 58  1  0
 18 19  1  0
 18 59  1  0
 18 60  1  0
 19 20  1  0
 19 61  1  0
 19 62  1  0
 20 21  1  0
 20 23  1  0
 20 63  1  6
 21 22  1  0
 21 64  1  0
 21 80  1  0
 22 65  1  0
 22 66  1  0
 23 24  1  6
 23 25  1  0
 24 67  1  0
 24 68  1  0
 24 69  1  0
 25 26  1  0
 25 70  1  1
 26 27  1  0
 26 71  1  0
 26 72  1  0
 27 28  1  0
 27 73  1  1
 28 37  1  0
 28 29  2  0
 29 30  1  0
 29 74  1  0
 30 31  2  0
 30 75  1  0
 31 36  1  0
 31 32  1  0
 32 33  2  0
 32 76  1  0
 33 34  1  0
 33 77  1  0
 34 35  2  0
 34 78  1  0
 35 36  1  0
 35 79  1  0
 36 37  2  0
M  CHG  1  21   1
M  END
>  <i_m_ct_stereo_status>  (258) 
1

>  <s_m_source_file>  (258) 
/var/tmp/pbs.5076255.sched01/tmpos3i1bch/920fm1no0n.sdf

>  <i_m_source_file_index>  (258) 
15

>  <i_lp_mmshare_version>  (258) 
48012

>  <i_f3d_flags>  (258) 
0

>  <s_epik_input>  (258) 
W0NAXTEyM1tDQEBdNChbQ0gzXSlbQ0BASF01W0NIMl1bQ0gyXVtDSDJdQyhbQ0gyXTMpKFtDSDJdW05IXTUpW0NIXTZbQ0BASF0oW0NASF0oW09IXSlbQ0gyXVtDQF0xKFtDSDNdKUMoPU8pW0NIM10pW0NAQEhdNFtDSDJdW0NASF0oW0NAQEhdNltDSDJdW0NIMl0yKWMoW2NIXVtjSF03KW5jKGM3OClbY0hdW2NIXVtjSF1bY0hdOA==

>  <s_epik_cmdline>  (258) 
J2VwaWtfcHl0aG9uJywgJy1waHQnLCAnMi4wJywgJy1waCcsICc3LjAnLCAnLXRuJywgJzgnLCAnLW1hJywgJzIwMCcsICctaW1hZScsICc8aW5maWxlLm1hZT4nLCAnLW9tYWUnLCAnPG91dGZpbGUubWFlPic=

>  <r_lp_tautomer_probability>  (258) 
0.99995

>  <r_epik_Ionization_Penalty>  (258) 
0.0446758

>  <r_epik_Ionization_Penalty_Charging>  (258) 
0.000135811

>  <r_epik_Ionization_Penalty_Neutral>  (258) 
0.04454

>  <r_epik_State_Penalty>  (258) 
0.0377544

>  <r_epik_Charging_Adjusted_Penalty>  (258) 
0.0378902

>  <i_epik_Tot_Q>  (258) 
1

>  <i_epik_Tot_abs_Q>  (258) 
1

>  <s_lp_Force_Field>  (258) 
OPLS3e

>  <r_lp_Energy>  (258) 
669.121

>  <b_lp_Chiralities_Consistent>  (258) 
1

>  <s_lp_Variant>  (258) 
75:0-1

>  <s_i_glide_gridfile>  (258) 
pfpi4k_grid

>  <i_i_glide_lignum>  (258) 
15

>  <i_i_glide_rotatable_bonds>  (258) 
3

>  <r_i_docking_score>  (258) 
-3.06406

>  <r_i_glide_ligand_efficiency>  (258) 
-0.0828124

>  <r_i_glide_ligand_efficiency_sa>  (258) 
-0.275949

>  <r_i_glide_ligand_efficiency_ln>  (258) 
-0.664523

>  <r_i_glide_gscore>  (258) 
-3.06406

>  <r_i_glide_lipo>  (258) 
-0.00845458

>  <r_i_glide_hbond>  (258) 
-0.219012

>  <r_i_glide_metal>  (258) 
-0

>  <r_i_glide_rewards>  (258) 
-0.00199964

>  <r_i_glide_evdw>  (258) 
-27.6696

>  <r_i_glide_ecoul>  (258) 
-9.53515

>  <r_i_glide_erotb>  (258) 
0.0817546

>  <r_i_glide_esite>  (258) 
-0.102595

>  <r_i_glide_emodel>  (258) 
-45.0969

>  <r_i_glide_energy>  (258) 
-37.2048

>  <r_i_glide_einternal>  (258) 
2.57264

>  <r_i_glide_intrahb_reward>  (258) 
-0

>  <i_i_glide_confnum>  (258) 
6

>  <i_i_glide_posenum>  (258) 
36

>  <r_i_glide_eff_state_penalty>  (258) 
0

>  <ligand_id>  (258) 
75

>  <original_smiles>  (258) 
CC(=O)C1(C)CC(O)C2C3C4CCC15CC31CCCC(NC1)C5(C)C2CC4c1ccc2ccccc2n1

>  <smiles>  (258) 
[H]OC1([H])C([H])([H])C(C(=O)C([H])([H])[H])(C([H])([H])[H])C23C([H])([H])C([H])([H])C4([H])C([H])(c5nc6c([H])c([H])c([H])c([H])c6c([H])c5[H])C([H])([H])C5([H])C1([H])C4([H])C1(C([H])([H])C([H])([H])C([H])([H])C([H])(C52C([H])([H])[H])[N+]([H])([H])C1([H])[H])C3([H])[H]

$$$$
75:0:1
     RDKit          3D

 80 87  0  0  1  0  0  0  0  0999 V2000
    3.6429  -12.4082    4.9627 C   0  0  0  0  0  0  0  0  0  0  0  0
    3.3904  -11.1795    4.0827 C   0  0  0  0  0  0  0  0  0  0  0  0
    4.2415  -10.8379    3.2588 O   0  0  0  0  0  0  0  0  0  0  0  0
    2.0601  -10.3933    4.2198 C   0  0  1  0  0  0  0  0  0  0  0  0
    1.0215  -11.3577    3.5637 C   0  0  0  0  0  0  0  0  0  0  0  0
    1.6498  -10.0658    5.6901 C   0  0  0  0  0  0  0  0  0  0  0  0
    1.3531   -8.5417    6.0991 C   0  0  1  0  0  0  0  0  0  0  0  0
    1.6851   -8.4149    7.4710 O   0  0  0  0  0  0  0  0  0  0  0  0
    1.7558   -7.1624    5.2429 C   0  0  2  0  0  0  0  0  0  0  0  0
    1.8821   -6.5783    3.5137 C   0  0  2  0  0  0  0  0  0  0  0  0
    0.6462   -5.8401    3.4884 C   0  0  1  0  0  0  0  0  0  0  0  0
   -0.2783   -7.1217    3.5799 C   0  0  0  0  0  0  0  0  0  0  0  0
    0.3845   -8.6114    3.5677 C   0  0  0  0  0  0  0  0  0  0  0  0
    2.1057   -8.9457    3.6367 C   0  0  2  0  0  0  0  0  0  0  0  0
    2.0748   -8.7272    2.0879 C   0  0  0  0  0  0  0  0  0  0  0  0
    2.6582   -7.3513    2.1412 C   0  0  1  0  0  0  0  0  0  0  0  0
    2.7753   -6.2101    1.1177 C   0  0  0  0  0  0  0  0  0  0  0  0
    3.9871   -5.3034    1.6208 C   0  0  0  0  0  0  0  0  0  0  0  0
    4.7603   -5.7192    2.9977 C   0  0  0  0  0  0  0  0  0  0  0  0
    4.7118   -7.1813    3.7220 C   0  0  2  0  0  0  0  0  0  0  0  0
    5.0949   -8.1512    2.7581 N   0  0  0  0  0  0  0  0  0  0  0  0
    4.1384   -7.9746    1.7108 C   0  0  0  0  0  0  0  0  0  0  0  0
    3.4951   -7.9119    4.5528 C   0  0  2  0  0  0  0  0  0  0  0  0
    4.4121   -8.7375    5.5513 C   0  0  0  0  0  0  0  0  0  0  0  0
    2.9882   -6.6808    5.5703 C   0  0  1  0  0  0  0  0  0  0  0  0
    2.4444   -5.1039    5.4882 C   0  0  0  0  0  0  0  0  0  0  0  0
    1.0083   -4.7748    4.6876 C   0  0  1  0  0  0  0  0  0  0  0  0
    0.9165   -3.2850    4.2673 C   0  0  0  0  0  0  0  0  0  0  0  0
    1.8743   -2.7484    3.3886 C   0  0  0  0  0  0  0  0  0  0  0  0
    1.7822   -1.4001    2.9865 C   0  0  0  0  0  0  0  0  0  0  0  0
    0.7696   -0.6099    3.5373 C   0  0  0  0  0  0  0  0  0  0  0  0
    0.6694    0.7453    3.1704 C   0  0  0  0  0  0  0  0  0  0  0  0
   -0.3536    1.5440    3.7224 C   0  0  0  0  0  0  0  0  0  0  0  0
   -1.2610    0.9648    4.6366 C   0  0  0  0  0  0  0  0  0  0  0  0
   -1.1471   -0.3902    4.9977 C   0  0  0  0  0  0  0  0  0  0  0  0
   -0.1349   -1.2025    4.4522 C   0  0  0  0  0  0  0  0  0  0  0  0
   -0.0637   -2.5151    4.7947 N   0  0  0  0  0  0  0  0  0  0  0  0
    2.7582  -13.0352    5.0478 H   0  0  0  0  0  0  0  0  0  0  0  0
    3.9311  -12.1294    5.9768 H   0  0  0  0  0  0  0  0  0  0  0  0
    4.4299  -13.0286    4.5353 H   0  0  0  0  0  0  0  0  0  0  0  0
   -0.0183  -11.1571    3.8197 H   0  0  0  0  0  0  0  0  0  0  0  0
    1.1472  -12.3849    3.8935 H   0  0  0  0  0  0  0  0  0  0  0  0
    1.1165  -11.3685    2.4853 H   0  0  0  0  0  0  0  0  0  0  0  0
    0.7256  -10.6081    5.9065 H   0  0  0  0  0  0  0  0  0  0  0  0
    2.3209  -10.5476    6.3986 H   0  0  0  0  0  0  0  0  0  0  0  0
    0.2678   -8.5133    6.2155 H   0  0  0  0  0  0  0  0  0  0  0  0
    1.5048   -9.2454    7.8921 H   0  0  0  0  0  0  0  0  0  0  0  0
    0.9807   -6.6996    5.8460 H   0  0  0  0  0  0  0  0  0  0  0  0
    2.4854   -5.7186    3.3689 H   0  0  0  0  0  0  0  0  0  0  0  0
    0.4891   -5.3146    2.5530 H   0  0  0  0  0  0  0  0  0  0  0  0
   -0.9298   -7.0254    4.4501 H   0  0  0  0  0  0  0  0  0  0  0  0
   -0.9691   -7.0841    2.7409 H   0  0  0  0  0  0  0  0  0  0  0  0
   -0.1846   -9.1090    4.3393 H   0  0  0  0  0  0  0  0  0  0  0  0
   -0.1383   -9.1758    2.7925 H   0  0  0  0  0  0  0  0  0  0  0  0
    2.5108   -9.5957    1.5840 H   0  0  0  0  0  0  0  0  0  0  0  0
    1.1695   -8.6035    1.4883 H   0  0  0  0  0  0  0  0  0  0  0  0
    2.9686   -6.5561    0.1014 H   0  0  0  0  0  0  0  0  0  0  0  0
    1.8602   -5.6312    1.0352 H   0  0  0  0  0  0  0  0  0  0  0  0
    4.7289   -5.2592    0.8157 H   0  0  0  0  0  0  0  0  0  0  0  0
    3.6683   -4.2639    1.6172 H   0  0  0  0  0  0  0  0  0  0  0  0
    5.8072   -5.5690    2.7443 H   0  0  0  0  0  0  0  0  0  0  0  0
    4.6150   -4.9402    3.7363 H   0  0  0  0  0  0  0  0  0  0  0  0
    5.5602   -7.0785    4.3955 H   0  0  0  0  0  0  0  0  0  0  0  0
    6.0168   -7.9565    2.4204 H   0  0  0  0  0  0  0  0  0  0  0  0
    4.1916   -8.8694    1.0981 H   0  0  0  0  0  0  0  0  0  0  0  0
    4.7092   -7.4286    0.9636 H   0  0  0  0  0  0  0  0  0  0  0  0
    5.0600   -8.0789    6.1355 H   0  0  0  0  0  0  0  0  0  0  0  0
    5.1108   -9.4220    5.0698 H   0  0  0  0  0  0  0  0  0  0  0  0
    3.9031   -9.2836    6.3336 H   0  0  0  0  0  0  0  0  0  0  0  0
    3.2949   -6.8531    6.5978 H   0  0  0  0  0  0  0  0  0  0  0  0
    2.2998   -4.7415    6.5039 H   0  0  0  0  0  0  0  0  0  0  0  0
    3.2342   -4.4589    5.1260 H   0  0  0  0  0  0  0  0  0  0  0  0
    0.2023   -4.8735    5.4145 H   0  0  0  0  0  0  0  0  0  0  0  0
    2.6949   -3.3541    3.0718 H   0  0  0  0  0  0  0  0  0  0  0  0
    2.5015   -0.9819    2.2890 H   0  0  0  0  0  0  0  0  0  0  0  0
    1.3556    1.1915    2.4660 H   0  0  0  0  0  0  0  0  0  0  0  0
   -0.4427    2.5921    3.4346 H   0  0  0  0  0  0  0  0  0  0  0  0
   -2.0643    1.5719    5.0547 H   0  0  0  0  0  0  0  0  0  0  0  0
   -1.8507   -0.8371    5.6820 H   0  0  0  0  0  0  0  0  0  0  0  0
    5.0084   -9.0831    3.1337 H   0  0  0  0  0  0  0  0  0  0  0  0
  1  2  1  0
  1 38  1  0
  1 39  1  0
  1 40  1  0
  2  3  2  0
  2  4  1  0
  4 14  1  0
  4  5  1  6
  4  6  1  0
  5 41  1  0
  5 42  1  0
  5 43  1  0
  6  7  1  0
  6 44  1  0
  6 45  1  0
  7  8  1  0
  7  9  1  0
  7 46  1  1
  8 47  1  0
  9 25  1  0
  9 10  1  0
  9 48  1  1
 10 16  1  0
 10 11  1  0
 10 49  1  1
 11 27  1  0
 11 12  1  0
 11 50  1  6
 12 13  1  0
 12 51  1  0
 12 52  1  0
 14 13  1  1
 13 53  1  0
 13 54  1  0
 14 23  1  0
 14 15  1  0
 15 16  1  0
 15 55  1  0
 15 56  1  0
 16 22  1  0
 16 17  1  6
 17 18  1  0
 17 57  1  0
 17 58  1  0
 18 19  1  0
 18 59  1  0
 18 60  1  0
 19 20  1  0
 19 61  1  0
 19 62  1  0
 20 21  1  0
 20 23  1  0
 20 63  1  1
 21 22  1  0
 21 64  1  0
 21 80  1  0
 22 65  1  0
 22 66  1  0
 23 24  1  1
 23 25  1  0
 24 67  1  0
 24 68  1  0
 24 69  1  0
 25 26  1  0
 25 70  1  1
 26 27  1  0
 26 71  1  0
 26 72  1  0
 27 28  1  0
 27 73  1  1
 28 37  1  0
 28 29  2  0
 29 30  1  0
 29 74  1  0
 30 31  2  0
 30 75  1  0
 31 36  1  0
 31 32  1  0
 32 33  2  0
 32 76  1  0
 33 34  1  0
 33 77  1  0
 34 35  2  0
 34 78  1  0
 35 36  1  0
 35 79  1  0
 36 37  2  0
M  CHG  1  21   1
M  END
>  <i_m_ct_stereo_status>  (259) 
1

>  <s_m_source_file>  (259) 
/var/tmp/pbs.5076255.sched01/tmpos3i1bch/920fm1no0n.sdf

>  <i_m_source_file_index>  (259) 
15

>  <i_lp_mmshare_version>  (259) 
48012

>  <i_f3d_flags>  (259) 
0

>  <s_epik_input>  (259) 
W0NAXTEyM1tDQEBdNChbQ0gzXSlbQ0BASF01W0NIMl1bQ0gyXVtDSDJdQyhbQ0gyXTMpKFtDSDJdW05IXTUpW0NIXTZbQ0BASF0oW0NASF0oW09IXSlbQ0gyXVtDQF0xKFtDSDNdKUMoPU8pW0NIM10pW0NAQEhdNFtDSDJdW0NASF0oW0NAQEhdNltDSDJdW0NIMl0yKWMoW2NIXVtjSF03KW5jKGM3OClbY0hdW2NIXVtjSF1bY0hdOA==

>  <s_epik_cmdline>  (259) 
J2VwaWtfcHl0aG9uJywgJy1waHQnLCAnMi4wJywgJy1waCcsICc3LjAnLCAnLXRuJywgJzgnLCAnLW1hJywgJzIwMCcsICctaW1hZScsICc8aW5maWxlLm1hZT4nLCAnLW9tYWUnLCAnPG91dGZpbGUubWFlPic=

>  <r_lp_tautomer_probability>  (259) 
0.99995

>  <r_epik_Ionization_Penalty>  (259) 
0.0446758

>  <r_epik_Ionization_Penalty_Charging>  (259) 
0.000135811

>  <r_epik_Ionization_Penalty_Neutral>  (259) 
0.04454

>  <r_epik_State_Penalty>  (259) 
0.0377544

>  <r_epik_Charging_Adjusted_Penalty>  (259) 
0.0378902

>  <i_epik_Tot_Q>  (259) 
1

>  <i_epik_Tot_abs_Q>  (259) 
1

>  <s_lp_Force_Field>  (259) 
OPLS3e

>  <r_lp_Energy>  (259) 
669.121

>  <b_lp_Chiralities_Consistent>  (259) 
1

>  <s_lp_Variant>  (259) 
75:0-1

>  <s_i_glide_gridfile>  (259) 
pfpi4k_grid

>  <i_i_glide_lignum>  (259) 
15

>  <i_i_glide_rotatable_bonds>  (259) 
3

>  <r_i_docking_score>  (259) 
-2.66162

>  <r_i_glide_ligand_efficiency>  (259) 
-0.0719357

>  <r_i_glide_ligand_efficiency_sa>  (259) 
-0.239706

>  <r_i_glide_ligand_efficiency_ln>  (259) 
-0.577243

>  <r_i_glide_gscore>  (259) 
-2.66162

>  <r_i_glide_lipo>  (259) 
-0.286551

>  <r_i_glide_hbond>  (259) 
0

>  <r_i_glide_metal>  (259) 
-0

>  <r_i_glide_rewards>  (259) 
-0.502

>  <r_i_glide_evdw>  (259) 
-33.3719

>  <r_i_glide_ecoul>  (259) 
-1.77659

>  <r_i_glide_erotb>  (259) 
0.0817546

>  <r_i_glide_esite>  (259) 
-0.0197416

>  <r_i_glide_emodel>  (259) 
-46.291

>  <r_i_glide_energy>  (259) 
-35.1485

>  <r_i_glide_einternal>  (259) 
2.68679

>  <r_i_glide_intrahb_reward>  (259) 
-0.5

>  <i_i_glide_confnum>  (259) 
6

>  <i_i_glide_posenum>  (259) 
30

>  <r_i_glide_eff_state_penalty>  (259) 
0

>  <ligand_id>  (259) 
75

>  <original_smiles>  (259) 
CC(=O)C1(C)CC(O)C2C3C4CCC15CC31CCCC(NC1)C5(C)C2CC4c1ccc2ccccc2n1

>  <smiles>  (259) 
[H]OC1([H])C([H])([H])C(C(=O)C([H])([H])[H])(C([H])([H])[H])C23C([H])([H])C([H])([H])C4([H])C([H])(c5nc6c([H])c([H])c([H])c([H])c6c([H])c5[H])C([H])([H])C5([H])C1([H])C4([H])C1(C([H])([H])C([H])([H])C([H])([H])C([H])(C52C([H])([H])[H])[N+]([H])([H])C1([H])[H])C3([H])[H]

$$$$
75:0:2
     RDKit          3D

 80 87  0  0  1  0  0  0  0  0999 V2000
    3.9809  -11.4831    3.3041 C   0  0  0  0  0  0  0  0  0  0  0  0
    3.3547  -11.0561    4.6330 C   0  0  0  0  0  0  0  0  0  0  0  0
    3.8900  -11.4284    5.6750 O   0  0  0  0  0  0  0  0  0  0  0  0
    2.0248  -10.2385    4.6275 C   0  0  1  0  0  0  0  0  0  0  0  0
    1.0356  -11.2509    3.9589 C   0  0  0  0  0  0  0  0  0  0  0  0
    1.4992   -9.8404    6.0627 C   0  0  0  0  0  0  0  0  0  0  0  0
    1.1741   -8.3036    6.3859 C   0  0  1  0  0  0  0  0  0  0  0  0
    1.4082   -8.1124    7.7708 O   0  0  0  0  0  0  0  0  0  0  0  0
    1.6336   -6.9623    5.4965 C   0  0  2  0  0  0  0  0  0  0  0  0
    1.8700   -6.4523    3.7554 C   0  0  2  0  0  0  0  0  0  0  0  0
    0.6397   -5.7196    3.6110 C   0  0  1  0  0  0  0  0  0  0  0  0
   -0.2838   -7.0051    3.7014 C   0  0  0  0  0  0  0  0  0  0  0  0
    0.3845   -8.4949    3.8063 C   0  0  0  0  0  0  0  0  0  0  0  0
    2.1052   -8.8146    3.9827 C   0  0  2  0  0  0  0  0  0  0  0  0
    2.1362   -8.6342    2.4180 C   0  0  0  0  0  0  0  0  0  0  0  0
    2.7269   -7.2669    2.4640 C   0  0  1  0  0  0  0  0  0  0  0  0
    2.9107   -6.1632    1.4146 C   0  0  0  0  0  0  0  0  0  0  0  0
    4.0508   -5.2150    2.0040 C   0  0  0  0  0  0  0  0  0  0  0  0
    4.7794   -5.5946    3.4068 C   0  0  0  0  0  0  0  0  0  0  0  0
    4.6855   -7.0266    4.1804 C   0  0  2  0  0  0  0  0  0  0  0  0
    5.1361   -8.0337    3.2798 N   0  0  0  0  0  0  0  0  0  0  0  0
    4.2406   -7.8992    2.1631 C   0  0  0  0  0  0  0  0  0  0  0  0
    3.4187   -7.7344    4.9556 C   0  0  2  0  0  0  0  0  0  0  0  0
    4.2752   -8.5064    6.0392 C   0  0  0  0  0  0  0  0  0  0  0  0
    2.8455   -6.4636    5.8876 C   0  0  1  0  0  0  0  0  0  0  0  0
    2.3131   -4.8919    5.6999 C   0  0  0  0  0  0  0  0  0  0  0  0
    0.9412   -4.5978    4.7770 C   0  0  1  0  0  0  0  0  0  0  0  0
    0.9106   -3.1415    4.2872 C   0  0  0  0  0  0  0  0  0  0  0  0
   -0.0321   -2.2205    4.7897 C   0  0  0  0  0  0  0  0  0  0  0  0
    0.0223   -0.8823    4.3516 C   0  0  0  0  0  0  0  0  0  0  0  0
    1.0239   -0.5060    3.4347 C   0  0  0  0  0  0  0  0  0  0  0  0
    1.1097    0.8260    2.9744 C   0  0  0  0  0  0  0  0  0  0  0  0
    2.1212    1.1909    2.0685 C   0  0  0  0  0  0  0  0  0  0  0  0
    3.0444    0.2270    1.6269 C   0  0  0  0  0  0  0  0  0  0  0  0
    2.9546   -1.1005    2.0855 C   0  0  0  0  0  0  0  0  0  0  0  0
    1.9414   -1.4937    2.9856 C   0  0  0  0  0  0  0  0  0  0  0  0
    1.8698   -2.7812    3.4028 N   0  0  0  0  0  0  0  0  0  0  0  0
    3.9633  -10.7022    2.5536 H   0  0  0  0  0  0  0  0  0  0  0  0
    3.4538  -12.3521    2.9054 H   0  0  0  0  0  0  0  0  0  0  0  0
    5.0279  -11.7511    3.4483 H   0  0  0  0  0  0  0  0  0  0  0  0
   -0.0218  -11.0542    4.1309 H   0  0  0  0  0  0  0  0  0  0  0  0
    1.1790  -12.2580    4.3547 H   0  0  0  0  0  0  0  0  0  0  0  0
    1.1821  -11.3137    2.8804 H   0  0  0  0  0  0  0  0  0  0  0  0
    0.5652  -10.3805    6.2367 H   0  0  0  0  0  0  0  0  0  0  0  0
    2.1109  -10.2689    6.8525 H   0  0  0  0  0  0  0  0  0  0  0  0
    0.0835   -8.2739    6.4302 H   0  0  0  0  0  0  0  0  0  0  0  0
    1.2657   -8.9381    8.2110 H   0  0  0  0  0  0  0  0  0  0  0  0
    0.8162   -6.4709    6.0239 H   0  0  0  0  0  0  0  0  0  0  0  0
    2.4847   -5.6007    3.6259 H   0  0  0  0  0  0  0  0  0  0  0  0
    0.5386   -5.2380    2.6459 H   0  0  0  0  0  0  0  0  0  0  0  0
   -0.9926   -6.8689    4.5205 H   0  0  0  0  0  0  0  0  0  0  0  0
   -0.9175   -7.0131    2.8169 H   0  0  0  0  0  0  0  0  0  0  0  0
   -0.2380   -8.9631    4.5584 H   0  0  0  0  0  0  0  0  0  0  0  0
   -0.0958   -9.0961    3.0289 H   0  0  0  0  0  0  0  0  0  0  0  0
    2.5717   -9.4839    1.9057 H   0  0  0  0  0  0  0  0  0  0  0  0
    1.2611   -8.5181    1.7777 H   0  0  0  0  0  0  0  0  0  0  0  0
    3.1917   -6.5535    0.4337 H   0  0  0  0  0  0  0  0  0  0  0  0
    1.9991   -5.6073    1.2214 H   0  0  0  0  0  0  0  0  0  0  0  0
    4.8151   -5.0884    1.2346 H   0  0  0  0  0  0  0  0  0  0  0  0
    3.6340   -4.2141    2.0982 H   0  0  0  0  0  0  0  0  0  0  0  0
    5.8390   -5.4542    3.1912 H   0  0  0  0  0  0  0  0  0  0  0  0
    4.6092   -4.7898    4.1085 H   0  0  0  0  0  0  0  0  0  0  0  0
    5.5002   -6.9001    4.8916 H   0  0  0  0  0  0  0  0  0  0  0  0
    6.0869   -7.8516    2.9933 H   0  0  0  0  0  0  0  0  0  0  0  0
    4.3310   -8.8195    1.5920 H   0  0  0  0  0  0  0  0  0  0  0  0
    4.8676   -7.3591    1.4559 H   0  0  0  0  0  0  0  0  0  0  0  0
    4.8841   -7.8272    6.6403 H   0  0  0  0  0  0  0  0  0  0  0  0
    4.9948   -9.1989    5.6095 H   0  0  0  0  0  0  0  0  0  0  0  0
    3.7192   -9.0197    6.8083 H   0  0  0  0  0  0  0  0  0  0  0  0
    3.0803   -6.5875    6.9426 H   0  0  0  0  0  0  0  0  0  0  0  0
    2.1047   -4.4842    6.6877 H   0  0  0  0  0  0  0  0  0  0  0  0
    3.1234   -4.2592    5.3578 H   0  0  0  0  0  0  0  0  0  0  0  0
    0.0775   -4.6455    5.4444 H   0  0  0  0  0  0  0  0  0  0  0  0
   -0.7819   -2.5197    5.5068 H   0  0  0  0  0  0  0  0  0  0  0  0
   -0.6846   -0.1519    4.7126 H   0  0  0  0  0  0  0  0  0  0  0  0
    0.4036    1.5752    3.2979 H   0  0  0  0  0  0  0  0  0  0  0  0
    2.1780    2.2082    1.7007 H   0  0  0  0  0  0  0  0  0  0  0  0
    3.8148    0.5037    0.9219 H   0  0  0  0  0  0  0  0  0  0  0  0
    3.6635   -1.8316    1.7350 H   0  0  0  0  0  0  0  0  0  0  0  0
    5.0575   -8.9414    3.7160 H   0  0  0  0  0  0  0  0  0  0  0  0
  1  2  1  0
  1 38  1  0
  1 39  1  0
  1 40  1  0
  2  3  2  0
  2  4  1  0
  4 14  1  0
  4  5  1  6
  4  6  1  0
  5 41  1  0
  5 42  1  0
  5 43  1  0
  6  7  1  0
  6 44  1  0
  6 45  1  0
  7  8  1  0
  7  9  1  0
  7 46  1  1
  8 47  1  0
  9 25  1  0
  9 10  1  0
  9 48  1  1
 10 16  1  0
 10 11  1  0
 10 49  1  1
 11 27  1  0
 11 12  1  0
 11 50  1  6
 12 13  1  0
 12 51  1  0
 12 52  1  0
 14 13  1  1
 13 53  1  0
 13 54  1  0
 14 23  1  0
 14 15  1  0
 15 16  1  0
 15 55  1  0
 15 56  1  0
 16 22  1  0
 16 17  1  6
 17 18  1  0
 17 57  1  0
 17 58  1  0
 18 19  1  0
 18 59  1  0
 18 60  1  0
 19 20  1  0
 19 61  1  0
 19 62  1  0
 20 21  1  0
 20 23  1  0
 20 63  1  1
 21 22  1  0
 21 64  1  0
 21 80  1  0
 22 65  1  0
 22 66  1  0
 23 24  1  1
 23 25  1  0
 24 67  1  0
 24 68  1  0
 24 69  1  0
 25 26  1  0
 25 70  1  1
 26 27  1  0
 26 71  1  0
 26 72  1  0
 27 28  1  0
 27 73  1  1
 28 37  1  0
 28 29  2  0
 29 30  1  0
 29 74  1  0
 30 31  2  0
 30 75  1  0
 31 36  1  0
 31 32  1  0
 32 33  2  0
 32 76  1  0
 33 34  1  0
 33 77  1  0
 34 35  2  0
 34 78  1  0
 35 36  1  0
 35 79  1  0
 36 37  2  0
M  CHG  1  21   1
M  END
>  <i_m_ct_stereo_status>  (260) 
1

>  <s_m_source_file>  (260) 
/var/tmp/pbs.5076255.sched01/tmpos3i1bch/920fm1no0n.sdf

>  <i_m_source_file_index>  (260) 
15

>  <i_lp_mmshare_version>  (260) 
48012

>  <i_f3d_flags>  (260) 
0

>  <s_epik_input>  (260) 
W0NAXTEyM1tDQEBdNChbQ0gzXSlbQ0BASF01W0NIMl1bQ0gyXVtDSDJdQyhbQ0gyXTMpKFtDSDJdW05IXTUpW0NIXTZbQ0BASF0oW0NASF0oW09IXSlbQ0gyXVtDQF0xKFtDSDNdKUMoPU8pW0NIM10pW0NAQEhdNFtDSDJdW0NASF0oW0NAQEhdNltDSDJdW0NIMl0yKWMoW2NIXVtjSF03KW5jKGM3OClbY0hdW2NIXVtjSF1bY0hdOA==

>  <s_epik_cmdline>  (260) 
J2VwaWtfcHl0aG9uJywgJy1waHQnLCAnMi4wJywgJy1waCcsICc3LjAnLCAnLXRuJywgJzgnLCAnLW1hJywgJzIwMCcsICctaW1hZScsICc8aW5maWxlLm1hZT4nLCAnLW9tYWUnLCAnPG91dGZpbGUubWFlPic=

>  <r_lp_tautomer_probability>  (260) 
0.99995

>  <r_epik_Ionization_Penalty>  (260) 
0.0446758

>  <r_epik_Ionization_Penalty_Charging>  (260) 
0.000135811

>  <r_epik_Ionization_Penalty_Neutral>  (260) 
0.04454

>  <r_epik_State_Penalty>  (260) 
0.0377544

>  <r_epik_Charging_Adjusted_Penalty>  (260) 
0.0378902

>  <i_epik_Tot_Q>  (260) 
1

>  <i_epik_Tot_abs_Q>  (260) 
1

>  <s_lp_Force_Field>  (260) 
OPLS3e

>  <r_lp_Energy>  (260) 
669.121

>  <b_lp_Chiralities_Consistent>  (260) 
1

>  <s_lp_Variant>  (260) 
75:0-1

>  <s_i_glide_gridfile>  (260) 
pfpi4k_grid

>  <i_i_glide_lignum>  (260) 
15

>  <i_i_glide_rotatable_bonds>  (260) 
3

>  <r_i_docking_score>  (260) 
-1.98149

>  <r_i_glide_ligand_efficiency>  (260) 
-0.0535538

>  <r_i_glide_ligand_efficiency_sa>  (260) 
-0.178453

>  <r_i_glide_ligand_efficiency_ln>  (260) 
-0.429739

>  <r_i_glide_gscore>  (260) 
-1.98149

>  <r_i_glide_lipo>  (260) 
-0.26878

>  <r_i_glide_hbond>  (260) 
0

>  <r_i_glide_metal>  (260) 
-0

>  <r_i_glide_rewards>  (260) 
-0.00199964

>  <r_i_glide_evdw>  (260) 
-33.2359

>  <r_i_glide_ecoul>  (260) 
-0.708632

>  <r_i_glide_erotb>  (260) 
0.0817546

>  <r_i_glide_esite>  (260) 
-0.0243726

>  <r_i_glide_emodel>  (260) 
-39.1982

>  <r_i_glide_energy>  (260) 
-33.9446

>  <r_i_glide_einternal>  (260) 
1.34868

>  <r_i_glide_intrahb_reward>  (260) 
-0

>  <i_i_glide_confnum>  (260) 
6

>  <i_i_glide_posenum>  (260) 
1

>  <r_i_glide_eff_state_penalty>  (260) 
0

>  <ligand_id>  (260) 
75

>  <original_smiles>  (260) 
CC(=O)C1(C)CC(O)C2C3C4CCC15CC31CCCC(NC1)C5(C)C2CC4c1ccc2ccccc2n1

>  <smiles>  (260) 
[H]OC1([H])C([H])([H])C(C(=O)C([H])([H])[H])(C([H])([H])[H])C23C([H])([H])C([H])([H])C4([H])C([H])(c5nc6c([H])c([H])c([H])c([H])c6c([H])c5[H])C([H])([H])C5([H])C1([H])C4([H])C1(C([H])([H])C([H])([H])C([H])([H])C([H])(C52C([H])([H])[H])[N+]([H])([H])C1([H])[H])C3([H])[H]

$$$$
77:0:0
     RDKit          3D

 67 73  0  0  1  0  0  0  0  0999 V2000
    0.0184   -4.5834    7.7065 C   0  0  0  0  0  0  0  0  0  0  0  0
    0.9569   -4.1458    6.5884 C   0  0  0  0  0  0  0  0  0  0  0  0
    1.6499   -4.8822    5.7096 C   0  0  0  0  0  0  0  0  0  0  0  0
    2.5697   -4.0760    4.8742 C   0  0  1  0  0  0  0  0  0  0  0  0
    2.6552   -2.7463    5.6316 C   0  0  0  0  0  0  0  0  0  0  0  0
    1.3188   -2.6741    6.4377 C   0  0  1  0  0  0  0  0  0  0  0  0
    0.2542   -1.8584    5.7215 C   0  0  0  0  0  0  0  0  0  0  0  0
    0.4479   -0.6767    4.9324 C   0  0  0  0  0  0  0  0  0  0  0  0
   -0.7806   -0.2955    4.4879 C   0  0  0  0  0  0  0  0  0  0  0  0
   -1.7377   -1.1344    4.9486 O   0  0  0  0  0  0  0  0  0  0  0  0
   -1.0936   -2.0750    5.6742 C   0  0  0  0  0  0  0  0  0  0  0  0
    3.7426   -4.8510    4.7393 O   0  0  0  0  0  0  0  0  0  0  0  0
    3.3399   -6.2276    4.7037 C   0  0  2  0  0  0  0  0  0  0  0  0
    3.2704   -6.7169    3.2012 C   0  0  2  0  0  0  0  0  0  0  0  0
    1.8624   -7.1321    2.8779 C   0  0  2  0  0  0  0  0  0  0  0  0
    0.5925   -6.4222    3.3707 C   0  0  0  0  0  0  0  0  0  0  0  0
    0.9107   -7.0916    4.7030 C   0  0  1  0  0  0  0  0  0  0  0  0
   -0.1790   -7.4334    5.4985 O   0  0  0  0  0  0  0  0  0  0  0  0
    1.5084   -8.2414    3.8483 C   0  0  1  0  0  0  0  0  0  0  0  0
    1.0510   -9.5164    3.1570 C   0  0  1  0  0  0  0  0  0  0  0  0
    0.9453  -10.5628    4.0986 O   0  0  0  0  0  0  0  0  0  0  0  0
   -0.3408   -9.4457    2.5051 C   0  0  0  0  0  0  0  0  0  0  0  0
   -1.3473   -9.0558    3.4356 O   0  0  0  0  0  0  0  0  0  0  0  0
    2.1940   -9.8851    2.1214 C   0  0  0  0  0  0  0  0  0  0  0  0
    3.6697   -9.2949    2.1943 C   0  0  1  0  0  0  0  0  0  0  0  0
    4.1099   -9.4514    0.8634 O   0  0  0  0  0  0  0  0  0  0  0  0
    4.1659   -7.9412    2.8174 C   0  0  2  0  0  0  0  0  0  0  0  0
    4.7517   -8.6507    3.9318 O   0  0  0  0  0  0  0  0  0  0  0  0
    4.6704   -9.9012    3.2076 C   0  0  0  0  0  0  0  0  0  0  0  0
    4.2010  -10.9592    4.1990 C   0  0  0  0  0  0  0  0  0  0  0  0
    6.0823  -10.2877    2.7339 C   0  0  0  0  0  0  0  0  0  0  0  0
    1.9922   -6.3440    5.5426 C   0  0  2  0  0  0  0  0  0  0  0  0
    2.2790   -7.0792    6.8719 C   0  0  0  0  0  0  0  0  0  0  0  0
   -0.9468   -4.0873    7.6193 H   0  0  0  0  0  0  0  0  0  0  0  0
    0.4064   -4.2957    8.6861 H   0  0  0  0  0  0  0  0  0  0  0  0
   -0.1940   -5.6519    7.6925 H   0  0  0  0  0  0  0  0  0  0  0  0
    2.1129   -3.9237    3.9039 H   0  0  0  0  0  0  0  0  0  0  0  0
    3.4936   -2.8155    6.3290 H   0  0  0  0  0  0  0  0  0  0  0  0
    2.8745   -1.9022    4.9693 H   0  0  0  0  0  0  0  0  0  0  0  0
    1.5146   -2.2243    7.4153 H   0  0  0  0  0  0  0  0  0  0  0  0
    1.3735   -0.1642    4.6991 H   0  0  0  0  0  0  0  0  0  0  0  0
   -1.1389    0.5119    3.8672 H   0  0  0  0  0  0  0  0  0  0  0  0
   -1.7616   -2.8256    6.0605 H   0  0  0  0  0  0  0  0  0  0  0  0
    4.1306   -6.7735    5.2098 H   0  0  0  0  0  0  0  0  0  0  0  0
    3.5144   -5.8733    2.5512 H   0  0  0  0  0  0  0  0  0  0  0  0
    1.7092   -7.3726    1.8274 H   0  0  0  0  0  0  0  0  0  0  0  0
    0.6367   -5.3383    3.3523 H   0  0  0  0  0  0  0  0  0  0  0  0
   -0.3379   -6.7790    2.8992 H   0  0  0  0  0  0  0  0  0  0  0  0
   -0.6559   -8.0787    4.9845 H   0  0  0  0  0  0  0  0  0  0  0  0
    2.3330   -8.5491    4.4649 H   0  0  0  0  0  0  0  0  0  0  0  0
    0.1722  -10.4304    4.6370 H   0  0  0  0  0  0  0  0  0  0  0  0
   -0.3308   -8.7120    1.6981 H   0  0  0  0  0  0  0  0  0  0  0  0
   -0.5907  -10.4054    2.0515 H   0  0  0  0  0  0  0  0  0  0  0  0
   -1.6183   -9.8205    3.9579 H   0  0  0  0  0  0  0  0  0  0  0  0
    2.2770  -10.9695    2.0940 H   0  0  0  0  0  0  0  0  0  0  0  0
    1.8091   -9.6279    1.1328 H   0  0  0  0  0  0  0  0  0  0  0  0
    4.2144  -10.3862    0.7167 H   0  0  0  0  0  0  0  0  0  0  0  0
    4.9743   -7.5850    2.1856 H   0  0  0  0  0  0  0  0  0  0  0  0
    3.8670  -11.8635    3.6810 H   0  0  0  0  0  0  0  0  0  0  0  0
    3.3713  -10.6033    4.8107 H   0  0  0  0  0  0  0  0  0  0  0  0
    4.9917  -11.2592    4.8957 H   0  0  0  0  0  0  0  0  0  0  0  0
    6.0588  -11.2180    2.1624 H   0  0  0  0  0  0  0  0  0  0  0  0
    6.7641  -10.4531    3.5711 H   0  0  0  0  0  0  0  0  0  0  0  0
    6.5407   -9.5327    2.0975 H   0  0  0  0  0  0  0  0  0  0  0  0
    2.6294   -8.0929    6.6889 H   0  0  0  0  0  0  0  0  0  0  0  0
    1.4130   -7.1651    7.5158 H   0  0  0  0  0  0  0  0  0  0  0  0
    3.0545   -6.5676    7.4253 H   0  0  0  0  0  0  0  0  0  0  0  0
  1  2  1  0
  1 34  1  0
  1 35  1  0
  1 36  1  0
  2  6  1  0
  2  3  2  0
  3 32  1  0
  3  4  1  0
  4  5  1  0
  4 12  1  0
  4 37  1  6
  5  6  1  0
  5 38  1  0
  5 39  1  0
  6  7  1  0
  6 40  1  1
  7 11  2  0
  7  8  1  0
  8  9  2  0
  8 41  1  0
  9 10  1  0
  9 42  1  0
 10 11  1  0
 11 43  1  0
 12 13  1  0
 13 32  1  0
 13 14  1  0
 13 44  1  1
 14 27  1  0
 14 15  1  0
 14 45  1  6
 15 19  1  0
 15 16  1  0
 15 46  1  6
 16 17  1  0
 16 47  1  0
 16 48  1  0
 17 18  1  1
 17 19  1  0
 17 32  1  0
 18 49  1  0
 19 20  1  0
 19 50  1  1
 20 21  1  1
 20 22  1  0
 20 24  1  0
 21 51  1  0
 22 23  1  0
 22 52  1  0
 22 53  1  0
 23 54  1  0
 24 25  1  0
 24 55  1  0
 24 56  1  0
 25 29  1  0
 25 26  1  6
 25 27  1  0
 26 57  1  0
 27 28  1  0
 27 58  1  6
 28 29  1  0
 29 30  1  0
 29 31  1  0
 30 59  1  0
 30 60  1  0
 30 61  1  0
 31 62  1  0
 31 63  1  0
 31 64  1  0
 32 33  1  1
 33 65  1  0
 33 66  1  0
 33 67  1  0
M  END
>  <i_m_ct_stereo_status>  (261) 
1

>  <s_m_source_file>  (261) 
/var/tmp/pbs.5076255.sched01/tmpos3i1bch/920fm1no0n.sdf

>  <i_m_source_file_index>  (261) 
18

>  <i_lp_mmshare_version>  (261) 
48012

>  <i_f3d_flags>  (261) 
0

>  <s_epik_input>  (261) 
W2NIXTFvW2NIXVtjSF1jMVtDQEBIXShDPTJbQ0gzXSlbQ0gyXVtDQEBIXShPMylDMltDQF00KFtDSDNdKVtDQEhdM1tDQEhdKFtDSF0oW0NIMl01KVtDQEhdNltDQEBdNDVbT0hdKVtDQEBIXTdbQ0BAXShbT0hdKShDKE83KShbQ0gzXSlbQ0gzXSlbQ0gyXVtDQF02KFtPSF0pW0NIMl1bT0hd

>  <s_epik_cmdline>  (261) 
J2VwaWtfcHl0aG9uJywgJy1waHQnLCAnMi4wJywgJy1waCcsICc3LjAnLCAnLXRuJywgJzgnLCAnLW1hJywgJzIwMCcsICctaW1hZScsICc8aW5maWxlLm1hZT4nLCAnLW9tYWUnLCAnPG91dGZpbGUubWFlPic=

>  <r_lp_tautomer_probability>  (261) 
1

>  <r_epik_Ionization_Penalty>  (261) 
6.35118e-07

>  <r_epik_Ionization_Penalty_Charging>  (261) 
0

>  <r_epik_Ionization_Penalty_Neutral>  (261) 
6.35118e-07

>  <r_epik_State_Penalty>  (261) 
-0

>  <r_epik_Charging_Adjusted_Penalty>  (261) 
0

>  <i_epik_Tot_Q>  (261) 
0

>  <i_epik_Tot_abs_Q>  (261) 
0

>  <s_lp_Force_Field>  (261) 
OPLS3e

>  <r_lp_Energy>  (261) 
75.7272

>  <b_lp_Chiralities_Consistent>  (261) 
1

>  <s_lp_Variant>  (261) 
77:0-1

>  <s_i_glide_gridfile>  (261) 
pfpi4k_grid

>  <i_i_glide_lignum>  (261) 
18

>  <i_i_glide_rotatable_bonds>  (261) 
6

>  <r_i_docking_score>  (261) 
-3.21749

>  <r_i_glide_ligand_efficiency>  (261) 
-0.0974998

>  <r_i_glide_ligand_efficiency_sa>  (261) 
-0.312734

>  <r_i_glide_ligand_efficiency_ln>  (261) 
-0.715554

>  <r_i_glide_gscore>  (261) 
-3.21749

>  <r_i_glide_lipo>  (261) 
-0.0913112

>  <r_i_glide_hbond>  (261) 
0

>  <r_i_glide_metal>  (261) 
-0

>  <r_i_glide_rewards>  (261) 
-0.782655

>  <r_i_glide_evdw>  (261) 
-22.3764

>  <r_i_glide_ecoul>  (261) 
-9.44016

>  <r_i_glide_erotb>  (261) 
0.191319

>  <r_i_glide_esite>  (261) 
0

>  <r_i_glide_emodel>  (261) 
-41.5213

>  <r_i_glide_energy>  (261) 
-31.8166

>  <r_i_glide_einternal>  (261) 
5.59509

>  <r_i_glide_intrahb_reward>  (261) 
-0.5

>  <i_i_glide_confnum>  (261) 
1

>  <i_i_glide_posenum>  (261) 
5

>  <r_i_glide_eff_state_penalty>  (261) 
0

>  <ligand_id>  (261) 
77

>  <original_smiles>  (261) 
CC1=C2C(CC1c1ccoc1)OC1C3C4CC(O)(C4C(O)(CO)CC4(O)C3OC4(C)C)C21C

>  <smiles>  (261) 
[H]OC([H])([H])C1(O[H])C([H])([H])C2(O[H])C([H])(OC2(C([H])([H])[H])C([H])([H])[H])C2([H])C3([H])OC4([H])C(=C(C([H])([H])[H])C([H])(c5c([H])oc([H])c5[H])C4([H])[H])C3(C([H])([H])[H])C3(O[H])C([H])([H])C2([H])C13[H]

$$$$
77:0:1
     RDKit          3D

 67 73  0  0  1  0  0  0  0  0999 V2000
    0.6821   -4.7054    8.1119 C   0  0  0  0  0  0  0  0  0  0  0  0
    1.3959   -4.2411    6.8510 C   0  0  0  0  0  0  0  0  0  0  0  0
    1.9805   -4.9558    5.8809 C   0  0  0  0  0  0  0  0  0  0  0  0
    2.6789   -4.1085    4.8851 C   0  0  1  0  0  0  0  0  0  0  0  0
    2.8006   -2.7561    5.5930 C   0  0  0  0  0  0  0  0  0  0  0  0
    1.6301   -2.7573    6.6225 C   0  0  1  0  0  0  0  0  0  0  0  0
    0.4058   -2.0352    6.0927 C   0  0  0  0  0  0  0  0  0  0  0  0
    0.3604   -0.7422    5.4928 C   0  0  0  0  0  0  0  0  0  0  0  0
   -0.9466   -0.5011    5.1746 C   0  0  0  0  0  0  0  0  0  0  0  0
   -1.7274   -1.5457    5.5409 O   0  0  0  0  0  0  0  0  0  0  0  0
   -0.8941   -2.4727    6.0730 C   0  0  0  0  0  0  0  0  0  0  0  0
    3.8596   -4.8068    4.5546 O   0  0  0  0  0  0  0  0  0  0  0  0
    3.5518   -6.2077    4.6054 C   0  0  2  0  0  0  0  0  0  0  0  0
    3.2547   -6.7243    3.1445 C   0  0  2  0  0  0  0  0  0  0  0  0
    1.8457   -7.2195    3.0799 C   0  0  2  0  0  0  0  0  0  0  0  0
    0.6407   -6.5762    3.7856 C   0  0  0  0  0  0  0  0  0  0  0  0
    1.2012   -7.2288    5.0339 C   0  0  1  0  0  0  0  0  0  0  0  0
    0.2678   -7.6206    6.0008 O   0  0  0  0  0  0  0  0  0  0  0  0
    1.7267   -8.3412    4.0875 C   0  0  1  0  0  0  0  0  0  0  0  0
    1.2459   -9.6409    3.4732 C   0  0  1  0  0  0  0  0  0  0  0  0
    1.3859  -10.6515    4.4540 O   0  0  0  0  0  0  0  0  0  0  0  0
   -0.2545   -9.6999    3.1090 C   0  0  0  0  0  0  0  0  0  0  0  0
   -0.6835   -8.8454    2.0787 O   0  0  0  0  0  0  0  0  0  0  0  0
    2.2229   -9.9814    2.2776 C   0  0  0  0  0  0  0  0  0  0  0  0
    3.6477   -9.2935    2.1048 C   0  0  1  0  0  0  0  0  0  0  0  0
    3.8678   -9.4506    0.7264 O   0  0  0  0  0  0  0  0  0  0  0  0
    4.1560   -7.8959    2.6183 C   0  0  2  0  0  0  0  0  0  0  0  0
    4.9763   -8.5488    3.6201 O   0  0  0  0  0  0  0  0  0  0  0  0
    4.8466   -9.8188    2.9317 C   0  0  0  0  0  0  0  0  0  0  0  0
    4.6235  -10.8864    3.9939 C   0  0  0  0  0  0  0  0  0  0  0  0
    6.1773  -10.1258    2.2164 C   0  0  0  0  0  0  0  0  0  0  0  0
    2.3691   -6.4007    5.6627 C   0  0  2  0  0  0  0  0  0  0  0  0
    2.9359   -7.0852    6.9269 C   0  0  0  0  0  0  0  0  0  0  0  0
   -0.3066   -4.2543    8.1588 H   0  0  0  0  0  0  0  0  0  0  0  0
    1.2058   -4.3742    9.0107 H   0  0  0  0  0  0  0  0  0  0  0  0
    0.5394   -5.7844    8.1493 H   0  0  0  0  0  0  0  0  0  0  0  0
    2.0545   -4.0046    4.0046 H   0  0  0  0  0  0  0  0  0  0  0  0
    3.7496   -2.7530    6.1325 H   0  0  0  0  0  0  0  0  0  0  0  0
    2.8243   -1.9104    4.9008 H   0  0  0  0  0  0  0  0  0  0  0  0
    1.9574   -2.2704    7.5459 H   0  0  0  0  0  0  0  0  0  0  0  0
    1.1809   -0.0633    5.3054 H   0  0  0  0  0  0  0  0  0  0  0  0
   -1.4610    0.3244    4.7102 H   0  0  0  0  0  0  0  0  0  0  0  0
   -1.3887   -3.3793    6.3832 H   0  0  0  0  0  0  0  0  0  0  0  0
    4.4539   -6.6940    4.9678 H   0  0  0  0  0  0  0  0  0  0  0  0
    3.3267   -5.8862    2.4506 H   0  0  0  0  0  0  0  0  0  0  0  0
    1.5682   -7.4780    2.0634 H   0  0  0  0  0  0  0  0  0  0  0  0
    0.6297   -5.4962    3.7534 H   0  0  0  0  0  0  0  0  0  0  0  0
   -0.3526   -6.9551    3.5407 H   0  0  0  0  0  0  0  0  0  0  0  0
   -0.2275   -8.3383    5.6203 H   0  0  0  0  0  0  0  0  0  0  0  0
    2.6662   -8.5925    4.5572 H   0  0  0  0  0  0  0  0  0  0  0  0
    0.7441  -10.5410    5.1441 H   0  0  0  0  0  0  0  0  0  0  0  0
   -0.5080  -10.6854    2.7622 H   0  0  0  0  0  0  0  0  0  0  0  0
   -0.8604   -9.4719    3.9833 H   0  0  0  0  0  0  0  0  0  0  0  0
   -0.2516   -9.1084    1.2735 H   0  0  0  0  0  0  0  0  0  0  0  0
    2.3754  -11.0589    2.2664 H   0  0  0  0  0  0  0  0  0  0  0  0
    1.6624   -9.7917    1.3608 H   0  0  0  0  0  0  0  0  0  0  0  0
    3.9550  -10.4060    0.5899 H   0  0  0  0  0  0  0  0  0  0  0  0
    4.8163   -7.5029    1.8471 H   0  0  0  0  0  0  0  0  0  0  0  0
    4.2662  -11.8158    3.5479 H   0  0  0  0  0  0  0  0  0  0  0  0
    3.8916  -10.5706    4.7347 H   0  0  0  0  0  0  0  0  0  0  0  0
    5.5394  -11.1208    4.5436 H   0  0  0  0  0  0  0  0  0  0  0  0
    6.1155  -11.0664    1.6673 H   0  0  0  0  0  0  0  0  0  0  0  0
    7.0038  -10.2301    2.9224 H   0  0  0  0  0  0  0  0  0  0  0  0
    6.4672   -9.3563    1.5011 H   0  0  0  0  0  0  0  0  0  0  0  0
    3.3207   -8.0774    6.6940 H   0  0  0  0  0  0  0  0  0  0  0  0
    2.2012   -7.2125    7.7158 H   0  0  0  0  0  0  0  0  0  0  0  0
    3.7638   -6.5104    7.3304 H   0  0  0  0  0  0  0  0  0  0  0  0
  1  2  1  0
  1 34  1  0
  1 35  1  0
  1 36  1  0
  2  6  1  0
  2  3  2  0
  3 32  1  0
  3  4  1  0
  4  5  1  0
  4 12  1  0
  4 37  1  6
  5  6  1  0
  5 38  1  0
  5 39  1  0
  6  7  1  0
  6 40  1  1
  7 11  2  0
  7  8  1  0
  8  9  2  0
  8 41  1  0
  9 10  1  0
  9 42  1  0
 10 11  1  0
 11 43  1  0
 12 13  1  0
 13 32  1  0
 13 14  1  0
 13 44  1  1
 14 27  1  0
 14 15  1  0
 14 45  1  6
 15 19  1  0
 15 16  1  0
 15 46  1  6
 16 17  1  0
 16 47  1  0
 16 48  1  0
 17 18  1  1
 17 19  1  0
 17 32  1  0
 18 49  1  0
 19 20  1  0
 19 50  1  1
 20 21  1  1
 20 22  1  0
 20 24  1  0
 21 51  1  0
 22 23  1  0
 22 52  1  0
 22 53  1  0
 23 54  1  0
 24 25  1  0
 24 55  1  0
 24 56  1  0
 25 29  1  0
 25 26  1  6
 25 27  1  0
 26 57  1  0
 27 28  1  0
 27 58  1  6
 28 29  1  0
 29 30  1  0
 29 31  1  0
 30 59  1  0
 30 60  1  0
 30 61  1  0
 31 62  1  0
 31 63  1  0
 31 64  1  0
 32 33  1  1
 33 65  1  0
 33 66  1  0
 33 67  1  0
M  END
>  <i_m_ct_stereo_status>  (262) 
1

>  <s_m_source_file>  (262) 
/var/tmp/pbs.5076255.sched01/tmpos3i1bch/920fm1no0n.sdf

>  <i_m_source_file_index>  (262) 
18

>  <i_lp_mmshare_version>  (262) 
48012

>  <i_f3d_flags>  (262) 
0

>  <s_epik_input>  (262) 
W2NIXTFvW2NIXVtjSF1jMVtDQEBIXShDPTJbQ0gzXSlbQ0gyXVtDQEBIXShPMylDMltDQF00KFtDSDNdKVtDQEhdM1tDQEhdKFtDSF0oW0NIMl01KVtDQEhdNltDQEBdNDVbT0hdKVtDQEBIXTdbQ0BAXShbT0hdKShDKE83KShbQ0gzXSlbQ0gzXSlbQ0gyXVtDQF02KFtPSF0pW0NIMl1bT0hd

>  <s_epik_cmdline>  (262) 
J2VwaWtfcHl0aG9uJywgJy1waHQnLCAnMi4wJywgJy1waCcsICc3LjAnLCAnLXRuJywgJzgnLCAnLW1hJywgJzIwMCcsICctaW1hZScsICc8aW5maWxlLm1hZT4nLCAnLW9tYWUnLCAnPG91dGZpbGUubWFlPic=

>  <r_lp_tautomer_probability>  (262) 
1

>  <r_epik_Ionization_Penalty>  (262) 
6.35118e-07

>  <r_epik_Ionization_Penalty_Charging>  (262) 
0

>  <r_epik_Ionization_Penalty_Neutral>  (262) 
6.35118e-07

>  <r_epik_State_Penalty>  (262) 
-0

>  <r_epik_Charging_Adjusted_Penalty>  (262) 
0

>  <i_epik_Tot_Q>  (262) 
0

>  <i_epik_Tot_abs_Q>  (262) 
0

>  <s_lp_Force_Field>  (262) 
OPLS3e

>  <r_lp_Energy>  (262) 
75.7272

>  <b_lp_Chiralities_Consistent>  (262) 
1

>  <s_lp_Variant>  (262) 
77:0-1

>  <s_i_glide_gridfile>  (262) 
pfpi4k_grid

>  <i_i_glide_lignum>  (262) 
18

>  <i_i_glide_rotatable_bonds>  (262) 
6

>  <r_i_docking_score>  (262) 
-2.98761

>  <r_i_glide_ligand_efficiency>  (262) 
-0.0905338

>  <r_i_glide_ligand_efficiency_sa>  (262) 
-0.29039

>  <r_i_glide_ligand_efficiency_ln>  (262) 
-0.66443

>  <r_i_glide_gscore>  (262) 
-2.98761

>  <r_i_glide_lipo>  (262) 
-0.0484615

>  <r_i_glide_hbond>  (262) 
-0.304

>  <r_i_glide_metal>  (262) 
-0

>  <r_i_glide_rewards>  (262) 
-0.282655

>  <r_i_glide_evdw>  (262) 
-20.1428

>  <r_i_glide_ecoul>  (262) 
-10.2445

>  <r_i_glide_erotb>  (262) 
0.191319

>  <r_i_glide_esite>  (262) 
0

>  <r_i_glide_emodel>  (262) 
-36.6489

>  <r_i_glide_energy>  (262) 
-30.3873

>  <r_i_glide_einternal>  (262) 
1.58109

>  <r_i_glide_intrahb_reward>  (262) 
-0

>  <i_i_glide_confnum>  (262) 
1

>  <i_i_glide_posenum>  (262) 
10

>  <r_i_glide_eff_state_penalty>  (262) 
0

>  <ligand_id>  (262) 
77

>  <original_smiles>  (262) 
CC1=C2C(CC1c1ccoc1)OC1C3C4CC(O)(C4C(O)(CO)CC4(O)C3OC4(C)C)C21C

>  <smiles>  (262) 
[H]OC([H])([H])C1(O[H])C([H])([H])C2(O[H])C([H])(OC2(C([H])([H])[H])C([H])([H])[H])C2([H])C3([H])OC4([H])C(=C(C([H])([H])[H])C([H])(c5c([H])oc([H])c5[H])C4([H])[H])C3(C([H])([H])[H])C3(O[H])C([H])([H])C2([H])C13[H]

$$$$
77:0:2
     RDKit          3D

 67 73  0  0  1  0  0  0  0  0999 V2000
    4.9788   -2.3881    4.2594 C   0  0  0  0  0  0  0  0  0  0  0  0
    3.5470   -2.5195    3.7752 C   0  0  0  0  0  0  0  0  0  0  0  0
    2.5049   -1.6899    3.8985 C   0  0  0  0  0  0  0  0  0  0  0  0
    1.2431   -2.2703    3.3818 C   0  0  1  0  0  0  0  0  0  0  0  0
    1.5686   -3.7687    3.2738 C   0  0  0  0  0  0  0  0  0  0  0  0
    3.1118   -3.8170    3.1150 C   0  0  1  0  0  0  0  0  0  0  0  0
    3.5299   -3.8954    1.6617 C   0  0  0  0  0  0  0  0  0  0  0  0
    4.2088   -4.9930    1.0342 C   0  0  0  0  0  0  0  0  0  0  0  0
    4.3954   -4.6340   -0.2640 C   0  0  0  0  0  0  0  0  0  0  0  0
    3.8794   -3.4021   -0.5084 O   0  0  0  0  0  0  0  0  0  0  0  0
    3.3575   -2.9786    0.6724 C   0  0  0  0  0  0  0  0  0  0  0  0
    0.2363   -1.8572    4.2802 O   0  0  0  0  0  0  0  0  0  0  0  0
    0.6019   -0.5496    4.7441 C   0  0  2  0  0  0  0  0  0  0  0  0
   -0.1878    0.5413    3.9185 C   0  0  2  0  0  0  0  0  0  0  0  0
    0.7904    1.4193    3.1945 C   0  0  2  0  0  0  0  0  0  0  0  0
    2.0872    0.9368    2.5236 C   0  0  0  0  0  0  0  0  0  0  0  0
    2.6266    0.8604    3.9425 C   0  0  1  0  0  0  0  0  0  0  0  0
    4.0063    1.1079    4.0791 O   0  0  0  0  0  0  0  0  0  0  0  0
    1.6737    2.0483    4.2503 C   0  0  1  0  0  0  0  0  0  0  0  0
    1.6749    3.5615    4.1997 C   0  0  1  0  0  0  0  0  0  0  0  0
    2.3710    3.9915    5.3556 O   0  0  0  0  0  0  0  0  0  0  0  0
    2.4491    4.1405    3.0002 C   0  0  0  0  0  0  0  0  0  0  0  0
    2.2840    5.5327    2.9058 O   0  0  0  0  0  0  0  0  0  0  0  0
    0.1662    4.0266    4.2494 C   0  0  0  0  0  0  0  0  0  0  0  0
   -1.0139    3.0885    4.7534 C   0  0  1  0  0  0  0  0  0  0  0  0
   -2.1232    3.7052    4.1465 O   0  0  0  0  0  0  0  0  0  0  0  0
   -1.1105    1.5124    4.7294 C   0  0  2  0  0  0  0  0  0  0  0  0
   -0.9385    1.4650    6.1662 O   0  0  0  0  0  0  0  0  0  0  0  0
   -1.2242    2.8841    6.2739 C   0  0  0  0  0  0  0  0  0  0  0  0
   -0.2358    3.4867    7.2633 C   0  0  0  0  0  0  0  0  0  0  0  0
   -2.6365    3.0432    6.8630 C   0  0  0  0  0  0  0  0  0  0  0  0
    2.1941   -0.4422    4.6978 C   0  0  2  0  0  0  0  0  0  0  0  0
    2.7399   -0.4819    6.1442 C   0  0  0  0  0  0  0  0  0  0  0  0
    5.6511   -2.5252    3.4102 H   0  0  0  0  0  0  0  0  0  0  0  0
    5.2244   -3.1648    4.9870 H   0  0  0  0  0  0  0  0  0  0  0  0
    5.1923   -1.4135    4.6973 H   0  0  0  0  0  0  0  0  0  0  0  0
    1.0506   -1.8560    2.3990 H   0  0  0  0  0  0  0  0  0  0  0  0
    1.2888   -4.2381    4.2176 H   0  0  0  0  0  0  0  0  0  0  0  0
    1.0203   -4.2922    2.4930 H   0  0  0  0  0  0  0  0  0  0  0  0
    3.5039   -4.6787    3.6546 H   0  0  0  0  0  0  0  0  0  0  0  0
    4.5232   -5.9245    1.4777 H   0  0  0  0  0  0  0  0  0  0  0  0
    4.8442   -5.1212   -1.1206 H   0  0  0  0  0  0  0  0  0  0  0  0
    2.8995   -1.9932    0.6142 H   0  0  0  0  0  0  0  0  0  0  0  0
    0.2622   -0.5186    5.7746 H   0  0  0  0  0  0  0  0  0  0  0  0
   -0.7876    0.0376    3.1560 H   0  0  0  0  0  0  0  0  0  0  0  0
    0.3238    2.1194    2.5069 H   0  0  0  0  0  0  0  0  0  0  0  0
    1.9967   -0.0015    1.9863 H   0  0  0  0  0  0  0  0  0  0  0  0
    2.6027    1.6758    1.8975 H   0  0  0  0  0  0  0  0  0  0  0  0
    4.2228    1.8016    3.4764 H   0  0  0  0  0  0  0  0  0  0  0  0
    1.3627    1.8116    5.2536 H   0  0  0  0  0  0  0  0  0  0  0  0
    3.2623    3.6725    5.3013 H   0  0  0  0  0  0  0  0  0  0  0  0
    3.5096    3.8978    3.0636 H   0  0  0  0  0  0  0  0  0  0  0  0
    2.0735    3.7358    2.0649 H   0  0  0  0  0  0  0  0  0  0  0  0
    1.4492    5.6857    2.4850 H   0  0  0  0  0  0  0  0  0  0  0  0
    0.1264    4.9639    4.8047 H   0  0  0  0  0  0  0  0  0  0  0  0
   -0.0714    4.3300    3.2278 H   0  0  0  0  0  0  0  0  0  0  0  0
   -2.0971    3.4650    3.2315 H   0  0  0  0  0  0  0  0  0  0  0  0
   -2.1454    1.2564    4.5155 H   0  0  0  0  0  0  0  0  0  0  0  0
   -0.2304    4.5749    7.1940 H   0  0  0  0  0  0  0  0  0  0  0  0
    0.7776    3.1365    7.0838 H   0  0  0  0  0  0  0  0  0  0  0  0
   -0.4749    3.2284    8.2970 H   0  0  0  0  0  0  0  0  0  0  0  0
   -2.9123    4.0935    6.9325 H   0  0  0  0  0  0  0  0  0  0  0  0
   -2.7111    2.6338    7.8709 H   0  0  0  0  0  0  0  0  0  0  0  0
   -3.3954    2.5529    6.2614 H   0  0  0  0  0  0  0  0  0  0  0  0
    2.3795    0.3702    6.7206 H   0  0  0  0  0  0  0  0  0  0  0  0
    3.8235   -0.4592    6.1958 H   0  0  0  0  0  0  0  0  0  0  0  0
    2.4021   -1.3766    6.6581 H   0  0  0  0  0  0  0  0  0  0  0  0
  1  2  1  0
  1 34  1  0
  1 35  1  0
  1 36  1  0
  2  6  1  0
  2  3  2  0
  3 32  1  0
  3  4  1  0
  4  5  1  0
  4 12  1  0
  4 37  1  6
  5  6  1  0
  5 38  1  0
  5 39  1  0
  6  7  1  0
  6 40  1  1
  7 11  2  0
  7  8  1  0
  8  9  2  0
  8 41  1  0
  9 10  1  0
  9 42  1  0
 10 11  1  0
 11 43  1  0
 12 13  1  0
 13 32  1  0
 13 14  1  0
 13 44  1  1
 14 27  1  0
 14 15  1  0
 14 45  1  6
 15 19  1  0
 15 16  1  0
 15 46  1  6
 16 17  1  0
 16 47  1  0
 16 48  1  0
 17 18  1  6
 17 19  1  0
 17 32  1  0
 18 49  1  0
 19 20  1  0
 19 50  1  1
 20 21  1  1
 20 22  1  0
 20 24  1  0
 21 51  1  0
 22 23  1  0
 22 52  1  0
 22 53  1  0
 23 54  1  0
 24 25  1  0
 24 55  1  0
 24 56  1  0
 25 29  1  0
 25 26  1  6
 25 27  1  0
 26 57  1  0
 27 28  1  0
 27 58  1  1
 28 29  1  0
 29 30  1  0
 29 31  1  0
 30 59  1  0
 30 60  1  0
 30 61  1  0
 31 62  1  0
 31 63  1  0
 31 64  1  0
 32 33  1  1
 33 65  1  0
 33 66  1  0
 33 67  1  0
M  END
>  <i_m_ct_stereo_status>  (263) 
1

>  <s_m_source_file>  (263) 
/var/tmp/pbs.5076255.sched01/tmpos3i1bch/920fm1no0n.sdf

>  <i_m_source_file_index>  (263) 
18

>  <i_lp_mmshare_version>  (263) 
48012

>  <i_f3d_flags>  (263) 
0

>  <s_epik_input>  (263) 
W2NIXTFvW2NIXVtjSF1jMVtDQEBIXShDPTJbQ0gzXSlbQ0gyXVtDQEBIXShPMylDMltDQF00KFtDSDNdKVtDQEhdM1tDQEhdKFtDSF0oW0NIMl01KVtDQEhdNltDQEBdNDVbT0hdKVtDQEBIXTdbQ0BAXShbT0hdKShDKE83KShbQ0gzXSlbQ0gzXSlbQ0gyXVtDQF02KFtPSF0pW0NIMl1bT0hd

>  <s_epik_cmdline>  (263) 
J2VwaWtfcHl0aG9uJywgJy1waHQnLCAnMi4wJywgJy1waCcsICc3LjAnLCAnLXRuJywgJzgnLCAnLW1hJywgJzIwMCcsICctaW1hZScsICc8aW5maWxlLm1hZT4nLCAnLW9tYWUnLCAnPG91dGZpbGUubWFlPic=

>  <r_lp_tautomer_probability>  (263) 
1

>  <r_epik_Ionization_Penalty>  (263) 
6.35118e-07

>  <r_epik_Ionization_Penalty_Charging>  (263) 
0

>  <r_epik_Ionization_Penalty_Neutral>  (263) 
6.35118e-07

>  <r_epik_State_Penalty>  (263) 
-0

>  <r_epik_Charging_Adjusted_Penalty>  (263) 
0

>  <i_epik_Tot_Q>  (263) 
0

>  <i_epik_Tot_abs_Q>  (263) 
0

>  <s_lp_Force_Field>  (263) 
OPLS3e

>  <r_lp_Energy>  (263) 
75.7272

>  <b_lp_Chiralities_Consistent>  (263) 
1

>  <s_lp_Variant>  (263) 
77:0-1

>  <s_i_glide_gridfile>  (263) 
pfpi4k_grid

>  <i_i_glide_lignum>  (263) 
18

>  <i_i_glide_rotatable_bonds>  (263) 
6

>  <r_i_docking_score>  (263) 
-2.96322

>  <r_i_glide_ligand_efficiency>  (263) 
-0.0897944

>  <r_i_glide_ligand_efficiency_sa>  (263) 
-0.288019

>  <r_i_glide_ligand_efficiency_ln>  (263) 
-0.659004

>  <r_i_glide_gscore>  (263) 
-2.96322

>  <r_i_glide_lipo>  (263) 
-0.307034

>  <r_i_glide_hbond>  (263) 
-0.274842

>  <r_i_glide_metal>  (263) 
-0

>  <r_i_glide_rewards>  (263) 
-0.282655

>  <r_i_glide_evdw>  (263) 
-24.1081

>  <r_i_glide_ecoul>  (263) 
-7.23065

>  <r_i_glide_erotb>  (263) 
0.191319

>  <r_i_glide_esite>  (263) 
0

>  <r_i_glide_emodel>  (263) 
-36.5225

>  <r_i_glide_energy>  (263) 
-31.3388

>  <r_i_glide_einternal>  (263) 
3.91344

>  <r_i_glide_intrahb_reward>  (263) 
-0

>  <i_i_glide_confnum>  (263) 
3

>  <i_i_glide_posenum>  (263) 
15

>  <r_i_glide_eff_state_penalty>  (263) 
0

>  <ligand_id>  (263) 
77

>  <original_smiles>  (263) 
CC1=C2C(CC1c1ccoc1)OC1C3C4CC(O)(C4C(O)(CO)CC4(O)C3OC4(C)C)C21C

>  <smiles>  (263) 
[H]OC([H])([H])C1(O[H])C([H])([H])C2(O[H])C([H])(OC2(C([H])([H])[H])C([H])([H])[H])C2([H])C3([H])OC4([H])C(=C(C([H])([H])[H])C([H])(c5c([H])oc([H])c5[H])C4([H])[H])C3(C([H])([H])[H])C3(O[H])C([H])([H])C2([H])C13[H]

$$$$
79:0:0
     RDKit          3D

 37 42  0  0  1  0  0  0  0  0999 V2000
    7.7350   -2.2367   -0.0348 C   0  0  0  0  0  0  0  0  0  0  0  0
    6.8072   -3.0234   -0.7734 O   0  0  0  0  0  0  0  0  0  0  0  0
    5.4661   -2.9460   -0.3506 C   0  0  0  0  0  0  0  0  0  0  0  0
    5.3768   -3.2302    1.0228 O   0  0  0  0  0  0  0  0  0  0  0  0
    5.8882   -4.5009    1.4397 C   0  0  0  0  0  0  0  0  0  0  0  0
    4.7655   -1.5268   -0.6343 C   0  0  1  0  0  0  0  0  0  0  0  0
    4.9347   -0.8477   -2.1723 C   0  0  1  0  0  0  0  0  0  0  0  0
    3.9916   -0.8455   -3.5450 C   0  0  0  0  0  0  0  0  0  0  0  0
    3.2849   -2.2751   -3.2942 C   0  0  2  0  0  0  0  0  0  0  0  0
    3.2999   -1.7691   -1.9975 C   0  0  2  0  0  0  0  0  0  0  0  0
    4.8184   -2.0458   -2.7929 C   0  0  1  0  0  0  0  0  0  0  0  0
    4.2211   -3.3989   -2.6799 C   0  0  1  0  0  0  0  0  0  0  0  0
    4.4807   -3.9091   -1.1826 C   0  0  2  0  0  0  0  0  0  0  0  0
    3.2266   -3.5732   -0.4692 C   0  0  0  0  0  0  0  0  0  0  0  0
    1.9001   -4.2726   -0.6286 C   0  0  0  0  0  0  0  0  0  0  0  0
    2.6111   -4.2637    0.7319 C   0  0  0  0  0  0  0  0  0  0  0  0
    3.3466   -2.0902   -0.5905 C   0  0  1  0  0  0  0  0  0  0  0  0
    8.7506   -2.4248   -0.3904 H   0  0  0  0  0  0  0  0  0  0  0  0
    7.7225   -2.4914    1.0208 H   0  0  0  0  0  0  0  0  0  0  0  0
    7.5195   -1.1737   -0.1069 H   0  0  0  0  0  0  0  0  0  0  0  0
    5.7650   -4.5808    2.5190 H   0  0  0  0  0  0  0  0  0  0  0  0
    6.9515   -4.5927    1.2250 H   0  0  0  0  0  0  0  0  0  0  0  0
    5.3868   -5.3564    0.9848 H   0  0  0  0  0  0  0  0  0  0  0  0
    4.9852   -0.8234    0.1707 H   0  0  0  0  0  0  0  0  0  0  0  0
    5.8440   -0.3121   -2.3216 H   0  0  0  0  0  0  0  0  0  0  0  0
    3.2964   -0.0035   -3.6195 H   0  0  0  0  0  0  0  0  0  0  0  0
    4.5146   -0.7677   -4.5241 H   0  0  0  0  0  0  0  0  0  0  0  0
    2.2716   -2.5087   -3.6274 H   0  0  0  0  0  0  0  0  0  0  0  0
    2.5877   -0.9160   -1.9877 H   0  0  0  0  0  0  0  0  0  0  0  0
    5.8026   -2.4810   -2.6340 H   0  0  0  0  0  0  0  0  0  0  0  0
    4.6184   -4.0722   -3.4513 H   0  0  0  0  0  0  0  0  0  0  0  0
    4.7161   -4.9694   -1.0992 H   0  0  0  0  0  0  0  0  0  0  0  0
    1.0957   -3.5937   -0.8775 H   0  0  0  0  0  0  0  0  0  0  0  0
    1.8167   -5.2385   -1.1201 H   0  0  0  0  0  0  0  0  0  0  0  0
    3.0553   -5.1966    1.0700 H   0  0  0  0  0  0  0  0  0  0  0  0
    2.2281   -3.6194    1.5206 H   0  0  0  0  0  0  0  0  0  0  0  0
    2.6417   -1.5307    0.0206 H   0  0  0  0  0  0  0  0  0  0  0  0
  1  2  1  0
  1 18  1  0
  1 19  1  0
  1 20  1  0
  2  3  1  0
  3 13  1  0
  3  4  1  0
  3  6  1  0
  4  5  1  0
  5 21  1  0
  5 22  1  0
  5 23  1  0
  6 17  1  0
  6  7  1  0
  6 24  1  1
  7 11  1  0
  7  8  1  0
  7 25  1  1
  8  9  1  0
  8 26  1  0
  8 27  1  0
  9 12  1  0
  9 10  1  0
  9 28  1  6
 10 17  1  0
 10 11  1  0
 10 29  1  1
 11 12  1  0
 11 30  1  6
 12 13  1  0
 12 31  1  6
 13 14  1  0
 13 32  1  6
 14 16  1  0
 14 15  1  0
 14 17  1  0
 15 16  1  0
 15 33  1  0
 15 34  1  0
 16 35  1  0
 16 36  1  0
 17 37  1  1
M  END
>  <i_m_ct_stereo_status>  (264) 
1

>  <s_m_source_file>  (264) 
/var/tmp/pbs.5076255.sched01/tmpos3i1bch/920fm1no0n.sdf

>  <i_m_source_file_index>  (264) 
21

>  <i_lp_mmshare_version>  (264) 
48012

>  <i_f3d_flags>  (264) 
2

>  <s_epik_input>  (264) 
W0NIM11PQzEoT1tDSDNdKVtDQEhdKFtDQEBIXTIzKVtDQEBIXShbQ0gyXTQpW0NASF01W0NAQEhdMltDQEBIXTRbQ0BIXTVbQ0BASF0xQzM2W0NIMl1bQ0gyXTY=

>  <s_epik_cmdline>  (264) 
J2VwaWtfcHl0aG9uJywgJy1waHQnLCAnMi4wJywgJy1waCcsICc3LjAnLCAnLXRuJywgJzgnLCAnLW1hJywgJzIwMCcsICctaW1hZScsICc8aW5maWxlLm1hZT4nLCAnLW9tYWUnLCAnPG91dGZpbGUubWFlPic=

>  <r_lp_tautomer_probability>  (264) 
1

>  <r_epik_Ionization_Penalty>  (264) 
3.21055e-12

>  <r_epik_Ionization_Penalty_Charging>  (264) 
0

>  <r_epik_Ionization_Penalty_Neutral>  (264) 
3.21055e-12

>  <r_epik_State_Penalty>  (264) 
-0

>  <r_epik_Charging_Adjusted_Penalty>  (264) 
0

>  <i_epik_Tot_Q>  (264) 
0

>  <i_epik_Tot_abs_Q>  (264) 
0

>  <s_lp_Force_Field>  (264) 
OPLS3e

>  <r_lp_Energy>  (264) 
355.946

>  <b_lp_Chiralities_Consistent>  (264) 
0

>  <s_lp_Variant>  (264) 
79:0-1

>  <s_i_glide_gridfile>  (264) 
pfpi4k_grid

>  <i_i_glide_lignum>  (264) 
21

>  <i_i_glide_rotatable_bonds>  (264) 
2

>  <r_i_docking_score>  (264) 
-3.06209

>  <r_i_glide_ligand_efficiency>  (264) 
-0.180123

>  <r_i_glide_ligand_efficiency_sa>  (264) 
-0.463147

>  <r_i_glide_ligand_efficiency_ln>  (264) 
-0.798832

>  <r_i_glide_gscore>  (264) 
-3.06209

>  <r_i_glide_lipo>  (264) 
-0.512762

>  <r_i_glide_hbond>  (264) 
0

>  <r_i_glide_metal>  (264) 
-0

>  <r_i_glide_rewards>  (264) 
-1.85703

>  <r_i_glide_evdw>  (264) 
-16.2771

>  <r_i_glide_ecoul>  (264) 
-0.262406

>  <r_i_glide_erotb>  (264) 
0

>  <r_i_glide_esite>  (264) 
0

>  <r_i_glide_emodel>  (264) 
-14.5236

>  <r_i_glide_energy>  (264) 
-16.5395

>  <r_i_glide_einternal>  (264) 
0.616865

>  <r_i_glide_intrahb_reward>  (264) 
-0

>  <i_i_glide_confnum>  (264) 
2

>  <i_i_glide_posenum>  (264) 
28

>  <r_i_glide_eff_state_penalty>  (264) 
0

>  <ligand_id>  (264) 
79

>  <original_smiles>  (264) 
COC1(OC)C2C3CC4C5C3C4C1C1(CC1)C52

>  <smiles>  (264) 
[H]C([H])([H])OC1(OC([H])([H])[H])C2([H])C3([H])C([H])([H])C4([H])C5([H])C3([H])C4([H])C2([H])C2(C([H])([H])C2([H])[H])C15[H]

$$$$
79:0:1
     RDKit          3D

 37 42  0  0  1  0  0  0  0  0999 V2000
    5.6286   -0.2501    0.3964 C   0  0  0  0  0  0  0  0  0  0  0  0
    4.4062   -0.4569   -0.3050 O   0  0  0  0  0  0  0  0  0  0  0  0
    4.4570   -1.3671   -1.3737 C   0  0  0  0  0  0  0  0  0  0  0  0
    4.9999   -0.7717   -2.5287 O   0  0  0  0  0  0  0  0  0  0  0  0
    4.1672    0.1577   -3.2644 C   0  0  0  0  0  0  0  0  0  0  0  0
    5.2997   -2.7004   -1.0688 C   0  0  1  0  0  0  0  0  0  0  0  0
    5.0296   -3.5057    0.4092 C   0  0  1  0  0  0  0  0  0  0  0  0
    4.0563   -4.7771    0.8377 C   0  0  0  0  0  0  0  0  0  0  0  0
    2.9178   -4.5560   -0.2727 C   0  0  2  0  0  0  0  0  0  0  0  0
    4.0547   -4.2588   -1.0193 C   0  0  2  0  0  0  0  0  0  0  0  0
    3.6957   -3.2562    0.3447 C   0  0  1  0  0  0  0  0  0  0  0  0
    2.5652   -3.0498   -0.5781 C   0  0  1  0  0  0  0  0  0  0  0  0
    3.0432   -2.0230   -1.7054 C   0  0  2  0  0  0  0  0  0  0  0  0
    3.4365   -2.8771   -2.8327 C   0  0  0  0  0  0  0  0  0  0  0  0
    2.5062   -3.6431   -3.7375 C   0  0  0  0  0  0  0  0  0  0  0  0
    3.4315   -2.6079   -4.3145 C   0  0  0  0  0  0  0  0  0  0  0  0
    4.5888   -3.5272   -2.1385 C   0  0  1  0  0  0  0  0  0  0  0  0
    5.5068    0.5354    1.1243 H   0  0  0  0  0  0  0  0  0  0  0  0
    6.4523    0.0018   -0.2653 H   0  0  0  0  0  0  0  0  0  0  0  0
    5.9347   -1.0908    0.9956 H   0  0  0  0  0  0  0  0  0  0  0  0
    4.5934    0.5191   -4.1741 H   0  0  0  0  0  0  0  0  0  0  0  0
    3.9292    1.0243   -2.6745 H   0  0  0  0  0  0  0  0  0  0  0  0
    3.1738   -0.1796   -3.5483 H   0  0  0  0  0  0  0  0  0  0  0  0
    6.3472   -2.5251   -1.2887 H   0  0  0  0  0  0  0  0  0  0  0  0
    5.5488   -3.1302    1.2879 H   0  0  0  0  0  0  0  0  0  0  0  0
    4.5481   -5.7623    0.7924 H   0  0  0  0  0  0  0  0  0  0  0  0
    3.6477   -4.7748    1.8735 H   0  0  0  0  0  0  0  0  0  0  0  0
    2.3269   -5.3479   -0.6981 H   0  0  0  0  0  0  0  0  0  0  0  0
    4.6460   -5.1892   -1.1283 H   0  0  0  0  0  0  0  0  0  0  0  0
    3.6928   -2.2357    0.6922 H   0  0  0  0  0  0  0  0  0  0  0  0
    1.7248   -2.7140    0.0060 H   0  0  0  0  0  0  0  0  0  0  0  0
    2.3010   -1.3055   -2.0107 H   0  0  0  0  0  0  0  0  0  0  0  0
    2.7530   -4.6733   -4.0229 H   0  0  0  0  0  0  0  0  0  0  0  0
    1.4506   -3.3813   -3.7255 H   0  0  0  0  0  0  0  0  0  0  0  0
    2.8690   -1.8185   -4.7794 H   0  0  0  0  0  0  0  0  0  0  0  0
    4.3824   -2.9081   -4.7382 H   0  0  0  0  0  0  0  0  0  0  0  0
    5.2325   -4.0952   -2.7999 H   0  0  0  0  0  0  0  0  0  0  0  0
  1  2  1  0
  1 18  1  0
  1 19  1  0
  1 20  1  0
  2  3  1  0
  3 13  1  0
  3  4  1  0
  3  6  1  0
  4  5  1  0
  5 21  1  0
  5 22  1  0
  5 23  1  0
  6 17  1  0
  6  7  1  0
  6 24  1  6
  7 11  1  0
  7  8  1  0
  7 25  1  1
  8  9  1  0
  8 26  1  0
  8 27  1  0
  9 12  1  0
  9 10  1  0
  9 28  1  6
 10 17  1  0
 10 11  1  0
 10 29  1  1
 11 12  1  0
 11 30  1  1
 12 13  1  0
 12 31  1  1
 13 14  1  0
 13 32  1  6
 14 16  1  0
 14 15  1  0
 14 17  1  0
 15 16  1  0
 15 33  1  0
 15 34  1  0
 16 35  1  0
 16 36  1  0
 17 37  1  6
M  END
>  <i_m_ct_stereo_status>  (265) 
1

>  <s_m_source_file>  (265) 
/var/tmp/pbs.5076255.sched01/tmpos3i1bch/920fm1no0n.sdf

>  <i_m_source_file_index>  (265) 
21

>  <i_lp_mmshare_version>  (265) 
48012

>  <i_f3d_flags>  (265) 
2

>  <s_epik_input>  (265) 
W0NIM11PQzEoT1tDSDNdKVtDQEhdKFtDQEBIXTIzKVtDQEBIXShbQ0gyXTQpW0NASF01W0NAQEhdMltDQEBIXTRbQ0BIXTVbQ0BASF0xQzM2W0NIMl1bQ0gyXTY=

>  <s_epik_cmdline>  (265) 
J2VwaWtfcHl0aG9uJywgJy1waHQnLCAnMi4wJywgJy1waCcsICc3LjAnLCAnLXRuJywgJzgnLCAnLW1hJywgJzIwMCcsICctaW1hZScsICc8aW5maWxlLm1hZT4nLCAnLW9tYWUnLCAnPG91dGZpbGUubWFlPic=

>  <r_lp_tautomer_probability>  (265) 
1

>  <r_epik_Ionization_Penalty>  (265) 
3.21055e-12

>  <r_epik_Ionization_Penalty_Charging>  (265) 
0

>  <r_epik_Ionization_Penalty_Neutral>  (265) 
3.21055e-12

>  <r_epik_State_Penalty>  (265) 
-0

>  <r_epik_Charging_Adjusted_Penalty>  (265) 
0

>  <i_epik_Tot_Q>  (265) 
0

>  <i_epik_Tot_abs_Q>  (265) 
0

>  <s_lp_Force_Field>  (265) 
OPLS3e

>  <r_lp_Energy>  (265) 
355.946

>  <b_lp_Chiralities_Consistent>  (265) 
0

>  <s_lp_Variant>  (265) 
79:0-1

>  <s_i_glide_gridfile>  (265) 
pfpi4k_grid

>  <i_i_glide_lignum>  (265) 
21

>  <i_i_glide_rotatable_bonds>  (265) 
2

>  <r_i_docking_score>  (265) 
-1.92138

>  <r_i_glide_ligand_efficiency>  (265) 
-0.113023

>  <r_i_glide_ligand_efficiency_sa>  (265) 
-0.290613

>  <r_i_glide_ligand_efficiency_ln>  (265) 
-0.501246

>  <r_i_glide_gscore>  (265) 
-1.92138

>  <r_i_glide_lipo>  (265) 
-0.351523

>  <r_i_glide_hbond>  (265) 
0

>  <r_i_glide_metal>  (265) 
-0

>  <r_i_glide_rewards>  (265) 
-1.8251

>  <r_i_glide_evdw>  (265) 
-6.2832

>  <r_i_glide_ecoul>  (265) 
0.0901972

>  <r_i_glide_erotb>  (265) 
0

>  <r_i_glide_esite>  (265) 
-0.0462685

>  <r_i_glide_emodel>  (265) 
-0.031971

>  <r_i_glide_energy>  (265) 
-6.193

>  <r_i_glide_einternal>  (265) 
4.1028

>  <r_i_glide_intrahb_reward>  (265) 
-0

>  <i_i_glide_confnum>  (265) 
2

>  <i_i_glide_posenum>  (265) 
22

>  <r_i_glide_eff_state_penalty>  (265) 
0

>  <ligand_id>  (265) 
79

>  <original_smiles>  (265) 
COC1(OC)C2C3CC4C5C3C4C1C1(CC1)C52

>  <smiles>  (265) 
[H]C([H])([H])OC1(OC([H])([H])[H])C2([H])C3([H])C([H])([H])C4([H])C5([H])C3([H])C4([H])C2([H])C2(C([H])([H])C2([H])[H])C15[H]

$$$$
79:0:2
     RDKit          3D

 37 42  0  0  1  0  0  0  0  0999 V2000
    7.8905   -2.7880   -2.0284 C   0  0  0  0  0  0  0  0  0  0  0  0
    6.6272   -3.3955   -2.2602 O   0  0  0  0  0  0  0  0  0  0  0  0
    5.5840   -2.8988   -1.4831 C   0  0  0  0  0  0  0  0  0  0  0  0
    6.0026   -2.8346   -0.1412 O   0  0  0  0  0  0  0  0  0  0  0  0
    6.5099   -4.0484    0.4270 C   0  0  0  0  0  0  0  0  0  0  0  0
    4.9934   -1.4532   -1.9170 C   0  0  1  0  0  0  0  0  0  0  0  0
    4.5790   -1.1874   -3.5529 C   0  0  1  0  0  0  0  0  0  0  0  0
    3.1997   -1.2959   -4.4187 C   0  0  0  0  0  0  0  0  0  0  0  0
    2.5039   -2.4421   -3.5313 C   0  0  2  0  0  0  0  0  0  0  0  0
    3.0789   -1.6787   -2.5135 C   0  0  2  0  0  0  0  0  0  0  0  0
    4.1192   -2.4312   -3.6737 C   0  0  1  0  0  0  0  0  0  0  0  0
    3.4745   -3.5572   -3.0007 C   0  0  1  0  0  0  0  0  0  0  0  0
    4.2702   -3.7806   -1.6168 C   0  0  2  0  0  0  0  0  0  0  0  0
    3.4766   -3.0354   -0.6088 C   0  0  0  0  0  0  0  0  0  0  0  0
    2.1856   -3.4963   -0.0546 C   0  0  0  0  0  0  0  0  0  0  0  0
    3.3501   -3.2726    0.8742 C   0  0  0  0  0  0  0  0  0  0  0  0
    3.6619   -1.6829   -1.2013 C   0  0  1  0  0  0  0  0  0  0  0  0
    8.7196   -3.3702   -2.4192 H   0  0  0  0  0  0  0  0  0  0  0  0
    8.1993   -2.6392   -1.0007 H   0  0  0  0  0  0  0  0  0  0  0  0
    7.8503   -1.8360   -2.5100 H   0  0  0  0  0  0  0  0  0  0  0  0
    6.8256   -3.8490    1.4501 H   0  0  0  0  0  0  0  0  0  0  0  0
    7.3871   -4.4279   -0.0949 H   0  0  0  0  0  0  0  0  0  0  0  0
    5.7823   -4.8583    0.4430 H   0  0  0  0  0  0  0  0  0  0  0  0
    5.5791   -0.6446   -1.4820 H   0  0  0  0  0  0  0  0  0  0  0  0
    5.3156   -0.9853   -4.3011 H   0  0  0  0  0  0  0  0  0  0  0  0
    2.5980   -0.3843   -4.4966 H   0  0  0  0  0  0  0  0  0  0  0  0
    3.4501   -1.5115   -5.4802 H   0  0  0  0  0  0  0  0  0  0  0  0
    1.4273   -2.5701   -3.3941 H   0  0  0  0  0  0  0  0  0  0  0  0
    2.5559   -0.6913   -2.4886 H   0  0  0  0  0  0  0  0  0  0  0  0
    5.0598   -2.9787   -3.7665 H   0  0  0  0  0  0  0  0  0  0  0  0
    3.5445   -4.3540   -3.7353 H   0  0  0  0  0  0  0  0  0  0  0  0
    4.4003   -4.8109   -1.3083 H   0  0  0  0  0  0  0  0  0  0  0  0
    1.4200   -2.6570   -0.0384 H   0  0  0  0  0  0  0  0  0  0  0  0
    1.8461   -4.5015   -0.2574 H   0  0  0  0  0  0  0  0  0  0  0  0
    3.7455   -4.1847    1.3377 H   0  0  0  0  0  0  0  0  0  0  0  0
    3.3113   -2.3863    1.4981 H   0  0  0  0  0  0  0  0  0  0  0  0
    3.3044   -0.8593   -0.5825 H   0  0  0  0  0  0  0  0  0  0  0  0
  1  2  1  0
  1 18  1  0
  1 19  1  0
  1 20  1  0
  2  3  1  0
  3 13  1  0
  3  4  1  0
  3  6  1  0
  4  5  1  0
  5 21  1  0
  5 22  1  0
  5 23  1  0
  6 17  1  0
  6  7  1  0
  6 24  1  1
  7 11  1  0
  7  8  1  0
  7 25  1  6
  8  9  1  0
  8 26  1  0
  8 27  1  0
  9 12  1  0
  9 10  1  0
  9 28  1  1
 10 17  1  0
 10 11  1  0
 10 29  1  6
 11 12  1  0
 11 30  1  6
 12 13  1  0
 12 31  1  6
 13 14  1  0
 13 32  1  1
 14 16  1  0
 14 15  1  0
 14 17  1  0
 15 16  1  0
 15 33  1  0
 15 34  1  0
 16 35  1  0
 16 36  1  0
 17 37  1  1
M  END
>  <i_m_ct_stereo_status>  (266) 
1

>  <s_m_source_file>  (266) 
/var/tmp/pbs.5076255.sched01/tmpos3i1bch/920fm1no0n.sdf

>  <i_m_source_file_index>  (266) 
21

>  <i_lp_mmshare_version>  (266) 
48012

>  <i_f3d_flags>  (266) 
2

>  <s_epik_input>  (266) 
W0NIM11PQzEoT1tDSDNdKVtDQEhdKFtDQEBIXTIzKVtDQEBIXShbQ0gyXTQpW0NASF01W0NAQEhdMltDQEBIXTRbQ0BIXTVbQ0BASF0xQzM2W0NIMl1bQ0gyXTY=

>  <s_epik_cmdline>  (266) 
J2VwaWtfcHl0aG9uJywgJy1waHQnLCAnMi4wJywgJy1waCcsICc3LjAnLCAnLXRuJywgJzgnLCAnLW1hJywgJzIwMCcsICctaW1hZScsICc8aW5maWxlLm1hZT4nLCAnLW9tYWUnLCAnPG91dGZpbGUubWFlPic=

>  <r_lp_tautomer_probability>  (266) 
1

>  <r_epik_Ionization_Penalty>  (266) 
3.21055e-12

>  <r_epik_Ionization_Penalty_Charging>  (266) 
0

>  <r_epik_Ionization_Penalty_Neutral>  (266) 
3.21055e-12

>  <r_epik_State_Penalty>  (266) 
-0

>  <r_epik_Charging_Adjusted_Penalty>  (266) 
0

>  <i_epik_Tot_Q>  (266) 
0

>  <i_epik_Tot_abs_Q>  (266) 
0

>  <s_lp_Force_Field>  (266) 
OPLS3e

>  <r_lp_Energy>  (266) 
355.946

>  <b_lp_Chiralities_Consistent>  (266) 
0

>  <s_lp_Variant>  (266) 
79:0-1

>  <s_i_glide_gridfile>  (266) 
pfpi4k_grid

>  <i_i_glide_lignum>  (266) 
21

>  <i_i_glide_rotatable_bonds>  (266) 
2

>  <r_i_docking_score>  (266) 
-1.69965

>  <r_i_glide_ligand_efficiency>  (266) 
-0.0999792

>  <r_i_glide_ligand_efficiency_sa>  (266) 
-0.257075

>  <r_i_glide_ligand_efficiency_ln>  (266) 
-0.4434

>  <r_i_glide_gscore>  (266) 
-1.69965

>  <r_i_glide_lipo>  (266) 
-0.652766

>  <r_i_glide_hbond>  (266) 
0

>  <r_i_glide_metal>  (266) 
-0

>  <r_i_glide_rewards>  (266) 
-1.85304

>  <r_i_glide_evdw>  (266) 
-2.58825

>  <r_i_glide_ecoul>  (266) 
0.986983

>  <r_i_glide_erotb>  (266) 
0

>  <r_i_glide_esite>  (266) 
0

>  <r_i_glide_emodel>  (266) 
3.68522

>  <r_i_glide_energy>  (266) 
-1.60126

>  <r_i_glide_einternal>  (266) 
0.804394

>  <r_i_glide_intrahb_reward>  (266) 
-0

>  <i_i_glide_confnum>  (266) 
1

>  <i_i_glide_posenum>  (266) 
20

>  <r_i_glide_eff_state_penalty>  (266) 
0

>  <ligand_id>  (266) 
79

>  <original_smiles>  (266) 
COC1(OC)C2C3CC4C5C3C4C1C1(CC1)C52

>  <smiles>  (266) 
[H]C([H])([H])OC1(OC([H])([H])[H])C2([H])C3([H])C([H])([H])C4([H])C5([H])C3([H])C4([H])C2([H])C2(C([H])([H])C2([H])[H])C15[H]

$$$$
80:0:0
     RDKit          3D

 33 35  0  0  1  0  0  0  0  0999 V2000
   -0.1698   -9.0633    5.5361 C   0  0  0  0  0  0  0  0  0  0  0  0
    0.8844   -7.6090    5.3397 S   0  0  0  0  0  0  0  0  0  0  0  0
    0.9241   -7.2098    3.6213 C   0  0  0  0  0  0  0  0  0  0  0  0
   -0.0453   -7.7029    2.8162 N   0  0  0  0  0  0  0  0  0  0  0  0
   -0.0246   -7.3711    1.5167 C   0  0  0  0  0  0  0  0  0  0  0  0
    0.7928   -6.5351    0.8700 N   0  0  0  0  0  0  0  0  0  0  0  0
    1.7898   -6.0728    1.6921 C   0  0  0  0  0  0  0  0  0  0  0  0
    1.9035   -6.3480    3.0819 C   0  0  0  0  0  0  0  0  0  0  0  0
    2.9712   -5.6800    3.6568 N   0  0  0  0  0  0  0  0  0  0  0  0
    3.4580   -5.0429    2.5864 C   0  0  0  0  0  0  0  0  0  0  0  0
    2.8507   -5.2390    1.4037 N   0  0  0  0  0  0  0  0  0  0  0  0
    3.2341   -4.6430    0.0857 C   0  0  2  0  0  0  0  0  0  0  0  0
    4.7058   -4.9316   -0.2315 C   0  0  0  0  0  0  0  0  0  0  0  0
    5.0700   -3.7273   -1.0645 C   0  0  1  0  0  0  0  0  0  0  0  0
    4.7477   -4.0097   -2.4082 O   0  0  0  0  0  0  0  0  0  0  0  0
    4.2135   -2.6126   -0.4256 C   0  0  1  0  0  0  0  0  0  0  0  0
    3.7977   -1.4530   -1.3622 C   0  0  0  0  0  0  0  0  0  0  0  0
    4.9498   -0.7705   -1.8408 O   0  0  0  0  0  0  0  0  0  0  0  0
    3.0989   -3.2556    0.1918 O   0  0  0  0  0  0  0  0  0  0  0  0
   -0.1676   -9.3691    6.5819 H   0  0  0  0  0  0  0  0  0  0  0  0
    0.1912   -9.8980    4.9347 H   0  0  0  0  0  0  0  0  0  0  0  0
   -1.1902   -8.8252    5.2406 H   0  0  0  0  0  0  0  0  0  0  0  0
   -0.8005   -7.8305    0.9228 H   0  0  0  0  0  0  0  0  0  0  0  0
    4.3232   -4.4013    2.6918 H   0  0  0  0  0  0  0  0  0  0  0  0
    2.5236   -5.0180   -0.6500 H   0  0  0  0  0  0  0  0  0  0  0  0
    5.3164   -4.9172    0.6694 H   0  0  0  0  0  0  0  0  0  0  0  0
    4.8177   -5.8913   -0.7271 H   0  0  0  0  0  0  0  0  0  0  0  0
    6.1334   -3.4856   -0.9965 H   0  0  0  0  0  0  0  0  0  0  0  0
    3.9049   -4.4466   -2.4153 H   0  0  0  0  0  0  0  0  0  0  0  0
    4.7602   -2.2119    0.4261 H   0  0  0  0  0  0  0  0  0  0  0  0
    3.2031   -1.8142   -2.2005 H   0  0  0  0  0  0  0  0  0  0  0  0
    3.1612   -0.7323   -0.8430 H   0  0  0  0  0  0  0  0  0  0  0  0
    5.0058    0.0750   -1.4163 H   0  0  0  0  0  0  0  0  0  0  0  0
  1  2  1  0
  1 20  1  0
  1 21  1  0
  1 22  1  0
  2  3  1  0
  3  8  2  0
  3  4  1  0
  4  5  2  0
  5  6  1  0
  5 23  1  0
  6  7  2  0
  7 11  1  0
  7  8  1  0
  8  9  1  0
  9 10  2  0
 10 11  1  0
 10 24  1  0
 11 12  1  0
 12 19  1  0
 12 13  1  0
 12 25  1  6
 13 14  1  0
 13 26  1  0
 13 27  1  0
 14 15  1  0
 14 16  1  0
 14 28  1  6
 15 29  1  0
 16 17  1  0
 16 19  1  0
 16 30  1  1
 17 18  1  0
 17 31  1  0
 17 32  1  0
 18 33  1  0
M  END
>  <i_m_ct_stereo_status>  (267) 
1

>  <s_m_source_file>  (267) 
/var/tmp/pbs.5076255.sched01/tmpos3i1bch/920fm1no0n.sdf

>  <i_m_source_file_index>  (267) 
22

>  <i_lp_mmshare_version>  (267) 
48012

>  <i_f3d_flags>  (267) 
0

>  <s_epik_input>  (267) 
bjFbY0hdbmMoU1tDSDNdKWMoYzEyKW5bY0hdbjJbQ0BASF0zW0NIMl1bQ0BASF0oW09IXSlbQ0BIXShPMylbQ0gyXVtPSF0=

>  <s_epik_cmdline>  (267) 
J2VwaWtfcHl0aG9uJywgJy1waHQnLCAnMi4wJywgJy1waCcsICc3LjAnLCAnLXRuJywgJzgnLCAnLW1hJywgJzIwMCcsICctaW1hZScsICc8aW5maWxlLm1hZT4nLCAnLW9tYWUnLCAnPG91dGZpbGUubWFlPic=

>  <r_lp_tautomer_probability>  (267) 
1

>  <r_epik_Ionization_Penalty>  (267) 
3.80424e-06

>  <r_epik_Ionization_Penalty_Charging>  (267) 
0

>  <r_epik_Ionization_Penalty_Neutral>  (267) 
3.80424e-06

>  <r_epik_State_Penalty>  (267) 
-0

>  <r_epik_Charging_Adjusted_Penalty>  (267) 
0

>  <i_epik_Tot_Q>  (267) 
0

>  <i_epik_Tot_abs_Q>  (267) 
0

>  <s_epik_Chemistry_Notes>  (267) 
This compound contains an acetal/aminal-like group ( X-CH(R)-Y where X, Y are N, S, or O) that may be acid/base labile, releasing an aldehyde.

>  <s_lp_Force_Field>  (267) 
OPLS3e

>  <r_lp_Energy>  (267) 
11.3835

>  <b_lp_Chiralities_Consistent>  (267) 
1

>  <s_lp_Variant>  (267) 
80:0-1

>  <s_i_glide_gridfile>  (267) 
pfpi4k_grid

>  <i_i_glide_lignum>  (267) 
22

>  <i_i_glide_rotatable_bonds>  (267) 
5

>  <r_i_docking_score>  (267) 
-3.81961

>  <r_i_glide_ligand_efficiency>  (267) 
-0.201032

>  <r_i_glide_ligand_efficiency_sa>  (267) 
-0.536434

>  <r_i_glide_ligand_efficiency_ln>  (267) 
-0.968353

>  <r_i_glide_gscore>  (267) 
-3.81961

>  <r_i_glide_lipo>  (267) 
-0.0339673

>  <r_i_glide_hbond>  (267) 
-0.134313

>  <r_i_glide_metal>  (267) 
-0

>  <r_i_glide_rewards>  (267) 
-1.48418

>  <r_i_glide_evdw>  (267) 
-20.5951

>  <r_i_glide_ecoul>  (267) 
-9.47981

>  <r_i_glide_erotb>  (267) 
0.453971

>  <r_i_glide_esite>  (267) 
-0.169387

>  <r_i_glide_emodel>  (267) 
-35.746

>  <r_i_glide_energy>  (267) 
-30.0749

>  <r_i_glide_einternal>  (267) 
3.07147

>  <r_i_glide_intrahb_reward>  (267) 
-0

>  <i_i_glide_confnum>  (267) 
5

>  <i_i_glide_posenum>  (267) 
17

>  <r_i_glide_eff_state_penalty>  (267) 
0

>  <ligand_id>  (267) 
80

>  <original_smiles>  (267) 
CSc1ncnc2c1ncn2C1CC(O)C(CO)O1

>  <smiles>  (267) 
[H]OC([H])([H])C1([H])OC([H])(n2c([H])nc3c(SC([H])([H])[H])nc([H])nc32)C([H])([H])C1([H])O[H]

$$$$
80:0:1
     RDKit          3D

 33 35  0  0  1  0  0  0  0  0999 V2000
    1.1537  -10.1316    3.2224 C   0  0  0  0  0  0  0  0  0  0  0  0
    0.8116   -8.4956    2.5229 S   0  0  0  0  0  0  0  0  0  0  0  0
    2.3658   -7.7628    2.1070 C   0  0  0  0  0  0  0  0  0  0  0  0
    3.4997   -8.2835    2.6251 N   0  0  0  0  0  0  0  0  0  0  0  0
    4.6686   -7.6997    2.3278 C   0  0  0  0  0  0  0  0  0  0  0  0
    4.9039   -6.6187    1.5741 N   0  0  0  0  0  0  0  0  0  0  0  0
    3.7498   -6.0998    1.0702 C   0  0  0  0  0  0  0  0  0  0  0  0
    2.4440   -6.6166    1.2869 C   0  0  0  0  0  0  0  0  0  0  0  0
    1.4790   -5.8576    0.6415 N   0  0  0  0  0  0  0  0  0  0  0  0
    2.2411   -4.9222    0.0764 C   0  0  0  0  0  0  0  0  0  0  0  0
    3.5671   -4.9822    0.2762 N   0  0  0  0  0  0  0  0  0  0  0  0
    4.5997   -4.0510   -0.2461 C   0  0  2  0  0  0  0  0  0  0  0  0
    4.7280   -2.8475    0.6737 C   0  0  0  0  0  0  0  0  0  0  0  0
    5.1312   -1.7707   -0.3080 C   0  0  1  0  0  0  0  0  0  0  0  0
    6.5327   -1.8320   -0.5497 O   0  0  0  0  0  0  0  0  0  0  0  0
    4.3072   -2.1575   -1.5512 C   0  0  1  0  0  0  0  0  0  0  0  0
    4.9627   -1.7462   -2.8787 C   0  0  0  0  0  0  0  0  0  0  0  0
    4.0549   -1.7108   -3.9645 O   0  0  0  0  0  0  0  0  0  0  0  0
    4.1637   -3.5741   -1.4799 O   0  0  0  0  0  0  0  0  0  0  0  0
    0.2099  -10.6237    3.4646 H   0  0  0  0  0  0  0  0  0  0  0  0
    1.7417  -10.0381    4.1370 H   0  0  0  0  0  0  0  0  0  0  0  0
    1.6992  -10.7526    2.5088 H   0  0  0  0  0  0  0  0  0  0  0  0
    5.5375   -8.1557    2.7795 H   0  0  0  0  0  0  0  0  0  0  0  0
    1.8140   -4.1444   -0.5380 H   0  0  0  0  0  0  0  0  0  0  0  0
    5.5109   -4.6307   -0.3699 H   0  0  0  0  0  0  0  0  0  0  0  0
    3.7527   -2.6102    1.1032 H   0  0  0  0  0  0  0  0  0  0  0  0
    5.4413   -3.0282    1.4750 H   0  0  0  0  0  0  0  0  0  0  0  0
    4.8621   -0.7710    0.0460 H   0  0  0  0  0  0  0  0  0  0  0  0
    6.9746   -1.9062    0.2833 H   0  0  0  0  0  0  0  0  0  0  0  0
    3.3099   -1.7212   -1.4560 H   0  0  0  0  0  0  0  0  0  0  0  0
    5.3441   -0.7346   -2.7534 H   0  0  0  0  0  0  0  0  0  0  0  0
    5.8035   -2.4001   -3.1171 H   0  0  0  0  0  0  0  0  0  0  0  0
    3.2781   -1.2399   -3.6984 H   0  0  0  0  0  0  0  0  0  0  0  0
  1  2  1  0
  1 20  1  0
  1 21  1  0
  1 22  1  0
  2  3  1  0
  3  8  2  0
  3  4  1  0
  4  5  2  0
  5  6  1  0
  5 23  1  0
  6  7  2  0
  7 11  1  0
  7  8  1  0
  8  9  1  0
  9 10  2  0
 10 11  1  0
 10 24  1  0
 11 12  1  0
 12 19  1  0
 12 13  1  0
 12 25  1  6
 13 14  1  0
 13 26  1  0
 13 27  1  0
 14 15  1  0
 14 16  1  0
 14 28  1  1
 15 29  1  0
 16 17  1  0
 16 19  1  0
 16 30  1  1
 17 18  1  0
 17 31  1  0
 17 32  1  0
 18 33  1  0
M  END
>  <i_m_ct_stereo_status>  (268) 
1

>  <s_m_source_file>  (268) 
/var/tmp/pbs.5076255.sched01/tmpos3i1bch/920fm1no0n.sdf

>  <i_m_source_file_index>  (268) 
22

>  <i_lp_mmshare_version>  (268) 
48012

>  <i_f3d_flags>  (268) 
0

>  <s_epik_input>  (268) 
bjFbY0hdbmMoU1tDSDNdKWMoYzEyKW5bY0hdbjJbQ0BASF0zW0NIMl1bQ0BASF0oW09IXSlbQ0BIXShPMylbQ0gyXVtPSF0=

>  <s_epik_cmdline>  (268) 
J2VwaWtfcHl0aG9uJywgJy1waHQnLCAnMi4wJywgJy1waCcsICc3LjAnLCAnLXRuJywgJzgnLCAnLW1hJywgJzIwMCcsICctaW1hZScsICc8aW5maWxlLm1hZT4nLCAnLW9tYWUnLCAnPG91dGZpbGUubWFlPic=

>  <r_lp_tautomer_probability>  (268) 
1

>  <r_epik_Ionization_Penalty>  (268) 
3.80424e-06

>  <r_epik_Ionization_Penalty_Charging>  (268) 
0

>  <r_epik_Ionization_Penalty_Neutral>  (268) 
3.80424e-06

>  <r_epik_State_Penalty>  (268) 
-0

>  <r_epik_Charging_Adjusted_Penalty>  (268) 
0

>  <i_epik_Tot_Q>  (268) 
0

>  <i_epik_Tot_abs_Q>  (268) 
0

>  <s_epik_Chemistry_Notes>  (268) 
This compound contains an acetal/aminal-like group ( X-CH(R)-Y where X, Y are N, S, or O) that may be acid/base labile, releasing an aldehyde.

>  <s_lp_Force_Field>  (268) 
OPLS3e

>  <r_lp_Energy>  (268) 
11.3835

>  <b_lp_Chiralities_Consistent>  (268) 
1

>  <s_lp_Variant>  (268) 
80:0-1

>  <s_i_glide_gridfile>  (268) 
pfpi4k_grid

>  <i_i_glide_lignum>  (268) 
22

>  <i_i_glide_rotatable_bonds>  (268) 
5

>  <r_i_docking_score>  (268) 
-3.60353

>  <r_i_glide_ligand_efficiency>  (268) 
-0.18966

>  <r_i_glide_ligand_efficiency_sa>  (268) 
-0.506088

>  <r_i_glide_ligand_efficiency_ln>  (268) 
-0.913573

>  <r_i_glide_gscore>  (268) 
-3.60353

>  <r_i_glide_lipo>  (268) 
-0.127202

>  <r_i_glide_hbond>  (268) 
-0.153138

>  <r_i_glide_metal>  (268) 
-0

>  <r_i_glide_rewards>  (268) 
-1.57603

>  <r_i_glide_evdw>  (268) 
-21.7155

>  <r_i_glide_ecoul>  (268) 
-6.90595

>  <r_i_glide_erotb>  (268) 
0.453971

>  <r_i_glide_esite>  (268) 
-0.0794638

>  <r_i_glide_emodel>  (268) 
-35.3598

>  <r_i_glide_energy>  (268) 
-28.6215

>  <r_i_glide_einternal>  (268) 
0.794286

>  <r_i_glide_intrahb_reward>  (268) 
-0

>  <i_i_glide_confnum>  (268) 
3

>  <i_i_glide_posenum>  (268) 
9

>  <r_i_glide_eff_state_penalty>  (268) 
0

>  <ligand_id>  (268) 
80

>  <original_smiles>  (268) 
CSc1ncnc2c1ncn2C1CC(O)C(CO)O1

>  <smiles>  (268) 
[H]OC([H])([H])C1([H])OC([H])(n2c([H])nc3c(SC([H])([H])[H])nc([H])nc32)C([H])([H])C1([H])O[H]

$$$$
80:0:2
     RDKit          3D

 33 35  0  0  1  0  0  0  0  0999 V2000
    1.5059   -5.8923    5.9475 C   0  0  0  0  0  0  0  0  0  0  0  0
    2.1135   -4.4767    5.0002 S   0  0  0  0  0  0  0  0  0  0  0  0
    2.1289   -4.9381    3.2927 C   0  0  0  0  0  0  0  0  0  0  0  0
    1.5688   -6.1131    2.9248 N   0  0  0  0  0  0  0  0  0  0  0  0
    1.5819   -6.4491    1.6276 C   0  0  0  0  0  0  0  0  0  0  0  0
    2.0431   -5.7505    0.5828 N   0  0  0  0  0  0  0  0  0  0  0  0
    2.6228   -4.5718    0.9758 C   0  0  0  0  0  0  0  0  0  0  0  0
    2.6956   -4.0976    2.3125 C   0  0  0  0  0  0  0  0  0  0  0  0
    3.3236   -2.8659    2.3858 N   0  0  0  0  0  0  0  0  0  0  0  0
    3.6076   -2.6452    1.1035 C   0  0  0  0  0  0  0  0  0  0  0  0
    3.2413   -3.5925    0.2163 N   0  0  0  0  0  0  0  0  0  0  0  0
    3.4766   -3.5829   -1.2465 C   0  0  2  0  0  0  0  0  0  0  0  0
    4.9120   -4.0092   -1.5489 C   0  0  0  0  0  0  0  0  0  0  0  0
    5.1754   -3.2441   -2.8228 C   0  0  1  0  0  0  0  0  0  0  0  0
    4.6391   -3.9623   -3.9208 O   0  0  0  0  0  0  0  0  0  0  0  0
    4.4163   -1.9317   -2.5748 C   0  0  1  0  0  0  0  0  0  0  0  0
    3.8961   -1.2535   -3.8555 C   0  0  0  0  0  0  0  0  0  0  0  0
    3.8120    0.1445   -3.7106 O   0  0  0  0  0  0  0  0  0  0  0  0
    3.3421   -2.2724   -1.7011 O   0  0  0  0  0  0  0  0  0  0  0  0
    1.5143   -5.6435    7.0092 H   0  0  0  0  0  0  0  0  0  0  0  0
    2.1406   -6.7657    5.7906 H   0  0  0  0  0  0  0  0  0  0  0  0
    0.4844   -6.1336    5.6531 H   0  0  0  0  0  0  0  0  0  0  0  0
    1.1379   -7.4054    1.3942 H   0  0  0  0  0  0  0  0  0  0  0  0
    4.1192   -1.7486    0.7819 H   0  0  0  0  0  0  0  0  0  0  0  0
    2.6997   -4.2163   -1.6716 H   0  0  0  0  0  0  0  0  0  0  0  0
    5.5738   -3.6586   -0.7573 H   0  0  0  0  0  0  0  0  0  0  0  0
    5.0089   -5.0882   -1.6456 H   0  0  0  0  0  0  0  0  0  0  0  0
    6.2386   -3.0564   -2.9927 H   0  0  0  0  0  0  0  0  0  0  0  0
    3.8311   -4.3674   -3.6334 H   0  0  0  0  0  0  0  0  0  0  0  0
    5.0696   -1.2564   -2.0189 H   0  0  0  0  0  0  0  0  0  0  0  0
    4.5952   -1.4099   -4.6762 H   0  0  0  0  0  0  0  0  0  0  0  0
    2.9343   -1.6710   -4.1579 H   0  0  0  0  0  0  0  0  0  0  0  0
    3.0959    0.3643   -3.1229 H   0  0  0  0  0  0  0  0  0  0  0  0
  1  2  1  0
  1 20  1  0
  1 21  1  0
  1 22  1  0
  2  3  1  0
  3  8  2  0
  3  4  1  0
  4  5  2  0
  5  6  1  0
  5 23  1  0
  6  7  2  0
  7 11  1  0
  7  8  1  0
  8  9  1  0
  9 10  2  0
 10 11  1  0
 10 24  1  0
 11 12  1  0
 12 19  1  0
 12 13  1  0
 12 25  1  6
 13 14  1  0
 13 26  1  0
 13 27  1  0
 14 15  1  0
 14 16  1  0
 14 28  1  6
 15 29  1  0
 16 17  1  0
 16 19  1  0
 16 30  1  1
 17 18  1  0
 17 31  1  0
 17 32  1  0
 18 33  1  0
M  END
>  <i_m_ct_stereo_status>  (269) 
1

>  <s_m_source_file>  (269) 
/var/tmp/pbs.5076255.sched01/tmpos3i1bch/920fm1no0n.sdf

>  <i_m_source_file_index>  (269) 
22

>  <i_lp_mmshare_version>  (269) 
48012

>  <i_f3d_flags>  (269) 
0

>  <s_epik_input>  (269) 
bjFbY0hdbmMoU1tDSDNdKWMoYzEyKW5bY0hdbjJbQ0BASF0zW0NIMl1bQ0BASF0oW09IXSlbQ0BIXShPMylbQ0gyXVtPSF0=

>  <s_epik_cmdline>  (269) 
J2VwaWtfcHl0aG9uJywgJy1waHQnLCAnMi4wJywgJy1waCcsICc3LjAnLCAnLXRuJywgJzgnLCAnLW1hJywgJzIwMCcsICctaW1hZScsICc8aW5maWxlLm1hZT4nLCAnLW9tYWUnLCAnPG91dGZpbGUubWFlPic=

>  <r_lp_tautomer_probability>  (269) 
1

>  <r_epik_Ionization_Penalty>  (269) 
3.80424e-06

>  <r_epik_Ionization_Penalty_Charging>  (269) 
0

>  <r_epik_Ionization_Penalty_Neutral>  (269) 
3.80424e-06

>  <r_epik_State_Penalty>  (269) 
-0

>  <r_epik_Charging_Adjusted_Penalty>  (269) 
0

>  <i_epik_Tot_Q>  (269) 
0

>  <i_epik_Tot_abs_Q>  (269) 
0

>  <s_epik_Chemistry_Notes>  (269) 
This compound contains an acetal/aminal-like group ( X-CH(R)-Y where X, Y are N, S, or O) that may be acid/base labile, releasing an aldehyde.

>  <s_lp_Force_Field>  (269) 
OPLS3e

>  <r_lp_Energy>  (269) 
11.3835

>  <b_lp_Chiralities_Consistent>  (269) 
1

>  <s_lp_Variant>  (269) 
80:0-1

>  <s_i_glide_gridfile>  (269) 
pfpi4k_grid

>  <i_i_glide_lignum>  (269) 
22

>  <i_i_glide_rotatable_bonds>  (269) 
5

>  <r_i_docking_score>  (269) 
-3.52862

>  <r_i_glide_ligand_efficiency>  (269) 
-0.185717

>  <r_i_glide_ligand_efficiency_sa>  (269) 
-0.495567

>  <r_i_glide_ligand_efficiency_ln>  (269) 
-0.894581

>  <r_i_glide_gscore>  (269) 
-3.52862

>  <r_i_glide_lipo>  (269) 
-0.369842

>  <r_i_glide_hbond>  (269) 
-0.0148916

>  <r_i_glide_metal>  (269) 
-0

>  <r_i_glide_rewards>  (269) 
-1.50874

>  <r_i_glide_evdw>  (269) 
-23.321

>  <r_i_glide_ecoul>  (269) 
-5.55992

>  <r_i_glide_erotb>  (269) 
0.453971

>  <r_i_glide_esite>  (269) 
-0.089076

>  <r_i_glide_emodel>  (269) 
-35.3168

>  <r_i_glide_energy>  (269) 
-28.8809

>  <r_i_glide_einternal>  (269) 
1.11997

>  <r_i_glide_intrahb_reward>  (269) 
-0

>  <i_i_glide_confnum>  (269) 
3

>  <i_i_glide_posenum>  (269) 
26

>  <r_i_glide_eff_state_penalty>  (269) 
0

>  <ligand_id>  (269) 
80

>  <original_smiles>  (269) 
CSc1ncnc2c1ncn2C1CC(O)C(CO)O1

>  <smiles>  (269) 
[H]OC([H])([H])C1([H])OC([H])(n2c([H])nc3c(SC([H])([H])[H])nc([H])nc32)C([H])([H])C1([H])O[H]

$$$$
81:0:0
     RDKit          3D

 66 71  0  0  1  0  0  0  0  0999 V2000
    3.6174   -2.0162   -0.6714 C   0  0  0  0  0  0  0  0  0  0  0  0
    3.9791   -2.4812    0.7581 C   0  0  0  0  0  0  0  0  0  0  0  0
    4.0933   -1.5068    1.6815 C   0  0  0  0  0  0  0  0  0  0  0  0
    2.8644   -0.7221    1.8307 C   0  0  0  0  0  0  0  0  0  0  0  0
    2.8205    0.4939    1.9994 O   0  0  0  0  0  0  0  0  0  0  0  0
    1.5919   -1.5827    1.8647 C   0  0  0  0  0  0  0  0  0  0  0  0
    1.6771   -2.6787    2.9610 C   0  0  0  0  0  0  0  0  0  0  0  0
    1.9500   -4.2100    2.6815 C   0  0  2  0  0  0  0  0  0  0  0  0
    2.0168   -5.0386    4.0239 C   0  0  1  0  0  0  0  0  0  0  0  0
    2.1900   -4.2372    5.3442 C   0  0  0  0  0  0  0  0  0  0  0  0
    0.7469   -5.7039    4.1294 O   0  0  0  0  0  0  0  0  0  0  0  0
    0.5604   -6.8805    4.7771 C   0  0  0  0  0  0  0  0  0  0  0  0
   -0.5357   -7.4243    4.8539 O   0  0  0  0  0  0  0  0  0  0  0  0
    1.7844   -7.4817    5.4558 C   0  0  0  0  0  0  0  0  0  0  0  0
    3.1228   -7.2694    4.7236 C   0  0  0  0  0  0  0  0  0  0  0  0
    3.1683   -6.0344    3.7884 C   0  0  1  0  0  0  0  0  0  0  0  0
    3.1969   -6.2500    2.2629 C   0  0  2  0  0  0  0  0  0  0  0  0
    2.0316   -7.2233    1.8581 C   0  0  0  0  0  0  0  0  0  0  0  0
    4.4861   -6.9195    1.7293 C   0  0  0  0  0  0  0  0  0  0  0  0
    4.8699   -6.3966    0.3218 C   0  0  0  0  0  0  0  0  0  0  0  0
    4.2665   -5.0070   -0.0380 C   0  0  1  0  0  0  0  0  0  0  0  0
    4.7916   -4.6570   -1.4334 C   0  0  0  0  0  0  0  0  0  0  0  0
    2.7338   -4.9317    0.1737 C   0  0  0  0  0  0  0  0  0  0  0  0
    3.0313   -4.7951    1.6765 C   0  0  1  0  0  0  0  0  0  0  0  0
    4.3157   -3.9699    1.1354 C   0  0  2  0  0  0  0  0  0  0  0  0
    5.5983   -3.8942    2.0086 C   0  0  1  0  0  0  0  0  0  0  0  0
    6.8548   -3.4969    1.2083 C   0  0  0  0  0  0  0  0  0  0  0  0
    5.3594   -3.0274    3.2578 C   0  0  0  0  0  0  0  0  0  0  0  0
    4.9025   -1.5994    2.9607 C   0  0  1  0  0  0  0  0  0  0  0  0
    6.0036   -0.7252    2.8534 O   0  0  0  0  0  0  0  0  0  0  0  0
    4.4709   -2.1423   -1.3326 H   0  0  0  0  0  0  0  0  0  0  0  0
    3.4456   -0.9404   -0.7021 H   0  0  0  0  0  0  0  0  0  0  0  0
    2.7318   -2.4371   -1.1420 H   0  0  0  0  0  0  0  0  0  0  0  0
    0.7611   -0.9091    2.0797 H   0  0  0  0  0  0  0  0  0  0  0  0
    1.4241   -2.0163    0.8801 H   0  0  0  0  0  0  0  0  0  0  0  0
    2.3495   -2.3114    3.7321 H   0  0  0  0  0  0  0  0  0  0  0  0
    0.6993   -2.6591    3.4409 H   0  0  0  0  0  0  0  0  0  0  0  0
    1.0153   -4.5268    2.2252 H   0  0  0  0  0  0  0  0  0  0  0  0
    3.0903   -3.6290    5.3770 H   0  0  0  0  0  0  0  0  0  0  0  0
    2.2430   -4.8956    6.2051 H   0  0  0  0  0  0  0  0  0  0  0  0
    1.3376   -3.5833    5.5207 H   0  0  0  0  0  0  0  0  0  0  0  0
    1.8395   -7.0344    6.4452 H   0  0  0  0  0  0  0  0  0  0  0  0
    1.6074   -8.5480    5.6166 H   0  0  0  0  0  0  0  0  0  0  0  0
    3.8918   -7.1380    5.4922 H   0  0  0  0  0  0  0  0  0  0  0  0
    3.4034   -8.1803    4.1930 H   0  0  0  0  0  0  0  0  0  0  0  0
    4.1055   -5.5442    4.0213 H   0  0  0  0  0  0  0  0  0  0  0  0
    2.1750   -7.6737    0.8892 H   0  0  0  0  0  0  0  0  0  0  0  0
    1.0519   -6.7487    1.8412 H   0  0  0  0  0  0  0  0  0  0  0  0
    1.9545   -8.0822    2.5233 H   0  0  0  0  0  0  0  0  0  0  0  0
    5.3093   -6.8115    2.4379 H   0  0  0  0  0  0  0  0  0  0  0  0
    4.3639   -8.0016    1.6737 H   0  0  0  0  0  0  0  0  0  0  0  0
    5.9549   -6.3625    0.2464 H   0  0  0  0  0  0  0  0  0  0  0  0
    4.5552   -7.1418   -0.4127 H   0  0  0  0  0  0  0  0  0  0  0  0
    5.6930   -4.0425   -1.4103 H   0  0  0  0  0  0  0  0  0  0  0  0
    4.0372   -4.1691   -2.0418 H   0  0  0  0  0  0  0  0  0  0  0  0
    5.0181   -5.5563   -2.0088 H   0  0  0  0  0  0  0  0  0  0  0  0
    2.1827   -4.1007   -0.2381 H   0  0  0  0  0  0  0  0  0  0  0  0
    2.2389   -5.8270   -0.1764 H   0  0  0  0  0  0  0  0  0  0  0  0
    5.8436   -4.8632    2.4131 H   0  0  0  0  0  0  0  0  0  0  0  0
    6.7944   -2.4884    0.7962 H   0  0  0  0  0  0  0  0  0  0  0  0
    7.0707   -4.2009    0.4034 H   0  0  0  0  0  0  0  0  0  0  0  0
    7.7279   -3.5399    1.8436 H   0  0  0  0  0  0  0  0  0  0  0  0
    4.5555   -3.4912    3.8114 H   0  0  0  0  0  0  0  0  0  0  0  0
    6.1889   -3.0452    3.9594 H   0  0  0  0  0  0  0  0  0  0  0  0
    4.3266   -1.2432    3.8114 H   0  0  0  0  0  0  0  0  0  0  0  0
    6.5489   -1.0016    2.1295 H   0  0  0  0  0  0  0  0  0  0  0  0
  1  2  1  0
  1 31  1  0
  1 32  1  0
  1 33  1  0
 25  2  1  6
  2  3  2  0
  3 29  1  0
  3  4  1  0
  4  5  2  0
  4  6  1  0
  6  7  1  0
  6 34  1  0
  6 35  1  0
  7  8  1  0
  7 36  1  0
  7 37  1  0
  8 24  1  0
  8  9  1  0
  8 38  1  6
  9 16  1  0
  9 10  1  1
  9 11  1  0
 10 39  1  0
 10 40  1  0
 10 41  1  0
 11 12  1  0
 12 13  2  0
 12 14  1  0
 14 15  1  0
 14 42  1  0
 14 43  1  0
 15 16  1  0
 15 44  1  0
 15 45  1  0
 16 17  1  0
 16 46  1  1
 17 24  1  0
 17 18  1  6
 17 19  1  0
 18 47  1  0
 18 48  1  0
 18 49  1  0
 19 20  1  0
 19 50  1  0
 19 51  1  0
 20 21  1  0
 20 52  1  0
 20 53  1  0
 21 25  1  0
 21 22  1  6
 21 23  1  0
 22 54  1  0
 22 55  1  0
 22 56  1  0
 24 23  1  6
 23 57  1  0
 23 58  1  0
 24 25  1  0
 25 26  1  0
 26 27  1  0
 26 28  1  0
 26 59  1  1
 27 60  1  0
 27 61  1  0
 27 62  1  0
 28 29  1  0
 28 63  1  0
 28 64  1  0
 29 30  1  0
 29 65  1  1
 30 66  1  0
M  END
>  <i_m_ct_stereo_status>  (270) 
1

>  <s_m_source_file>  (270) 
/var/tmp/pbs.5076255.sched01/tmpos3i1bch/920fm1no0n.sdf

>  <i_m_source_file_index>  (270) 
23

>  <i_lp_mmshare_version>  (270) 
48012

>  <i_f3d_flags>  (270) 
0

>  <s_epik_input>  (270) 
W0NIM11bQ0BIXTFbQ0gyXVtDQEBIXShbT0hdKUMoPUMyW0NIM10pQyg9TylbQ0gyXVtDSDJdW0NAQEhdM1tDQEBdKFtDSDNdKShPQyg9TylbQ0gyXVtDSDJdNClbQ0BASF00W0NAXTUoW0NIM10pW0NIMl1bQ0gyXVtDQEBdKFtDSDNdKShbQ0gyXTYpW0NAQF0xMltDQF0zNTY=

>  <s_epik_cmdline>  (270) 
J2VwaWtfcHl0aG9uJywgJy1waHQnLCAnMi4wJywgJy1waCcsICc3LjAnLCAnLXRuJywgJzgnLCAnLW1hJywgJzIwMCcsICctaW1hZScsICc8aW5maWxlLm1hZT4nLCAnLW9tYWUnLCAnPG91dGZpbGUubWFlPic=

>  <r_lp_tautomer_probability>  (270) 
1

>  <r_epik_Ionization_Penalty>  (270) 
4.52076e-08

>  <r_epik_Ionization_Penalty_Charging>  (270) 
0

>  <r_epik_Ionization_Penalty_Neutral>  (270) 
4.52076e-08

>  <r_epik_State_Penalty>  (270) 
-0

>  <r_epik_Charging_Adjusted_Penalty>  (270) 
0

>  <i_epik_Tot_Q>  (270) 
0

>  <i_epik_Tot_abs_Q>  (270) 
0

>  <s_epik_Chemistry_Notes>  (270) 
This compound has an ester and may undergo hydrolysis at high or low pH.

>  <s_lp_Force_Field>  (270) 
OPLS3e

>  <r_lp_Energy>  (270) 
134.433

>  <b_lp_Chiralities_Consistent>  (270) 
1

>  <s_lp_Variant>  (270) 
81:0-1

>  <s_i_glide_gridfile>  (270) 
pfpi4k_grid

>  <i_i_glide_lignum>  (270) 
23

>  <i_i_glide_rotatable_bonds>  (270) 
1

>  <r_i_docking_score>  (270) 
-2.08849

>  <r_i_glide_ligand_efficiency>  (270) 
-0.0696164

>  <r_i_glide_ligand_efficiency_sa>  (270) 
-0.216314

>  <r_i_glide_ligand_efficiency_ln>  (270) 
-0.474528

>  <r_i_glide_gscore>  (270) 
-2.08849

>  <r_i_glide_lipo>  (270) 
-0.445088

>  <r_i_glide_hbond>  (270) 
0

>  <r_i_glide_metal>  (270) 
-0

>  <r_i_glide_rewards>  (270) 
-0.596171

>  <r_i_glide_evdw>  (270) 
-16.5017

>  <r_i_glide_ecoul>  (270) 
-1.15311

>  <r_i_glide_erotb>  (270) 
0

>  <r_i_glide_esite>  (270) 
-0.0491815

>  <r_i_glide_emodel>  (270) 
-19.1141

>  <r_i_glide_energy>  (270) 
-17.6548

>  <r_i_glide_einternal>  (270) 
0.0214065

>  <r_i_glide_intrahb_reward>  (270) 
-0

>  <i_i_glide_confnum>  (270) 
2

>  <i_i_glide_posenum>  (270) 
5

>  <r_i_glide_eff_state_penalty>  (270) 
0

>  <ligand_id>  (270) 
81

>  <original_smiles>  (270) 
CC1=C2C(=O)CCC3C4(C)OC(=O)CCC4C4(C)CCC5(C)CC34C15C(C)CC2O

>  <smiles>  (270) 
[H]OC1([H])C2=C(C([H])([H])[H])C3(C([H])(C([H])([H])[H])C1([H])[H])C1(C([H])([H])[H])C([H])([H])C([H])([H])C4(C([H])([H])[H])C5([H])C([H])([H])C([H])([H])C(=O)OC5(C([H])([H])[H])C([H])(C([H])([H])C([H])([H])C2=O)C34C1([H])[H]

$$$$
81:0:1
     RDKit          3D

 66 71  0  0  1  0  0  0  0  0999 V2000
    4.0049   -0.6471   -0.4801 C   0  0  0  0  0  0  0  0  0  0  0  0
    4.2809   -1.4232    0.7733 C   0  0  0  0  0  0  0  0  0  0  0  0
    4.4036   -0.6494    1.8884 C   0  0  0  0  0  0  0  0  0  0  0  0
    3.2145    0.1116    2.2567 C   0  0  0  0  0  0  0  0  0  0  0  0
    3.2134    1.2203    2.7999 O   0  0  0  0  0  0  0  0  0  0  0  0
    1.9353   -0.6834    2.1203 C   0  0  0  0  0  0  0  0  0  0  0  0
    2.0299   -1.9749    2.9651 C   0  0  0  0  0  0  0  0  0  0  0  0
    2.2879   -3.4139    2.3337 C   0  0  2  0  0  0  0  0  0  0  0  0
    2.2903   -4.5528    3.4485 C   0  0  1  0  0  0  0  0  0  0  0  0
    2.4822   -4.0912    4.9214 C   0  0  0  0  0  0  0  0  0  0  0  0
    0.9689   -5.1470    3.3828 O   0  0  0  0  0  0  0  0  0  0  0  0
    0.7338   -6.4479    3.7582 C   0  0  0  0  0  0  0  0  0  0  0  0
   -0.4128   -6.9176    3.6886 O   0  0  0  0  0  0  0  0  0  0  0  0
    1.9329   -7.2570    4.2630 C   0  0  0  0  0  0  0  0  0  0  0  0
    3.2633   -6.9375    3.5677 C   0  0  0  0  0  0  0  0  0  0  0  0
    3.3814   -5.5329    2.9598 C   0  0  1  0  0  0  0  0  0  0  0  0
    3.3812   -5.3831    1.4280 C   0  0  2  0  0  0  0  0  0  0  0  0
    2.1463   -6.1323    0.8186 C   0  0  0  0  0  0  0  0  0  0  0  0
    4.6096   -5.9653    0.7150 C   0  0  0  0  0  0  0  0  0  0  0  0
    5.0064   -5.1480   -0.5397 C   0  0  0  0  0  0  0  0  0  0  0  0
    4.4561   -3.6955   -0.5826 C   0  0  1  0  0  0  0  0  0  0  0  0
    4.9753   -3.0867   -1.8978 C   0  0  0  0  0  0  0  0  0  0  0  0
    2.9353   -3.5850   -0.3056 C   0  0  0  0  0  0  0  0  0  0  0  0
    3.2943   -3.8278    1.1858 C   0  0  1  0  0  0  0  0  0  0  0  0
    4.5594   -2.9571    0.7845 C   0  0  2  0  0  0  0  0  0  0  0  0
    5.7940   -3.1233    1.6419 C   0  0  1  0  0  0  0  0  0  0  0  0
    7.1241   -2.6845    0.9562 C   0  0  0  0  0  0  0  0  0  0  0  0
    5.5042   -2.5775    3.1161 C   0  0  0  0  0  0  0  0  0  0  0  0
    5.1394   -1.0742    3.1111 C   0  0  1  0  0  0  0  0  0  0  0  0
    6.3383   -0.2982    3.2667 O   0  0  0  0  0  0  0  0  0  0  0  0
    4.8357   -0.6683   -1.1793 H   0  0  0  0  0  0  0  0  0  0  0  0
    4.0213    0.3793   -0.1340 H   0  0  0  0  0  0  0  0  0  0  0  0
    3.0500   -0.8257   -0.9782 H   0  0  0  0  0  0  0  0  0  0  0  0
    1.1554   -0.0387    2.5135 H   0  0  0  0  0  0  0  0  0  0  0  0
    1.7370   -0.8601    1.0638 H   0  0  0  0  0  0  0  0  0  0  0  0
    2.6914   -1.7961    3.8061 H   0  0  0  0  0  0  0  0  0  0  0  0
    1.0460   -2.0675    3.4213 H   0  0  0  0  0  0  0  0  0  0  0  0
    1.4034   -3.5569    1.7516 H   0  0  0  0  0  0  0  0  0  0  0  0
    3.4008   -3.5383    5.0733 H   0  0  0  0  0  0  0  0  0  0  0  0
    2.4992   -4.9366    5.5981 H   0  0  0  0  0  0  0  0  0  0  0  0
    1.6516   -3.4558    5.2275 H   0  0  0  0  0  0  0  0  0  0  0  0
    1.9907   -7.0403    5.3217 H   0  0  0  0  0  0  0  0  0  0  0  0
    1.6785   -8.3053    4.1697 H   0  0  0  0  0  0  0  0  0  0  0  0
    4.0264   -7.0189    4.3290 H   0  0  0  0  0  0  0  0  0  0  0  0
    3.4847   -7.7011    2.8385 H   0  0  0  0  0  0  0  0  0  0  0  0
    4.3388   -5.1450    3.2785 H   0  0  0  0  0  0  0  0  0  0  0  0
    2.2490   -6.2343   -0.2644 H   0  0  0  0  0  0  0  0  0  0  0  0
    1.1844   -5.6426    0.9741 H   0  0  0  0  0  0  0  0  0  0  0  0
    2.0437   -7.1455    1.2103 H   0  0  0  0  0  0  0  0  0  0  0  0
    5.4403   -6.0503    1.4053 H   0  0  0  0  0  0  0  0  0  0  0  0
    4.4292   -6.9888    0.4102 H   0  0  0  0  0  0  0  0  0  0  0  0
    6.0927   -5.1176   -0.6086 H   0  0  0  0  0  0  0  0  0  0  0  0
    4.6714   -5.6884   -1.4273 H   0  0  0  0  0  0  0  0  0  0  0  0
    5.8918   -2.5218   -1.7365 H   0  0  0  0  0  0  0  0  0  0  0  0
    4.2359   -2.4250   -2.3544 H   0  0  0  0  0  0  0  0  0  0  0  0
    5.1900   -3.8372   -2.6658 H   0  0  0  0  0  0  0  0  0  0  0  0
    2.4112   -2.6547   -0.5025 H   0  0  0  0  0  0  0  0  0  0  0  0
    2.3758   -4.3298   -0.8587 H   0  0  0  0  0  0  0  0  0  0  0  0
    6.0163   -4.1609    1.8442 H   0  0  0  0  0  0  0  0  0  0  0  0
    7.1723   -1.5847    0.8519 H   0  0  0  0  0  0  0  0  0  0  0  0
    7.2188   -3.1064   -0.0626 H   0  0  0  0  0  0  0  0  0  0  0  0
    7.9331   -3.0921    1.5832 H   0  0  0  0  0  0  0  0  0  0  0  0
    4.5646   -3.0766    3.4198 H   0  0  0  0  0  0  0  0  0  0  0  0
    6.1799   -2.8592    3.9266 H   0  0  0  0  0  0  0  0  0  0  0  0
    4.6260   -0.8782    4.0471 H   0  0  0  0  0  0  0  0  0  0  0  0
    6.8029   -0.2171    2.4386 H   0  0  0  0  0  0  0  0  0  0  0  0
  1  2  1  0
  1 31  1  0
  1 32  1  0
  1 33  1  0
 25  2  1  6
  2  3  2  0
  3 29  1  0
  3  4  1  0
  4  5  2  0
  4  6  1  0
  6  7  1  0
  6 34  1  0
  6 35  1  0
  7  8  1  0
  7 36  1  0
  7 37  1  0
  8 24  1  0
  8  9  1  0
  8 38  1  6
  9 16  1  0
  9 10  1  1
  9 11  1  0
 10 39  1  0
 10 40  1  0
 10 41  1  0
 11 12  1  0
 12 13  2  0
 12 14  1  0
 14 15  1  0
 14 42  1  0
 14 43  1  0
 15 16  1  0
 15 44  1  0
 15 45  1  0
 16 17  1  0
 16 46  1  1
 17 24  1  0
 17 18  1  6
 17 19  1  0
 18 47  1  0
 18 48  1  0
 18 49  1  0
 19 20  1  0
 19 50  1  0
 19 51  1  0
 20 21  1  0
 20 52  1  0
 20 53  1  0
 21 25  1  0
 21 22  1  6
 21 23  1  0
 22 54  1  0
 22 55  1  0
 22 56  1  0
 24 23  1  6
 23 57  1  0
 23 58  1  0
 24 25  1  0
 25 26  1  0
 26 27  1  0
 26 28  1  0
 26 59  1  1
 27 60  1  0
 27 61  1  0
 27 62  1  0
 28 29  1  0
 28 63  1  0
 28 64  1  0
 29 30  1  0
 29 65  1  1
 30 66  1  0
M  END
>  <i_m_ct_stereo_status>  (271) 
1

>  <s_m_source_file>  (271) 
/var/tmp/pbs.5076255.sched01/tmpos3i1bch/920fm1no0n.sdf

>  <i_m_source_file_index>  (271) 
23

>  <i_lp_mmshare_version>  (271) 
48012

>  <i_f3d_flags>  (271) 
0

>  <s_epik_input>  (271) 
W0NIM11bQ0BIXTFbQ0gyXVtDQEBIXShbT0hdKUMoPUMyW0NIM10pQyg9TylbQ0gyXVtDSDJdW0NAQEhdM1tDQEBdKFtDSDNdKShPQyg9TylbQ0gyXVtDSDJdNClbQ0BASF00W0NAXTUoW0NIM10pW0NIMl1bQ0gyXVtDQEBdKFtDSDNdKShbQ0gyXTYpW0NAQF0xMltDQF0zNTY=

>  <s_epik_cmdline>  (271) 
J2VwaWtfcHl0aG9uJywgJy1waHQnLCAnMi4wJywgJy1waCcsICc3LjAnLCAnLXRuJywgJzgnLCAnLW1hJywgJzIwMCcsICctaW1hZScsICc8aW5maWxlLm1hZT4nLCAnLW9tYWUnLCAnPG91dGZpbGUubWFlPic=

>  <r_lp_tautomer_probability>  (271) 
1

>  <r_epik_Ionization_Penalty>  (271) 
4.52076e-08

>  <r_epik_Ionization_Penalty_Charging>  (271) 
0

>  <r_epik_Ionization_Penalty_Neutral>  (271) 
4.52076e-08

>  <r_epik_State_Penalty>  (271) 
-0

>  <r_epik_Charging_Adjusted_Penalty>  (271) 
0

>  <i_epik_Tot_Q>  (271) 
0

>  <i_epik_Tot_abs_Q>  (271) 
0

>  <s_epik_Chemistry_Notes>  (271) 
This compound has an ester and may undergo hydrolysis at high or low pH.

>  <s_lp_Force_Field>  (271) 
OPLS3e

>  <r_lp_Energy>  (271) 
134.433

>  <b_lp_Chiralities_Consistent>  (271) 
1

>  <s_lp_Variant>  (271) 
81:0-1

>  <s_i_glide_gridfile>  (271) 
pfpi4k_grid

>  <i_i_glide_lignum>  (271) 
23

>  <i_i_glide_rotatable_bonds>  (271) 
1

>  <r_i_docking_score>  (271) 
-1.97961

>  <r_i_glide_ligand_efficiency>  (271) 
-0.0659871

>  <r_i_glide_ligand_efficiency_sa>  (271) 
-0.205037

>  <r_i_glide_ligand_efficiency_ln>  (271) 
-0.449789

>  <r_i_glide_gscore>  (271) 
-1.97961

>  <r_i_glide_lipo>  (271) 
-0.569472

>  <r_i_glide_hbond>  (271) 
-0.196236

>  <r_i_glide_metal>  (271) 
-0

>  <r_i_glide_rewards>  (271) 
-0.640067

>  <r_i_glide_evdw>  (271) 
-9.07632

>  <r_i_glide_ecoul>  (271) 
-2.40594

>  <r_i_glide_erotb>  (271) 
0

>  <r_i_glide_esite>  (271) 
-0.0290259

>  <r_i_glide_emodel>  (271) 
-8.25434

>  <r_i_glide_energy>  (271) 
-11.4823

>  <r_i_glide_einternal>  (271) 
0.249117

>  <r_i_glide_intrahb_reward>  (271) 
-0

>  <i_i_glide_confnum>  (271) 
2

>  <i_i_glide_posenum>  (271) 
2

>  <r_i_glide_eff_state_penalty>  (271) 
0

>  <ligand_id>  (271) 
81

>  <original_smiles>  (271) 
CC1=C2C(=O)CCC3C4(C)OC(=O)CCC4C4(C)CCC5(C)CC34C15C(C)CC2O

>  <smiles>  (271) 
[H]OC1([H])C2=C(C([H])([H])[H])C3(C([H])(C([H])([H])[H])C1([H])[H])C1(C([H])([H])[H])C([H])([H])C([H])([H])C4(C([H])([H])[H])C5([H])C([H])([H])C([H])([H])C(=O)OC5(C([H])([H])[H])C([H])(C([H])([H])C([H])([H])C2=O)C34C1([H])[H]

$$$$
81:0:2
     RDKit          3D

 66 71  0  0  1  0  0  0  0  0999 V2000
    3.9588   -0.6622   -0.4979 C   0  0  0  0  0  0  0  0  0  0  0  0
    4.2358   -1.4421    0.7877 C   0  0  0  0  0  0  0  0  0  0  0  0
    4.4021   -0.6784    1.8916 C   0  0  0  0  0  0  0  0  0  0  0  0
    3.2184    0.1178    2.2389 C   0  0  0  0  0  0  0  0  0  0  0  0
    3.2395    1.2339    2.7541 O   0  0  0  0  0  0  0  0  0  0  0  0
    1.9082   -0.6497    2.1118 C   0  0  0  0  0  0  0  0  0  0  0  0
    1.9652   -1.9387    2.9769 C   0  0  0  0  0  0  0  0  0  0  0  0
    2.2192   -3.3866    2.4044 C   0  0  2  0  0  0  0  0  0  0  0  0
    2.1883   -4.5052    3.5069 C   0  0  1  0  0  0  0  0  0  0  0  0
    2.3876   -4.0220    4.9585 C   0  0  0  0  0  0  0  0  0  0  0  0
    0.8681   -5.0866    3.4747 O   0  0  0  0  0  0  0  0  0  0  0  0
    0.5883   -6.3550    3.8490 C   0  0  0  0  0  0  0  0  0  0  0  0
   -0.5420   -6.8282    3.8013 O   0  0  0  0  0  0  0  0  0  0  0  0
    1.7689   -7.1891    4.3708 C   0  0  0  0  0  0  0  0  0  0  0  0
    3.1147   -6.9026    3.6612 C   0  0  0  0  0  0  0  0  0  0  0  0
    3.2440   -5.5072    3.0190 C   0  0  1  0  0  0  0  0  0  0  0  0
    3.2370   -5.3835    1.4770 C   0  0  2  0  0  0  0  0  0  0  0  0
    1.9959   -6.1534    0.9052 C   0  0  0  0  0  0  0  0  0  0  0  0
    4.4748   -6.0084    0.7786 C   0  0  0  0  0  0  0  0  0  0  0  0
    4.9105   -5.2192   -0.4895 C   0  0  0  0  0  0  0  0  0  0  0  0
    4.3526   -3.7648   -0.5523 C   0  0  1  0  0  0  0  0  0  0  0  0
    4.8793   -3.1715   -1.8738 C   0  0  0  0  0  0  0  0  0  0  0  0
    2.8296   -3.6201   -0.2782 C   0  0  0  0  0  0  0  0  0  0  0  0
    3.1735   -3.8300    1.2143 C   0  0  1  0  0  0  0  0  0  0  0  0
    4.4861   -2.9895    0.8102 C   0  0  2  0  0  0  0  0  0  0  0  0
    5.7434   -3.1661    1.6941 C   0  0  1  0  0  0  0  0  0  0  0  0
    7.0378   -2.7278    0.9703 C   0  0  0  0  0  0  0  0  0  0  0  0
    5.5036   -2.5809    3.1124 C   0  0  0  0  0  0  0  0  0  0  0  0
    5.1779   -1.0779    3.1213 C   0  0  1  0  0  0  0  0  0  0  0  0
    6.3176   -0.2754    3.2069 O   0  0  0  0  0  0  0  0  0  0  0  0
    4.7822   -0.7019   -1.2013 H   0  0  0  0  0  0  0  0  0  0  0  0
    3.9662    0.3613   -0.1762 H   0  0  0  0  0  0  0  0  0  0  0  0
    3.0156   -0.8837   -1.0037 H   0  0  0  0  0  0  0  0  0  0  0  0
    1.1400    0.0232    2.4977 H   0  0  0  0  0  0  0  0  0  0  0  0
    1.6884   -0.8359    1.0688 H   0  0  0  0  0  0  0  0  0  0  0  0
    2.6430   -1.7665    3.7987 H   0  0  0  0  0  0  0  0  0  0  0  0
    0.9823   -1.9771    3.4476 H   0  0  0  0  0  0  0  0  0  0  0  0
    1.2781   -3.5164    1.9673 H   0  0  0  0  0  0  0  0  0  0  0  0
    3.3193   -3.4861    5.0973 H   0  0  0  0  0  0  0  0  0  0  0  0
    2.3946   -4.8557    5.6539 H   0  0  0  0  0  0  0  0  0  0  0  0
    1.5697   -3.3679    5.2659 H   0  0  0  0  0  0  0  0  0  0  0  0
    1.8695   -6.9621    5.4252 H   0  0  0  0  0  0  0  0  0  0  0  0
    1.5224   -8.2372    4.3046 H   0  0  0  0  0  0  0  0  0  0  0  0
    3.8892   -6.9833    4.4299 H   0  0  0  0  0  0  0  0  0  0  0  0
    3.3457   -7.6941    2.9460 H   0  0  0  0  0  0  0  0  0  0  0  0
    4.2164   -5.1397    3.3303 H   0  0  0  0  0  0  0  0  0  0  0  0
    2.0818   -6.3121   -0.1631 H   0  0  0  0  0  0  0  0  0  0  0  0
    1.0524   -5.6322    1.0369 H   0  0  0  0  0  0  0  0  0  0  0  0
    1.8689   -7.1453    1.3444 H   0  0  0  0  0  0  0  0  0  0  0  0
    5.3010   -6.0935    1.4776 H   0  0  0  0  0  0  0  0  0  0  0  0
    4.2854   -7.0501    0.5106 H   0  0  0  0  0  0  0  0  0  0  0  0
    6.0013   -5.1958   -0.5052 H   0  0  0  0  0  0  0  0  0  0  0  0
    4.6514   -5.7839   -1.3793 H   0  0  0  0  0  0  0  0  0  0  0  0
    5.8056   -2.6218   -1.7244 H   0  0  0  0  0  0  0  0  0  0  0  0
    4.1512   -2.5030   -2.3303 H   0  0  0  0  0  0  0  0  0  0  0  0
    5.0705   -3.9326   -2.6294 H   0  0  0  0  0  0  0  0  0  0  0  0
    2.3285   -2.6935   -0.4973 H   0  0  0  0  0  0  0  0  0  0  0  0
    2.2644   -4.3835   -0.8077 H   0  0  0  0  0  0  0  0  0  0  0  0
    5.9417   -4.2107    1.8666 H   0  0  0  0  0  0  0  0  0  0  0  0
    7.0976   -1.6473    0.8236 H   0  0  0  0  0  0  0  0  0  0  0  0
    7.2049   -3.2079    0.0072 H   0  0  0  0  0  0  0  0  0  0  0  0
    7.8457   -3.0899    1.5927 H   0  0  0  0  0  0  0  0  0  0  0  0
    4.5965   -3.0728    3.4652 H   0  0  0  0  0  0  0  0  0  0  0  0
    6.1903   -2.8534    3.8852 H   0  0  0  0  0  0  0  0  0  0  0  0
    4.6455   -0.8721    4.0538 H   0  0  0  0  0  0  0  0  0  0  0  0
    6.1489    0.5361    3.6890 H   0  0  0  0  0  0  0  0  0  0  0  0
  1  2  1  0
  1 31  1  0
  1 32  1  0
  1 33  1  0
 25  2  1  6
  2  3  2  0
  3 29  1  0
  3  4  1  0
  4  5  2  0
  4  6  1  0
  6  7  1  0
  6 34  1  0
  6 35  1  0
  7  8  1  0
  7 36  1  0
  7 37  1  0
  8 24  1  0
  8  9  1  0
  8 38  1  6
  9 16  1  0
  9 10  1  1
  9 11  1  0
 10 39  1  0
 10 40  1  0
 10 41  1  0
 11 12  1  0
 12 13  2  0
 12 14  1  0
 14 15  1  0
 14 42  1  0
 14 43  1  0
 15 16  1  0
 15 44  1  0
 15 45  1  0
 16 17  1  0
 16 46  1  1
 17 24  1  0
 17 18  1  6
 17 19  1  0
 18 47  1  0
 18 48  1  0
 18 49  1  0
 19 20  1  0
 19 50  1  0
 19 51  1  0
 20 21  1  0
 20 52  1  0
 20 53  1  0
 21 25  1  0
 21 22  1  6
 21 23  1  0
 22 54  1  0
 22 55  1  0
 22 56  1  0
 24 23  1  6
 23 57  1  0
 23 58  1  0
 24 25  1  0
 25 26  1  0
 26 27  1  0
 26 28  1  0
 26 59  1  1
 27 60  1  0
 27 61  1  0
 27 62  1  0
 28 29  1  0
 28 63  1  0
 28 64  1  0
 29 30  1  0
 29 65  1  1
 30 66  1  0
M  END
>  <i_m_ct_stereo_status>  (272) 
1

>  <s_m_source_file>  (272) 
/var/tmp/pbs.5076255.sched01/tmpos3i1bch/920fm1no0n.sdf

>  <i_m_source_file_index>  (272) 
23

>  <i_lp_mmshare_version>  (272) 
48012

>  <i_f3d_flags>  (272) 
0

>  <s_epik_input>  (272) 
W0NIM11bQ0BIXTFbQ0gyXVtDQEBIXShbT0hdKUMoPUMyW0NIM10pQyg9TylbQ0gyXVtDSDJdW0NAQEhdM1tDQEBdKFtDSDNdKShPQyg9TylbQ0gyXVtDSDJdNClbQ0BASF00W0NAXTUoW0NIM10pW0NIMl1bQ0gyXVtDQEBdKFtDSDNdKShbQ0gyXTYpW0NAQF0xMltDQF0zNTY=

>  <s_epik_cmdline>  (272) 
J2VwaWtfcHl0aG9uJywgJy1waHQnLCAnMi4wJywgJy1waCcsICc3LjAnLCAnLXRuJywgJzgnLCAnLW1hJywgJzIwMCcsICctaW1hZScsICc8aW5maWxlLm1hZT4nLCAnLW9tYWUnLCAnPG91dGZpbGUubWFlPic=

>  <r_lp_tautomer_probability>  (272) 
1

>  <r_epik_Ionization_Penalty>  (272) 
4.52076e-08

>  <r_epik_Ionization_Penalty_Charging>  (272) 
0

>  <r_epik_Ionization_Penalty_Neutral>  (272) 
4.52076e-08

>  <r_epik_State_Penalty>  (272) 
-0

>  <r_epik_Charging_Adjusted_Penalty>  (272) 
0

>  <i_epik_Tot_Q>  (272) 
0

>  <i_epik_Tot_abs_Q>  (272) 
0

>  <s_epik_Chemistry_Notes>  (272) 
This compound has an ester and may undergo hydrolysis at high or low pH.

>  <s_lp_Force_Field>  (272) 
OPLS3e

>  <r_lp_Energy>  (272) 
134.433

>  <b_lp_Chiralities_Consistent>  (272) 
1

>  <s_lp_Variant>  (272) 
81:0-1

>  <s_i_glide_gridfile>  (272) 
pfpi4k_grid

>  <i_i_glide_lignum>  (272) 
23

>  <i_i_glide_rotatable_bonds>  (272) 
1

>  <r_i_docking_score>  (272) 
-1.52724

>  <r_i_glide_ligand_efficiency>  (272) 
-0.0509079

>  <r_i_glide_ligand_efficiency_sa>  (272) 
-0.158183

>  <r_i_glide_ligand_efficiency_ln>  (272) 
-0.347005

>  <r_i_glide_gscore>  (272) 
-1.52724

>  <r_i_glide_lipo>  (272) 
-0.526744

>  <r_i_glide_hbond>  (272) 
-0.0295894

>  <r_i_glide_metal>  (272) 
-0

>  <r_i_glide_rewards>  (272) 
-0.640984

>  <r_i_glide_evdw>  (272) 
-6.85921

>  <r_i_glide_ecoul>  (272) 
0.301745

>  <r_i_glide_erotb>  (272) 
0

>  <r_i_glide_esite>  (272) 
-0.0322227

>  <r_i_glide_emodel>  (272) 
-6.03344

>  <r_i_glide_energy>  (272) 
-6.55747

>  <r_i_glide_einternal>  (272) 
0.522256

>  <r_i_glide_intrahb_reward>  (272) 
-0

>  <i_i_glide_confnum>  (272) 
2

>  <i_i_glide_posenum>  (272) 
6

>  <r_i_glide_eff_state_penalty>  (272) 
0

>  <ligand_id>  (272) 
81

>  <original_smiles>  (272) 
CC1=C2C(=O)CCC3C4(C)OC(=O)CCC4C4(C)CCC5(C)CC34C15C(C)CC2O

>  <smiles>  (272) 
[H]OC1([H])C2=C(C([H])([H])[H])C3(C([H])(C([H])([H])[H])C1([H])[H])C1(C([H])([H])[H])C([H])([H])C([H])([H])C4(C([H])([H])[H])C5([H])C([H])([H])C([H])([H])C(=O)OC5(C([H])([H])[H])C([H])(C([H])([H])C([H])([H])C2=O)C34C1([H])[H]

$$$$
82:0:0
     RDKit          3D

 39 43  0  0  1  0  0  0  0  0999 V2000
    3.2759   -7.5328    2.1703 C   0  0  0  0  0  0  0  0  0  0  0  0
    3.6265   -6.2615    1.3971 C   0  0  2  0  0  0  0  0  0  0  0  0
    2.3597   -5.5204    0.8974 C   0  0  0  0  0  0  0  0  0  0  0  0
    2.7130   -4.0159    0.7060 C   0  0  2  0  0  0  0  0  0  0  0  0
    4.0383   -3.9686   -0.1033 C   0  0  0  0  0  0  0  0  0  0  0  0
    5.0158   -4.9355    0.5811 C   0  0  2  0  0  0  0  0  0  0  0  0
    4.7110   -6.4094    0.3174 C   0  0  0  0  0  0  0  0  0  0  0  0
    4.6379   -5.2785    2.0435 C   0  0  1  0  0  0  0  0  0  0  0  0
    4.0409   -4.1448    2.8949 C   0  0  0  0  0  0  0  0  0  0  0  0
    2.8933   -3.4071    2.1362 C   0  0  1  0  0  0  0  0  0  0  0  0
    3.0667   -1.9486    2.1299 N   0  0  0  0  0  0  0  0  0  0  0  0
    4.1839   -1.2354    1.7301 C   0  0  0  0  0  0  0  0  0  0  0  0
    4.0803    0.0594    1.7791 N   0  0  0  0  0  0  0  0  0  0  0  0
    2.8097    0.2697    2.2911 C   0  0  0  0  0  0  0  0  0  0  0  0
    2.0846    1.4316    2.6414 C   0  0  0  0  0  0  0  0  0  0  0  0
    2.6017    2.6617    2.5211 N   0  0  0  0  0  0  0  0  0  0  0  0
    0.8356    1.2954    3.1460 N   0  0  0  0  0  0  0  0  0  0  0  0
    0.3341    0.0645    3.3040 C   0  0  0  0  0  0  0  0  0  0  0  0
    0.9012   -1.1210    3.0415 N   0  0  0  0  0  0  0  0  0  0  0  0
    2.1542   -0.9713    2.5173 C   0  0  0  0  0  0  0  0  0  0  0  0
    2.0219    3.4654    2.7019 H   0  0  0  0  0  0  0  0  0  0  0  0
    2.6810   -7.3068    3.0544 H   0  0  0  0  0  0  0  0  0  0  0  0
    4.1792   -8.0429    2.5113 H   0  0  0  0  0  0  0  0  0  0  0  0
    2.7205   -8.2381    1.5513 H   0  0  0  0  0  0  0  0  0  0  0  0
    2.0353   -5.9451   -0.0517 H   0  0  0  0  0  0  0  0  0  0  0  0
    1.5327   -5.6485    1.5969 H   0  0  0  0  0  0  0  0  0  0  0  0
    1.9250   -3.4933    0.1660 H   0  0  0  0  0  0  0  0  0  0  0  0
    3.8530   -4.2931   -1.1283 H   0  0  0  0  0  0  0  0  0  0  0  0
    4.4472   -2.9686   -0.2112 H   0  0  0  0  0  0  0  0  0  0  0  0
    6.0725   -4.6936    0.4433 H   0  0  0  0  0  0  0  0  0  0  0  0
    5.5270   -7.0861    0.5741 H   0  0  0  0  0  0  0  0  0  0  0  0
    4.3296   -6.6070   -0.6855 H   0  0  0  0  0  0  0  0  0  0  0  0
    5.4492   -5.8089    2.5485 H   0  0  0  0  0  0  0  0  0  0  0  0
    3.6452   -4.5591    3.8212 H   0  0  0  0  0  0  0  0  0  0  0  0
    4.8223   -3.4514    3.2034 H   0  0  0  0  0  0  0  0  0  0  0  0
    1.9688   -3.6053    2.6863 H   0  0  0  0  0  0  0  0  0  0  0  0
    5.1070   -1.6996    1.4051 H   0  0  0  0  0  0  0  0  0  0  0  0
    3.5455    2.7598    2.1586 H   0  0  0  0  0  0  0  0  0  0  0  0
   -0.6714    0.0340    3.6990 H   0  0  0  0  0  0  0  0  0  0  0  0
  2  1  1  1
  1 22  1  0
  1 23  1  0
  1 24  1  0
  2  7  1  0
  2  8  1  0
  2  3  1  0
  3  4  1  0
  3 25  1  0
  3 26  1  0
  4 10  1  0
  4  5  1  0
  4 27  1  6
  5  6  1  0
  5 28  1  0
  5 29  1  0
  6  7  1  0
  6  8  1  0
  6 30  1  1
  7 31  1  0
  7 32  1  0
  8  9  1  0
  8 33  1  1
  9 10  1  0
  9 34  1  0
  9 35  1  0
 10 36  1  1
 10 11  1  0
 11 12  1  0
 11 20  1  0
 12 13  2  0
 12 37  1  0
 13 14  1  0
 14 15  1  0
 14 20  2  0
 15 17  2  0
 15 16  1  0
 16 38  1  0
 16 21  1  0
 17 18  1  0
 18 39  1  0
 18 19  2  0
 19 20  1  0
M  END
>  <i_m_ct_stereo_status>  (273) 
1

>  <s_m_source_file>  (273) 
/var/tmp/pbs.5076255.sched01/tmpos3i1bch/920fm1no0n.sdf

>  <i_m_source_file_index>  (273) 
24

>  <i_lp_mmshare_version>  (273) 
48012

>  <i_f3d_flags>  (273) 
0

>  <s_epik_input>  (273) 
W0NIM11bQ0BdMTJbQ0BIXTNbQ0BASF0oW0NIMl0yKVtDSDJdW0NAQEhdKFtDSDJdMSlbQ0BASF0oW0NIMl0zKW4oW2NIXW40KWMoYzQ1KW5bY0hdW25IXWNcNT1OL1tIXQ==

>  <s_epik_cmdline>  (273) 
J2VwaWtfcHl0aG9uJywgJy1waHQnLCAnMi4wJywgJy1waCcsICc3LjAnLCAnLXRuJywgJzgnLCAnLW1hJywgJzIwMCcsICctaW1hZScsICc8aW5maWxlLm1hZT4nLCAnLW9tYWUnLCAnPG91dGZpbGUubWFlPic=

>  <r_lp_tautomer_probability>  (273) 
1

>  <r_epik_Ionization_Penalty>  (273) 
0.00173235

>  <r_epik_Ionization_Penalty_Charging>  (273) 
0

>  <r_epik_Ionization_Penalty_Neutral>  (273) 
0.00173235

>  <r_epik_State_Penalty>  (273) 
-0

>  <r_epik_Charging_Adjusted_Penalty>  (273) 
0

>  <i_epik_Tot_Q>  (273) 
0

>  <i_epik_Tot_abs_Q>  (273) 
0

>  <s_lp_Force_Field>  (273) 
OPLS3e

>  <r_lp_Energy>  (273) 
52.489

>  <b_lp_Chiralities_Consistent>  (273) 
1

>  <s_lp_Variant>  (273) 
82:0-1

>  <s_i_glide_gridfile>  (273) 
pfpi4k_grid

>  <i_i_glide_lignum>  (273) 
24

>  <i_i_glide_rotatable_bonds>  (273) 
1

>  <r_i_docking_score>  (273) 
-3.25804

>  <r_i_glide_ligand_efficiency>  (273) 
-0.162902

>  <r_i_glide_ligand_efficiency_sa>  (273) 
-0.442184

>  <r_i_glide_ligand_efficiency_ln>  (273) 
-0.81538

>  <r_i_glide_gscore>  (273) 
-3.25804

>  <r_i_glide_lipo>  (273) 
-0.337509

>  <r_i_glide_hbond>  (273) 
-0.32

>  <r_i_glide_metal>  (273) 
-0

>  <r_i_glide_rewards>  (273) 
-1.58134

>  <r_i_glide_evdw>  (273) 
-17.3414

>  <r_i_glide_ecoul>  (273) 
-1.99131

>  <r_i_glide_erotb>  (273) 
0.246278

>  <r_i_glide_esite>  (273) 
-0.0997008

>  <r_i_glide_emodel>  (273) 
-23.9715

>  <r_i_glide_energy>  (273) 
-19.3328

>  <r_i_glide_einternal>  (273) 
0.165063

>  <r_i_glide_intrahb_reward>  (273) 
-0

>  <i_i_glide_confnum>  (273) 
3

>  <i_i_glide_posenum>  (273) 
5

>  <r_i_glide_eff_state_penalty>  (273) 
0

>  <ligand_id>  (273) 
82

>  <original_smiles>  (273) 
CC12CC3CC(C1)C2CC3n1cnc2c(=N)[nH]cnc21

>  <smiles>  (273) 
[H]c1nc(N([H])[H])c2nc([H])n(C3([H])C([H])([H])C4([H])C5([H])C([H])([H])C3([H])C([H])([H])C4(C([H])([H])[H])C5([H])[H])c2n1

$$$$
82:0:1
     RDKit          3D

 39 43  0  0  1  0  0  0  0  0999 V2000
    7.9504   -3.8370    0.3422 C   0  0  0  0  0  0  0  0  0  0  0  0
    6.6889   -3.1376   -0.1658 C   0  0  2  0  0  0  0  0  0  0  0  0
    5.4033   -3.9013    0.2434 C   0  0  0  0  0  0  0  0  0  0  0  0
    4.2201   -2.8892    0.2896 C   0  0  2  0  0  0  0  0  0  0  0  0
    4.2755   -2.0615   -1.0215 C   0  0  0  0  0  0  0  0  0  0  0  0
    5.7265   -1.6026   -1.2032 C   0  0  2  0  0  0  0  0  0  0  0  0
    6.6968   -2.7053   -1.6424 C   0  0  0  0  0  0  0  0  0  0  0  0
    6.5505   -1.6196    0.1107 C   0  0  1  0  0  0  0  0  0  0  0  0
    5.8160   -1.2244    1.3993 C   0  0  0  0  0  0  0  0  0  0  0  0
    4.4497   -1.9740    1.5330 C   0  0  1  0  0  0  0  0  0  0  0  0
    3.3275   -1.0731    1.8070 N   0  0  0  0  0  0  0  0  0  0  0  0
    3.1211    0.1861    1.2814 C   0  0  0  0  0  0  0  0  0  0  0  0
    2.0550    0.8162    1.6869 N   0  0  0  0  0  0  0  0  0  0  0  0
    1.4507   -0.0917    2.5403 C   0  0  0  0  0  0  0  0  0  0  0  0
    0.2670   -0.0633    3.3166 C   0  0  0  0  0  0  0  0  0  0  0  0
   -0.5641    0.9902    3.3214 N   0  0  0  0  0  0  0  0  0  0  0  0
   -0.0380   -1.1340    4.0871 N   0  0  0  0  0  0  0  0  0  0  0  0
    0.7810   -2.1939    4.0760 C   0  0  0  0  0  0  0  0  0  0  0  0
    1.9148   -2.3801    3.3849 N   0  0  0  0  0  0  0  0  0  0  0  0
    2.2205   -1.2865    2.6248 C   0  0  0  0  0  0  0  0  0  0  0  0
   -1.4128    0.9761    3.8620 H   0  0  0  0  0  0  0  0  0  0  0  0
    7.9588   -3.9025    1.4294 H   0  0  0  0  0  0  0  0  0  0  0  0
    8.8472   -3.2903    0.0449 H   0  0  0  0  0  0  0  0  0  0  0  0
    8.0406   -4.8477   -0.0543 H   0  0  0  0  0  0  0  0  0  0  0  0
    5.1933   -4.6885   -0.4803 H   0  0  0  0  0  0  0  0  0  0  0  0
    5.5240   -4.3962    1.2078 H   0  0  0  0  0  0  0  0  0  0  0  0
    3.2668   -3.4110    0.3678 H   0  0  0  0  0  0  0  0  0  0  0  0
    3.9806   -2.6843   -1.8677 H   0  0  0  0  0  0  0  0  0  0  0  0
    3.5815   -1.2215   -1.0175 H   0  0  0  0  0  0  0  0  0  0  0  0
    5.8137   -0.6890   -1.7931 H   0  0  0  0  0  0  0  0  0  0  0  0
    7.6641   -2.3548   -2.0116 H   0  0  0  0  0  0  0  0  0  0  0  0
    6.2565   -3.4404   -2.3184 H   0  0  0  0  0  0  0  0  0  0  0  0
    7.5111   -1.1130    0.0126 H   0  0  0  0  0  0  0  0  0  0  0  0
    6.4351   -1.4647    2.2598 H   0  0  0  0  0  0  0  0  0  0  0  0
    5.7100   -0.1433    1.4401 H   0  0  0  0  0  0  0  0  0  0  0  0
    4.5285   -2.6310    2.4026 H   0  0  0  0  0  0  0  0  0  0  0  0
    3.7931    0.6394    0.5640 H   0  0  0  0  0  0  0  0  0  0  0  0
   -0.3316    1.7774    2.7317 H   0  0  0  0  0  0  0  0  0  0  0  0
    0.4793   -3.0148    4.7102 H   0  0  0  0  0  0  0  0  0  0  0  0
  2  1  1  1
  1 22  1  0
  1 23  1  0
  1 24  1  0
  2  7  1  0
  2  8  1  0
  2  3  1  0
  3  4  1  0
  3 25  1  0
  3 26  1  0
  4 10  1  0
  4  5  1  0
  4 27  1  1
  5  6  1  0
  5 28  1  0
  5 29  1  0
  6  7  1  0
  6  8  1  0
  6 30  1  6
  7 31  1  0
  7 32  1  0
  8  9  1  0
  8 33  1  6
  9 10  1  0
  9 34  1  0
  9 35  1  0
 10 36  1  1
 10 11  1  0
 11 12  1  0
 11 20  1  0
 12 13  2  0
 12 37  1  0
 13 14  1  0
 14 15  1  0
 14 20  2  0
 15 17  2  0
 15 16  1  0
 16 38  1  0
 16 21  1  0
 17 18  1  0
 18 39  1  0
 18 19  2  0
 19 20  1  0
M  END
>  <i_m_ct_stereo_status>  (274) 
1

>  <s_m_source_file>  (274) 
/var/tmp/pbs.5076255.sched01/tmpos3i1bch/920fm1no0n.sdf

>  <i_m_source_file_index>  (274) 
24

>  <i_lp_mmshare_version>  (274) 
48012

>  <i_f3d_flags>  (274) 
0

>  <s_epik_input>  (274) 
W0NIM11bQ0BdMTJbQ0BIXTNbQ0BASF0oW0NIMl0yKVtDSDJdW0NAQEhdKFtDSDJdMSlbQ0BASF0oW0NIMl0zKW4oW2NIXW40KWMoYzQ1KW5bY0hdW25IXWNcNT1OL1tIXQ==

>  <s_epik_cmdline>  (274) 
J2VwaWtfcHl0aG9uJywgJy1waHQnLCAnMi4wJywgJy1waCcsICc3LjAnLCAnLXRuJywgJzgnLCAnLW1hJywgJzIwMCcsICctaW1hZScsICc8aW5maWxlLm1hZT4nLCAnLW9tYWUnLCAnPG91dGZpbGUubWFlPic=

>  <r_lp_tautomer_probability>  (274) 
1

>  <r_epik_Ionization_Penalty>  (274) 
0.00173235

>  <r_epik_Ionization_Penalty_Charging>  (274) 
0

>  <r_epik_Ionization_Penalty_Neutral>  (274) 
0.00173235

>  <r_epik_State_Penalty>  (274) 
-0

>  <r_epik_Charging_Adjusted_Penalty>  (274) 
0

>  <i_epik_Tot_Q>  (274) 
0

>  <i_epik_Tot_abs_Q>  (274) 
0

>  <s_lp_Force_Field>  (274) 
OPLS3e

>  <r_lp_Energy>  (274) 
52.489

>  <b_lp_Chiralities_Consistent>  (274) 
1

>  <s_lp_Variant>  (274) 
82:0-1

>  <s_i_glide_gridfile>  (274) 
pfpi4k_grid

>  <i_i_glide_lignum>  (274) 
24

>  <i_i_glide_rotatable_bonds>  (274) 
1

>  <r_i_docking_score>  (274) 
-3.15446

>  <r_i_glide_ligand_efficiency>  (274) 
-0.157723

>  <r_i_glide_ligand_efficiency_sa>  (274) 
-0.428126

>  <r_i_glide_ligand_efficiency_ln>  (274) 
-0.789456

>  <r_i_glide_gscore>  (274) 
-3.15446

>  <r_i_glide_lipo>  (274) 
-0.530443

>  <r_i_glide_hbond>  (274) 
0

>  <r_i_glide_metal>  (274) 
-0

>  <r_i_glide_rewards>  (274) 
-1.66165

>  <r_i_glide_evdw>  (274) 
-22.3143

>  <r_i_glide_ecoul>  (274) 
-0.182889

>  <r_i_glide_erotb>  (274) 
0.246278

>  <r_i_glide_esite>  (274) 
-0.0654944

>  <r_i_glide_emodel>  (274) 
-27.0307

>  <r_i_glide_energy>  (274) 
-22.4972

>  <r_i_glide_einternal>  (274) 
0.176689

>  <r_i_glide_intrahb_reward>  (274) 
-0

>  <i_i_glide_confnum>  (274) 
3

>  <i_i_glide_posenum>  (274) 
34

>  <r_i_glide_eff_state_penalty>  (274) 
0

>  <ligand_id>  (274) 
82

>  <original_smiles>  (274) 
CC12CC3CC(C1)C2CC3n1cnc2c(=N)[nH]cnc21

>  <smiles>  (274) 
[H]c1nc(N([H])[H])c2nc([H])n(C3([H])C([H])([H])C4([H])C5([H])C([H])([H])C3([H])C([H])([H])C4(C([H])([H])[H])C5([H])[H])c2n1

$$$$
82:0:2
     RDKit          3D

 39 43  0  0  1  0  0  0  0  0999 V2000
   -0.8733    3.6695    8.5059 C   0  0  0  0  0  0  0  0  0  0  0  0
   -1.2181    2.9683    7.1948 C   0  0  2  0  0  0  0  0  0  0  0  0
   -0.9239    3.8686    5.9701 C   0  0  0  0  0  0  0  0  0  0  0  0
   -0.6891    2.9557    4.7415 C   0  0  2  0  0  0  0  0  0  0  0  0
   -1.8379    1.9022    4.7195 C   0  0  0  0  0  0  0  0  0  0  0  0
   -1.9562    1.3360    6.1323 C   0  0  2  0  0  0  0  0  0  0  0  0
   -2.5982    2.2915    7.1345 C   0  0  0  0  0  0  0  0  0  0  0  0
   -0.6769    1.5268    6.9835 C   0  0  1  0  0  0  0  0  0  0  0  0
    0.6709    1.4019    6.2489 C   0  0  0  0  0  0  0  0  0  0  0  0
    0.6940    2.2505    4.9327 C   0  0  1  0  0  0  0  0  0  0  0  0
    1.1266    1.4899    3.7552 N   0  0  0  0  0  0  0  0  0  0  0  0
    0.4511    1.3700    2.5514 C   0  0  0  0  0  0  0  0  0  0  0  0
    1.0344    0.6396    1.6597 N   0  0  0  0  0  0  0  0  0  0  0  0
    2.2415    0.2932    2.2269 C   0  0  0  0  0  0  0  0  0  0  0  0
    3.3504   -0.4348    1.7476 C   0  0  0  0  0  0  0  0  0  0  0  0
    3.3785   -0.9616    0.5159 N   0  0  0  0  0  0  0  0  0  0  0  0
    4.4114   -0.6043    2.5688 N   0  0  0  0  0  0  0  0  0  0  0  0
    4.3705   -0.0694    3.7977 C   0  0  0  0  0  0  0  0  0  0  0  0
    3.3989    0.6476    4.3825 N   0  0  0  0  0  0  0  0  0  0  0  0
    2.3289    0.8119    3.5469 C   0  0  0  0  0  0  0  0  0  0  0  0
    4.1629   -1.5106    0.2074 H   0  0  0  0  0  0  0  0  0  0  0  0
    0.1848    3.9259    8.5495 H   0  0  0  0  0  0  0  0  0  0  0  0
   -1.0869    3.0221    9.3601 H   0  0  0  0  0  0  0  0  0  0  0  0
   -1.4555    4.5825    8.6345 H   0  0  0  0  0  0  0  0  0  0  0  0
   -1.7721    4.5233    5.7732 H   0  0  0  0  0  0  0  0  0  0  0  0
   -0.0674    4.5193    6.1437 H   0  0  0  0  0  0  0  0  0  0  0  0
   -0.6786    3.5645    3.8371 H   0  0  0  0  0  0  0  0  0  0  0  0
   -2.7683    2.3927    4.4223 H   0  0  0  0  0  0  0  0  0  0  0  0
   -1.6955    1.0898    4.0096 H   0  0  0  0  0  0  0  0  0  0  0  0
   -2.3717    0.3223    6.1656 H   0  0  0  0  0  0  0  0  0  0  0  0
   -2.9231    1.8158    8.0564 H   0  0  0  0  0  0  0  0  0  0  0  0
   -3.3911    2.9106    6.7037 H   0  0  0  0  0  0  0  0  0  0  0  0
   -0.7165    0.9396    7.9056 H   0  0  0  0  0  0  0  0  0  0  0  0
    1.4707    1.7483    6.9069 H   0  0  0  0  0  0  0  0  0  0  0  0
    0.8970    0.3550    6.0434 H   0  0  0  0  0  0  0  0  0  0  0  0
    1.4482    3.0289    5.0650 H   0  0  0  0  0  0  0  0  0  0  0  0
   -0.4999    1.8310    2.3169 H   0  0  0  0  0  0  0  0  0  0  0  0
    2.5356   -0.8864   -0.0592 H   0  0  0  0  0  0  0  0  0  0  0  0
    5.2508   -0.2505    4.3961 H   0  0  0  0  0  0  0  0  0  0  0  0
  2  1  1  1
  1 22  1  0
  1 23  1  0
  1 24  1  0
  2  7  1  0
  2  8  1  0
  2  3  1  0
  3  4  1  0
  3 25  1  0
  3 26  1  0
  4 10  1  0
  4  5  1  0
  4 27  1  6
  5  6  1  0
  5 28  1  0
  5 29  1  0
  6  7  1  0
  6  8  1  0
  6 30  1  6
  7 31  1  0
  7 32  1  0
  8  9  1  0
  8 33  1  1
  9 10  1  0
  9 34  1  0
  9 35  1  0
 10 36  1  1
 10 11  1  0
 11 12  1  0
 11 20  1  0
 12 13  2  0
 12 37  1  0
 13 14  1  0
 14 15  1  0
 14 20  2  0
 15 17  2  0
 15 16  1  0
 16 38  1  0
 16 21  1  0
 17 18  1  0
 18 39  1  0
 18 19  2  0
 19 20  1  0
M  END
>  <i_m_ct_stereo_status>  (275) 
1

>  <s_m_source_file>  (275) 
/var/tmp/pbs.5076255.sched01/tmpos3i1bch/920fm1no0n.sdf

>  <i_m_source_file_index>  (275) 
24

>  <i_lp_mmshare_version>  (275) 
48012

>  <i_f3d_flags>  (275) 
0

>  <s_epik_input>  (275) 
W0NIM11bQ0BdMTJbQ0BIXTNbQ0BASF0oW0NIMl0yKVtDSDJdW0NAQEhdKFtDSDJdMSlbQ0BASF0oW0NIMl0zKW4oW2NIXW40KWMoYzQ1KW5bY0hdW25IXWNcNT1OL1tIXQ==

>  <s_epik_cmdline>  (275) 
J2VwaWtfcHl0aG9uJywgJy1waHQnLCAnMi4wJywgJy1waCcsICc3LjAnLCAnLXRuJywgJzgnLCAnLW1hJywgJzIwMCcsICctaW1hZScsICc8aW5maWxlLm1hZT4nLCAnLW9tYWUnLCAnPG91dGZpbGUubWFlPic=

>  <r_lp_tautomer_probability>  (275) 
1

>  <r_epik_Ionization_Penalty>  (275) 
0.00173235

>  <r_epik_Ionization_Penalty_Charging>  (275) 
0

>  <r_epik_Ionization_Penalty_Neutral>  (275) 
0.00173235

>  <r_epik_State_Penalty>  (275) 
-0

>  <r_epik_Charging_Adjusted_Penalty>  (275) 
0

>  <i_epik_Tot_Q>  (275) 
0

>  <i_epik_Tot_abs_Q>  (275) 
0

>  <s_lp_Force_Field>  (275) 
OPLS3e

>  <r_lp_Energy>  (275) 
52.489

>  <b_lp_Chiralities_Consistent>  (275) 
1

>  <s_lp_Variant>  (275) 
82:0-1

>  <s_i_glide_gridfile>  (275) 
pfpi4k_grid

>  <i_i_glide_lignum>  (275) 
24

>  <i_i_glide_rotatable_bonds>  (275) 
1

>  <r_i_docking_score>  (275) 
-2.94446

>  <r_i_glide_ligand_efficiency>  (275) 
-0.147223

>  <r_i_glide_ligand_efficiency_sa>  (275) 
-0.399624

>  <r_i_glide_ligand_efficiency_ln>  (275) 
-0.7369

>  <r_i_glide_gscore>  (275) 
-2.94446

>  <r_i_glide_lipo>  (275) 
-0.0712698

>  <r_i_glide_hbond>  (275) 
-0.16

>  <r_i_glide_metal>  (275) 
-0

>  <r_i_glide_rewards>  (275) 
-1.61472

>  <r_i_glide_evdw>  (275) 
-18.1631

>  <r_i_glide_ecoul>  (275) 
-2.01147

>  <r_i_glide_erotb>  (275) 
0.246278

>  <r_i_glide_esite>  (275) 
-0.13487

>  <r_i_glide_emodel>  (275) 
-23.0117

>  <r_i_glide_energy>  (275) 
-20.1746

>  <r_i_glide_einternal>  (275) 
1.96741

>  <r_i_glide_intrahb_reward>  (275) 
-0

>  <i_i_glide_confnum>  (275) 
4

>  <i_i_glide_posenum>  (275) 
10

>  <r_i_glide_eff_state_penalty>  (275) 
0

>  <ligand_id>  (275) 
82

>  <original_smiles>  (275) 
CC12CC3CC(C1)C2CC3n1cnc2c(=N)[nH]cnc21

>  <smiles>  (275) 
[H]c1nc(N([H])[H])c2nc([H])n(C3([H])C([H])([H])C4([H])C5([H])C([H])([H])C3([H])C([H])([H])C4(C([H])([H])[H])C5([H])[H])c2n1

$$$$
83:0:0
     RDKit          3D

 59 63  0  0  1  0  0  0  0  0999 V2000
    3.0338   -3.2849   -3.8385 C   0  0  0  0  0  0  0  0  0  0  0  0
    3.9241   -2.4496   -2.8738 C   0  0  0  0  0  0  0  0  0  0  0  0
    4.3350   -1.2066   -3.6727 C   0  0  0  0  0  0  0  0  0  0  0  0
    3.1132   -1.9904   -1.6242 C   0  0  0  0  0  0  0  0  0  0  0  0
    3.3247   -2.7503   -0.2782 C   0  0  1  0  0  0  0  0  0  0  0  0
    3.5292   -4.2290   -0.5934 C   0  0  0  0  0  0  0  0  0  0  0  0
    4.9313   -4.1759   -1.1718 C   0  0  1  0  0  0  0  0  0  0  0  0
    5.1185   -3.2963   -2.4205 C   0  0  2  0  0  0  0  0  0  0  0  0
    6.2447   -2.6165   -1.6743 C   0  0  0  0  0  0  0  0  0  0  0  0
    5.7319   -3.1711   -0.3259 C   0  0  2  0  0  0  0  0  0  0  0  0
    6.8711   -3.7116    0.5432 C   0  0  0  0  0  0  0  0  0  0  0  0
    4.6323   -2.3940    0.5042 C   0  0  2  0  0  0  0  0  0  0  0  0
    4.5138   -2.8901    1.9878 C   0  0  0  0  0  0  0  0  0  0  0  0
    3.4142   -2.2047    2.8360 C   0  0  1  0  0  0  0  0  0  0  0  0
    3.3964   -2.7489    4.2720 C   0  0  0  0  0  0  0  0  0  0  0  0
    2.2616   -2.1191    5.0918 C   0  0  0  0  0  0  0  0  0  0  0  0
    2.3567   -0.5957    5.0618 C   0  0  0  0  0  0  0  0  0  0  0  0
    2.2842    0.0487    6.1158 O   0  0  0  0  0  0  0  0  0  0  0  0
    2.4884    0.0859    3.6816 C   0  0  0  0  0  0  0  0  0  0  0  0
    1.1031    0.0363    3.0019 C   0  0  0  0  0  0  0  0  0  0  0  0
    2.8950    1.5649    3.8781 C   0  0  0  0  0  0  0  0  0  0  0  0
    3.5887   -0.6590    2.8463 C   0  0  2  0  0  0  0  0  0  0  0  0
    3.7454   -0.1130    1.4008 C   0  0  0  0  0  0  0  0  0  0  0  0
    4.8349   -0.8810    0.6598 C   0  0  0  0  0  0  0  0  0  0  0  0
    5.8800   -0.3130    0.3010 O   0  0  0  0  0  0  0  0  0  0  0  0
    2.1473   -2.7327   -4.1640 H   0  0  0  0  0  0  0  0  0  0  0  0
    2.6652   -4.2076   -3.4104 H   0  0  0  0  0  0  0  0  0  0  0  0
    3.5999   -3.5475   -4.7204 H   0  0  0  0  0  0  0  0  0  0  0  0
    4.8300   -0.4670   -3.0480 H   0  0  0  0  0  0  0  0  0  0  0  0
    3.4567   -0.7064   -4.1033 H   0  0  0  0  0  0  0  0  0  0  0  0
    4.9995   -1.4566   -4.4952 H   0  0  0  0  0  0  0  0  0  0  0  0
    3.1811   -0.9029   -1.4977 H   0  0  0  0  0  0  0  0  0  0  0  0
    2.0906   -2.2078   -1.9149 H   0  0  0  0  0  0  0  0  0  0  0  0
    2.4175   -2.6257    0.3087 H   0  0  0  0  0  0  0  0  0  0  0  0
    3.5044   -4.8673    0.2873 H   0  0  0  0  0  0  0  0  0  0  0  0
    2.7314   -4.5913   -1.2292 H   0  0  0  0  0  0  0  0  0  0  0  0
    5.4187   -5.1439   -1.2836 H   0  0  0  0  0  0  0  0  0  0  0  0
    5.5535   -3.8814   -3.2391 H   0  0  0  0  0  0  0  0  0  0  0  0
    7.2032   -3.0334   -1.9828 H   0  0  0  0  0  0  0  0  0  0  0  0
    6.2415   -1.5360   -1.7770 H   0  0  0  0  0  0  0  0  0  0  0  0
    7.3887   -2.9112    1.0754 H   0  0  0  0  0  0  0  0  0  0  0  0
    7.6195   -4.2203   -0.0689 H   0  0  0  0  0  0  0  0  0  0  0  0
    6.5262   -4.4514    1.2641 H   0  0  0  0  0  0  0  0  0  0  0  0
    4.3650   -3.9725    2.0229 H   0  0  0  0  0  0  0  0  0  0  0  0
    5.4638   -2.7084    2.4892 H   0  0  0  0  0  0  0  0  0  0  0  0
    2.4453   -2.4517    2.4042 H   0  0  0  0  0  0  0  0  0  0  0  0
    3.2714   -3.8310    4.2636 H   0  0  0  0  0  0  0  0  0  0  0  0
    4.3479   -2.5412    4.7625 H   0  0  0  0  0  0  0  0  0  0  0  0
    1.2913   -2.4097    4.6930 H   0  0  0  0  0  0  0  0  0  0  0  0
    2.3018   -2.4656    6.1243 H   0  0  0  0  0  0  0  0  0  0  0  0
    1.0931    0.5665    2.0506 H   0  0  0  0  0  0  0  0  0  0  0  0
    0.3422    0.4978    3.6319 H   0  0  0  0  0  0  0  0  0  0  0  0
    0.7793   -0.9861    2.8088 H   0  0  0  0  0  0  0  0  0  0  0  0
    2.9256    2.1105    2.9367 H   0  0  0  0  0  0  0  0  0  0  0  0
    3.8796    1.6454    4.3372 H   0  0  0  0  0  0  0  0  0  0  0  0
    2.1916    2.0943    4.5223 H   0  0  0  0  0  0  0  0  0  0  0  0
    4.5400   -0.4595    3.3442 H   0  0  0  0  0  0  0  0  0  0  0  0
    2.8052   -0.1968    0.8509 H   0  0  0  0  0  0  0  0  0  0  0  0
    4.0148    0.9394    1.4173 H   0  0  0  0  0  0  0  0  0  0  0  0
  1  2  1  0
  1 26  1  0
  1 27  1  0
  1 28  1  0
  2  8  1  0
  2  3  1  0
  2  4  1  0
  3 29  1  0
  3 30  1  0
  3 31  1  0
  4  5  1  0
  4 32  1  0
  4 33  1  0
  5 12  1  0
  5  6  1  0
  5 34  1  1
  6  7  1  0
  6 35  1  0
  6 36  1  0
  7 10  1  0
  7  8  1  0
  7 37  1  6
  8  9  1  0
  8 38  1  6
  9 10  1  0
  9 39  1  0
  9 40  1  0
 10 11  1  1
 10 12  1  0
 11 41  1  0
 11 42  1  0
 11 43  1  0
 12 24  1  0
 12 13  1  1
 13 14  1  0
 13 44  1  0
 13 45  1  0
 14 22  1  0
 14 15  1  0
 14 46  1  6
 15 16  1  0
 15 47  1  0
 15 48  1  0
 16 17  1  0
 16 49  1  0
 16 50  1  0
 17 18  2  0
 17 19  1  0
 19 20  1  0
 19 21  1  0
 19 22  1  0
 20 51  1  0
 20 52  1  0
 20 53  1  0
 21 54  1  0
 21 55  1  0
 21 56  1  0
 22 23  1  0
 22 57  1  1
 23 24  1  0
 23 58  1  0
 23 59  1  0
 24 25  2  0
M  END
>  <i_m_ct_stereo_status>  (276) 
1

>  <s_m_source_file>  (276) 
/var/tmp/pbs.5076255.sched01/tmpos3i1bch/920fm1no0n.sdf

>  <i_m_source_file_index>  (276) 
25

>  <i_lp_mmshare_version>  (276) 
48012

>  <i_f3d_flags>  (276) 
0

>  <s_epik_input>  (276) 
W0NIMl0xW0NAXTIoW0NIM10pW0NAQEhdKFtDSDJdMylbQ0BIXTFDKFtDSDNdKShbQ0gzXSlbQ0gyXVtDQEBIXTNbQ0BAXTI0W0NIMl1bQ0BASF01W0NAQEhdKFtDSDJdQzQ9TylDKFtDSDNdKShbQ0gzXSlDKD1PKVtDSDJdW0NIMl01

>  <s_epik_cmdline>  (276) 
J2VwaWtfcHl0aG9uJywgJy1waHQnLCAnMi4wJywgJy1waCcsICc3LjAnLCAnLXRuJywgJzgnLCAnLW1hJywgJzIwMCcsICctaW1hZScsICc8aW5maWxlLm1hZT4nLCAnLW9tYWUnLCAnPG91dGZpbGUubWFlPic=

>  <r_lp_tautomer_probability>  (276) 
1

>  <r_epik_Ionization_Penalty>  (276) 
1.35242e-13

>  <r_epik_Ionization_Penalty_Charging>  (276) 
0

>  <r_epik_Ionization_Penalty_Neutral>  (276) 
1.35242e-13

>  <r_epik_State_Penalty>  (276) 
-0

>  <r_epik_Charging_Adjusted_Penalty>  (276) 
0

>  <i_epik_Tot_Q>  (276) 
0

>  <i_epik_Tot_abs_Q>  (276) 
0

>  <s_lp_Force_Field>  (276) 
OPLS3e

>  <r_lp_Energy>  (276) 
59.8014

>  <b_lp_Chiralities_Consistent>  (276) 
1

>  <s_lp_Variant>  (276) 
83:0-1

>  <s_i_glide_gridfile>  (276) 
pfpi4k_grid

>  <i_i_glide_lignum>  (276) 
25

>  <i_i_glide_rotatable_bonds>  (276) 
0

>  <r_i_docking_score>  (276) 
-3.208

>  <r_i_glide_ligand_efficiency>  (276) 
-0.12832

>  <r_i_glide_ligand_efficiency_sa>  (276) 
-0.375211

>  <r_i_glide_ligand_efficiency_ln>  (276) 
-0.760393

>  <r_i_glide_gscore>  (276) 
-3.208

>  <r_i_glide_lipo>  (276) 
-0.811912

>  <r_i_glide_hbond>  (276) 
0

>  <r_i_glide_metal>  (276) 
-0

>  <r_i_glide_rewards>  (276) 
-1.20821

>  <r_i_glide_evdw>  (276) 
-20.2169

>  <r_i_glide_ecoul>  (276) 
-1.18027

>  <r_i_glide_erotb>  (276) 
0

>  <r_i_glide_esite>  (276) 
0

>  <r_i_glide_emodel>  (276) 
-24.6685

>  <r_i_glide_energy>  (276) 
-21.3972

>  <r_i_glide_einternal>  (276) 
0

>  <r_i_glide_intrahb_reward>  (276) 
-0

>  <i_i_glide_confnum>  (276) 
2

>  <i_i_glide_posenum>  (276) 
25

>  <r_i_glide_eff_state_penalty>  (276) 
0

>  <ligand_id>  (276) 
83

>  <original_smiles>  (276) 
CC1(C)CC2CC3C1CC3(C)C21CC2CCC(=O)C(C)(C)C2CC1=O

>  <smiles>  (276) 
[H]C([H])([H])C1(C([H])([H])[H])C(=O)C([H])([H])C([H])([H])C2([H])C([H])([H])C3(C(=O)C([H])([H])C21[H])C1([H])C([H])([H])C2([H])C([H])(C([H])([H])C23C([H])([H])[H])C(C([H])([H])[H])(C([H])([H])[H])C1([H])[H]

$$$$
83:0:1
     RDKit          3D

 59 63  0  0  1  0  0  0  0  0999 V2000
    2.7454   -3.2047   -2.9069 C   0  0  0  0  0  0  0  0  0  0  0  0
    3.8866   -2.6454   -2.0144 C   0  0  0  0  0  0  0  0  0  0  0  0
    4.3210   -1.3286   -2.6893 C   0  0  0  0  0  0  0  0  0  0  0  0
    3.3744   -2.3389   -0.5723 C   0  0  0  0  0  0  0  0  0  0  0  0
    3.7152   -3.3520    0.5593 C   0  0  1  0  0  0  0  0  0  0  0  0
    3.6949   -4.7617   -0.0421 C   0  0  0  0  0  0  0  0  0  0  0  0
    4.9868   -4.7233   -0.8164 C   0  0  1  0  0  0  0  0  0  0  0  0
    5.0467   -3.6571   -1.9280 C   0  0  2  0  0  0  0  0  0  0  0  0
    6.3597   -3.2133   -1.3125 C   0  0  0  0  0  0  0  0  0  0  0  0
    6.0270   -3.9416    0.0086 C   0  0  2  0  0  0  0  0  0  0  0  0
    7.2234   -4.7157    0.5740 C   0  0  0  0  0  0  0  0  0  0  0  0
    5.1719   -3.2285    1.1280 C   0  0  2  0  0  0  0  0  0  0  0  0
    5.2192   -3.9680    2.5101 C   0  0  0  0  0  0  0  0  0  0  0  0
    4.3857   -3.3314    3.6524 C   0  0  1  0  0  0  0  0  0  0  0  0
    4.5545   -4.1140    4.9714 C   0  0  0  0  0  0  0  0  0  0  0  0
    3.6623   -3.5398    6.0756 C   0  0  0  0  0  0  0  0  0  0  0  0
    3.9342   -2.0498    6.2685 C   0  0  0  0  0  0  0  0  0  0  0  0
    4.1052   -1.5906    7.3836 O   0  0  0  0  0  0  0  0  0  0  0  0
    3.9082   -1.1619    5.0023 C   0  0  0  0  0  0  0  0  0  0  0  0
    2.4305   -0.9676    4.5936 C   0  0  0  0  0  0  0  0  0  0  0  0
    4.5066    0.2250    5.3418 C   0  0  0  0  0  0  0  0  0  0  0  0
    4.7491   -1.8359    3.8717 C   0  0  2  0  0  0  0  0  0  0  0  0
    4.7337   -1.0661    2.5274 C   0  0  0  0  0  0  0  0  0  0  0  0
    5.5741   -1.7716    1.4617 C   0  0  0  0  0  0  0  0  0  0  0  0
    6.5458   -1.2125    0.9584 O   0  0  0  0  0  0  0  0  0  0  0  0
    1.9043   -2.5176   -2.9738 H   0  0  0  0  0  0  0  0  0  0  0  0
    2.3166   -4.1257   -2.5360 H   0  0  0  0  0  0  0  0  0  0  0  0
    3.0949   -3.3899   -3.9221 H   0  0  0  0  0  0  0  0  0  0  0  0
    5.0111   -0.7550   -2.0734 H   0  0  0  0  0  0  0  0  0  0  0  0
    3.4587   -0.6857   -2.8632 H   0  0  0  0  0  0  0  0  0  0  0  0
    4.7962   -1.5096   -3.6541 H   0  0  0  0  0  0  0  0  0  0  0  0
    3.5920   -1.3096   -0.2935 H   0  0  0  0  0  0  0  0  0  0  0  0
    2.2614   -2.3177   -0.6120 H   0  0  0  0  0  0  0  0  0  0  0  0
    2.9485   -3.2530    1.3321 H   0  0  0  0  0  0  0  0  0  0  0  0
    3.7207   -5.5328    0.7217 H   0  0  0  0  0  0  0  0  0  0  0  0
    2.8115   -4.9616   -0.6373 H   0  0  0  0  0  0  0  0  0  0  0  0
    5.3582   -5.6886   -1.1397 H   0  0  0  0  0  0  0  0  0  0  0  0
    5.2615   -4.1349   -2.8835 H   0  0  0  0  0  0  0  0  0  0  0  0
    7.2037   -3.6442   -1.8471 H   0  0  0  0  0  0  0  0  0  0  0  0
    6.4754   -2.1402   -1.2502 H   0  0  0  0  0  0  0  0  0  0  0  0
    7.9031   -4.0677    1.1286 H   0  0  0  0  0  0  0  0  0  0  0  0
    7.8182   -5.1588   -0.2217 H   0  0  0  0  0  0  0  0  0  0  0  0
    6.9190   -5.5464    1.2117 H   0  0  0  0  0  0  0  0  0  0  0  0
    4.9514   -5.0228    2.4066 H   0  0  0  0  0  0  0  0  0  0  0  0
    6.2349   -3.9747    2.8668 H   0  0  0  0  0  0  0  0  0  0  0  0
    3.3338   -3.4200    3.3883 H   0  0  0  0  0  0  0  0  0  0  0  0
    4.3087   -5.1705    4.8209 H   0  0  0  0  0  0  0  0  0  0  0  0
    5.5987   -4.0772    5.2982 H   0  0  0  0  0  0  0  0  0  0  0  0
    2.6135   -3.6720    5.8253 H   0  0  0  0  0  0  0  0  0  0  0  0
    3.8338   -4.0611    7.0140 H   0  0  0  0  0  0  0  0  0  0  0  0
    2.3194   -0.2814    3.7494 H   0  0  0  0  0  0  0  0  0  0  0  0
    1.8416   -0.5575    5.4176 H   0  0  0  0  0  0  0  0  0  0  0  0
    1.9591   -1.9092    4.3096 H   0  0  0  0  0  0  0  0  0  0  0  0
    4.4413    0.9222    4.5037 H   0  0  0  0  0  0  0  0  0  0  0  0
    5.5575    0.1384    5.6172 H   0  0  0  0  0  0  0  0  0  0  0  0
    3.9903    0.6969    6.1790 H   0  0  0  0  0  0  0  0  0  0  0  0
    5.7859   -1.8190    4.2087 H   0  0  0  0  0  0  0  0  0  0  0  0
    3.7176   -0.9656    2.1508 H   0  0  0  0  0  0  0  0  0  0  0  0
    5.1289   -0.0598    2.6593 H   0  0  0  0  0  0  0  0  0  0  0  0
  1  2  1  0
  1 26  1  0
  1 27  1  0
  1 28  1  0
  2  8  1  0
  2  3  1  0
  2  4  1  0
  3 29  1  0
  3 30  1  0
  3 31  1  0
  4  5  1  0
  4 32  1  0
  4 33  1  0
  5 12  1  0
  5  6  1  0
  5 34  1  1
  6  7  1  0
  6 35  1  0
  6 36  1  0
  7 10  1  0
  7  8  1  0
  7 37  1  6
  8  9  1  0
  8 38  1  6
  9 10  1  0
  9 39  1  0
  9 40  1  0
 10 11  1  1
 10 12  1  0
 11 41  1  0
 11 42  1  0
 11 43  1  0
 12 24  1  0
 12 13  1  1
 13 14  1  0
 13 44  1  0
 13 45  1  0
 14 22  1  0
 14 15  1  0
 14 46  1  6
 15 16  1  0
 15 47  1  0
 15 48  1  0
 16 17  1  0
 16 49  1  0
 16 50  1  0
 17 18  2  0
 17 19  1  0
 19 20  1  0
 19 21  1  0
 19 22  1  0
 20 51  1  0
 20 52  1  0
 20 53  1  0
 21 54  1  0
 21 55  1  0
 21 56  1  0
 22 23  1  0
 22 57  1  1
 23 24  1  0
 23 58  1  0
 23 59  1  0
 24 25  2  0
M  END
>  <i_m_ct_stereo_status>  (277) 
1

>  <s_m_source_file>  (277) 
/var/tmp/pbs.5076255.sched01/tmpos3i1bch/920fm1no0n.sdf

>  <i_m_source_file_index>  (277) 
25

>  <i_lp_mmshare_version>  (277) 
48012

>  <i_f3d_flags>  (277) 
0

>  <s_epik_input>  (277) 
W0NIMl0xW0NAXTIoW0NIM10pW0NAQEhdKFtDSDJdMylbQ0BIXTFDKFtDSDNdKShbQ0gzXSlbQ0gyXVtDQEBIXTNbQ0BAXTI0W0NIMl1bQ0BASF01W0NAQEhdKFtDSDJdQzQ9TylDKFtDSDNdKShbQ0gzXSlDKD1PKVtDSDJdW0NIMl01

>  <s_epik_cmdline>  (277) 
J2VwaWtfcHl0aG9uJywgJy1waHQnLCAnMi4wJywgJy1waCcsICc3LjAnLCAnLXRuJywgJzgnLCAnLW1hJywgJzIwMCcsICctaW1hZScsICc8aW5maWxlLm1hZT4nLCAnLW9tYWUnLCAnPG91dGZpbGUubWFlPic=

>  <r_lp_tautomer_probability>  (277) 
1

>  <r_epik_Ionization_Penalty>  (277) 
1.35242e-13

>  <r_epik_Ionization_Penalty_Charging>  (277) 
0

>  <r_epik_Ionization_Penalty_Neutral>  (277) 
1.35242e-13

>  <r_epik_State_Penalty>  (277) 
-0

>  <r_epik_Charging_Adjusted_Penalty>  (277) 
0

>  <i_epik_Tot_Q>  (277) 
0

>  <i_epik_Tot_abs_Q>  (277) 
0

>  <s_lp_Force_Field>  (277) 
OPLS3e

>  <r_lp_Energy>  (277) 
59.8014

>  <b_lp_Chiralities_Consistent>  (277) 
1

>  <s_lp_Variant>  (277) 
83:0-1

>  <s_i_glide_gridfile>  (277) 
pfpi4k_grid

>  <i_i_glide_lignum>  (277) 
25

>  <i_i_glide_rotatable_bonds>  (277) 
0

>  <r_i_docking_score>  (277) 
-2.76807

>  <r_i_glide_ligand_efficiency>  (277) 
-0.110723

>  <r_i_glide_ligand_efficiency_sa>  (277) 
-0.323756

>  <r_i_glide_ligand_efficiency_ln>  (277) 
-0.656116

>  <r_i_glide_gscore>  (277) 
-2.76807

>  <r_i_glide_lipo>  (277) 
-0.625101

>  <r_i_glide_hbond>  (277) 
0

>  <r_i_glide_metal>  (277) 
-0

>  <r_i_glide_rewards>  (277) 
-1.23379

>  <r_i_glide_evdw>  (277) 
-16.7587

>  <r_i_glide_ecoul>  (277) 
-0.47494

>  <r_i_glide_erotb>  (277) 
0

>  <r_i_glide_esite>  (277) 
0

>  <r_i_glide_emodel>  (277) 
-20.1301

>  <r_i_glide_energy>  (277) 
-17.2336

>  <r_i_glide_einternal>  (277) 
0

>  <r_i_glide_intrahb_reward>  (277) 
-0

>  <i_i_glide_confnum>  (277) 
2

>  <i_i_glide_posenum>  (277) 
6

>  <r_i_glide_eff_state_penalty>  (277) 
0

>  <ligand_id>  (277) 
83

>  <original_smiles>  (277) 
CC1(C)CC2CC3C1CC3(C)C21CC2CCC(=O)C(C)(C)C2CC1=O

>  <smiles>  (277) 
[H]C([H])([H])C1(C([H])([H])[H])C(=O)C([H])([H])C([H])([H])C2([H])C([H])([H])C3(C(=O)C([H])([H])C21[H])C1([H])C([H])([H])C2([H])C([H])(C([H])([H])C23C([H])([H])[H])C(C([H])([H])[H])(C([H])([H])[H])C1([H])[H]

$$$$
83:0:2
     RDKit          3D

 59 63  0  0  1  0  0  0  0  0999 V2000
    2.9791   -2.7506   -4.2471 C   0  0  0  0  0  0  0  0  0  0  0  0
    3.4850   -1.9881   -3.0112 C   0  0  0  0  0  0  0  0  0  0  0  0
    3.1625   -0.4911   -3.2196 C   0  0  0  0  0  0  0  0  0  0  0  0
    2.8444   -2.5887   -1.7252 C   0  0  0  0  0  0  0  0  0  0  0  0
    3.7521   -3.4987   -0.8438 C   0  0  1  0  0  0  0  0  0  0  0  0
    4.6752   -4.2855   -1.7599 C   0  0  0  0  0  0  0  0  0  0  0  0
    5.6370   -3.2248   -2.1519 C   0  0  1  0  0  0  0  0  0  0  0  0
    4.9863   -2.0606   -2.9123 C   0  0  2  0  0  0  0  0  0  0  0  0
    5.6144   -1.1519   -1.8819 C   0  0  0  0  0  0  0  0  0  0  0  0
    5.8745   -2.3176   -0.9266 C   0  0  2  0  0  0  0  0  0  0  0  0
    7.3170   -2.3305   -0.3784 C   0  0  0  0  0  0  0  0  0  0  0  0
    4.7583   -2.7160    0.0981 C   0  0  2  0  0  0  0  0  0  0  0  0
    5.2941   -3.6640    1.2188 C   0  0  0  0  0  0  0  0  0  0  0  0
    4.2291   -4.1275    2.2371 C   0  0  1  0  0  0  0  0  0  0  0  0
    4.8416   -5.0451    3.3054 C   0  0  0  0  0  0  0  0  0  0  0  0
    3.7771   -5.5608    4.2826 C   0  0  0  0  0  0  0  0  0  0  0  0
    3.0181   -4.3982    4.9202 C   0  0  0  0  0  0  0  0  0  0  0  0
    2.8562   -4.3570    6.1423 O   0  0  0  0  0  0  0  0  0  0  0  0
    2.4445   -3.3264    3.9625 C   0  0  0  0  0  0  0  0  0  0  0  0
    1.1982   -3.9457    3.2936 C   0  0  0  0  0  0  0  0  0  0  0  0
    2.0149   -2.0865    4.7884 C   0  0  0  0  0  0  0  0  0  0  0  0
    3.5390   -2.9124    2.9153 C   0  0  2  0  0  0  0  0  0  0  0  0
    3.0339   -1.8919    1.8628 C   0  0  0  0  0  0  0  0  0  0  0  0
    4.1488   -1.5213    0.8907 C   0  0  0  0  0  0  0  0  0  0  0  0
    4.5428   -0.3537    0.8033 O   0  0  0  0  0  0  0  0  0  0  0  0
    1.8774   -2.7501   -4.3090 H   0  0  0  0  0  0  0  0  0  0  0  0
    3.3046   -3.7953   -4.2889 H   0  0  0  0  0  0  0  0  0  0  0  0
    3.3881   -2.2446   -5.1172 H   0  0  0  0  0  0  0  0  0  0  0  0
    3.3189    0.0688   -2.3363 H   0  0  0  0  0  0  0  0  0  0  0  0
    2.1664   -0.3004   -3.3760 H   0  0  0  0  0  0  0  0  0  0  0  0
    3.5877    0.0072   -4.0932 H   0  0  0  0  0  0  0  0  0  0  0  0
    2.6412   -1.7370   -1.0844 H   0  0  0  0  0  0  0  0  0  0  0  0
    1.9014   -3.0997   -1.9700 H   0  0  0  0  0  0  0  0  0  0  0  0
    3.0894   -4.1351   -0.2744 H   0  0  0  0  0  0  0  0  0  0  0  0
    5.1665   -5.0832   -1.2311 H   0  0  0  0  0  0  0  0  0  0  0  0
    4.1968   -4.6571   -2.6463 H   0  0  0  0  0  0  0  0  0  0  0  0
    6.5445   -3.5449   -2.6696 H   0  0  0  0  0  0  0  0  0  0  0  0
    5.3930   -1.8817   -3.8981 H   0  0  0  0  0  0  0  0  0  0  0  0
    6.5098   -0.8682   -2.3130 H   0  0  0  0  0  0  0  0  0  0  0  0
    5.0605   -0.2767   -1.5250 H   0  0  0  0  0  0  0  0  0  0  0  0
    7.4450   -1.6437    0.4568 H   0  0  0  0  0  0  0  0  0  0  0  0
    8.0567   -2.0647   -1.1430 H   0  0  0  0  0  0  0  0  0  0  0  0
    7.6083   -3.3300   -0.0616 H   0  0  0  0  0  0  0  0  0  0  0  0
    5.7756   -4.5349    0.7822 H   0  0  0  0  0  0  0  0  0  0  0  0
    6.0743   -3.1464    1.7779 H   0  0  0  0  0  0  0  0  0  0  0  0
    3.4783   -4.7126    1.7126 H   0  0  0  0  0  0  0  0  0  0  0  0
    5.3380   -5.8931    2.8336 H   0  0  0  0  0  0  0  0  0  0  0  0
    5.6070   -4.5050    3.8637 H   0  0  0  0  0  0  0  0  0  0  0  0
    3.0590   -6.1960    3.7641 H   0  0  0  0  0  0  0  0  0  0  0  0
    4.2301   -6.1736    5.0630 H   0  0  0  0  0  0  0  0  0  0  0  0
    0.6980   -3.1970    2.6863 H   0  0  0  0  0  0  0  0  0  0  0  0
    0.4688   -4.2960    4.0266 H   0  0  0  0  0  0  0  0  0  0  0  0
    1.4424   -4.7986    2.6593 H   0  0  0  0  0  0  0  0  0  0  0  0
    1.5287   -1.3329    4.1692 H   0  0  0  0  0  0  0  0  0  0  0  0
    2.8780   -1.6139    5.2592 H   0  0  0  0  0  0  0  0  0  0  0  0
    1.3115   -2.3402    5.5846 H   0  0  0  0  0  0  0  0  0  0  0  0
    4.3174   -2.3962    3.4828 H   0  0  0  0  0  0  0  0  0  0  0  0
    2.2004   -2.2974    1.2892 H   0  0  0  0  0  0  0  0  0  0  0  0
    2.6841   -0.9774    2.3367 H   0  0  0  0  0  0  0  0  0  0  0  0
  1  2  1  0
  1 26  1  0
  1 27  1  0
  1 28  1  0
  2  8  1  0
  2  3  1  0
  2  4  1  0
  3 29  1  0
  3 30  1  0
  3 31  1  0
  4  5  1  0
  4 32  1  0
  4 33  1  0
  5 12  1  0
  5  6  1  0
  5 34  1  1
  6  7  1  0
  6 35  1  0
  6 36  1  0
  7 10  1  0
  7  8  1  0
  7 37  1  6
  8  9  1  0
  8 38  1  6
  9 10  1  0
  9 39  1  0
  9 40  1  0
 10 11  1  1
 10 12  1  0
 11 41  1  0
 11 42  1  0
 11 43  1  0
 12 24  1  0
 12 13  1  1
 13 14  1  0
 13 44  1  0
 13 45  1  0
 14 22  1  0
 14 15  1  0
 14 46  1  6
 15 16  1  0
 15 47  1  0
 15 48  1  0
 16 17  1  0
 16 49  1  0
 16 50  1  0
 17 18  2  0
 17 19  1  0
 19 20  1  0
 19 21  1  0
 19 22  1  0
 20 51  1  0
 20 52  1  0
 20 53  1  0
 21 54  1  0
 21 55  1  0
 21 56  1  0
 22 23  1  0
 22 57  1  1
 23 24  1  0
 23 58  1  0
 23 59  1  0
 24 25  2  0
M  END
>  <i_m_ct_stereo_status>  (278) 
1

>  <s_m_source_file>  (278) 
/var/tmp/pbs.5076255.sched01/tmpos3i1bch/920fm1no0n.sdf

>  <i_m_source_file_index>  (278) 
25

>  <i_lp_mmshare_version>  (278) 
48012

>  <i_f3d_flags>  (278) 
0

>  <s_epik_input>  (278) 
W0NIMl0xW0NAXTIoW0NIM10pW0NAQEhdKFtDSDJdMylbQ0BIXTFDKFtDSDNdKShbQ0gzXSlbQ0gyXVtDQEBIXTNbQ0BAXTI0W0NIMl1bQ0BASF01W0NAQEhdKFtDSDJdQzQ9TylDKFtDSDNdKShbQ0gzXSlDKD1PKVtDSDJdW0NIMl01

>  <s_epik_cmdline>  (278) 
J2VwaWtfcHl0aG9uJywgJy1waHQnLCAnMi4wJywgJy1waCcsICc3LjAnLCAnLXRuJywgJzgnLCAnLW1hJywgJzIwMCcsICctaW1hZScsICc8aW5maWxlLm1hZT4nLCAnLW9tYWUnLCAnPG91dGZpbGUubWFlPic=

>  <r_lp_tautomer_probability>  (278) 
1

>  <r_epik_Ionization_Penalty>  (278) 
1.35242e-13

>  <r_epik_Ionization_Penalty_Charging>  (278) 
0

>  <r_epik_Ionization_Penalty_Neutral>  (278) 
1.35242e-13

>  <r_epik_State_Penalty>  (278) 
-0

>  <r_epik_Charging_Adjusted_Penalty>  (278) 
0

>  <i_epik_Tot_Q>  (278) 
0

>  <i_epik_Tot_abs_Q>  (278) 
0

>  <s_lp_Force_Field>  (278) 
OPLS3e

>  <r_lp_Energy>  (278) 
59.8014

>  <b_lp_Chiralities_Consistent>  (278) 
1

>  <s_lp_Variant>  (278) 
83:0-1

>  <s_i_glide_gridfile>  (278) 
pfpi4k_grid

>  <i_i_glide_lignum>  (278) 
25

>  <i_i_glide_rotatable_bonds>  (278) 
0

>  <r_i_docking_score>  (278) 
-1.84302

>  <r_i_glide_ligand_efficiency>  (278) 
-0.0737209

>  <r_i_glide_ligand_efficiency_sa>  (278) 
-0.215561

>  <r_i_glide_ligand_efficiency_ln>  (278) 
-0.436852

>  <r_i_glide_gscore>  (278) 
-1.84302

>  <r_i_glide_lipo>  (278) 
-0.427679

>  <r_i_glide_hbond>  (278) 
0

>  <r_i_glide_metal>  (278) 
-0

>  <r_i_glide_rewards>  (278) 
-1.07376

>  <r_i_glide_evdw>  (278) 
-3.72308

>  <r_i_glide_ecoul>  (278) 
-0.949812

>  <r_i_glide_erotb>  (278) 
0

>  <r_i_glide_esite>  (278) 
-0.0129562

>  <r_i_glide_emodel>  (278) 
-4.91936

>  <r_i_glide_energy>  (278) 
-4.67289

>  <r_i_glide_einternal>  (278) 
0

>  <r_i_glide_intrahb_reward>  (278) 
-0

>  <i_i_glide_confnum>  (278) 
1

>  <i_i_glide_posenum>  (278) 
2

>  <r_i_glide_eff_state_penalty>  (278) 
0

>  <ligand_id>  (278) 
83

>  <original_smiles>  (278) 
CC1(C)CC2CC3C1CC3(C)C21CC2CCC(=O)C(C)(C)C2CC1=O

>  <smiles>  (278) 
[H]C([H])([H])C1(C([H])([H])[H])C(=O)C([H])([H])C([H])([H])C2([H])C([H])([H])C3(C(=O)C([H])([H])C21[H])C1([H])C([H])([H])C2([H])C([H])(C([H])([H])C23C([H])([H])[H])C(C([H])([H])[H])(C([H])([H])[H])C1([H])[H]

$$$$
84:0:0
     RDKit          3D

 38 41  0  0  1  0  0  0  0  0999 V2000
    4.4643   -9.0973    0.6641 C   0  0  0  0  0  0  0  0  0  0  0  0
    4.2918   -8.0402    1.7598 C   0  0  0  0  0  0  0  0  0  0  0  0
    3.1659   -7.1830    1.4657 N   0  0  0  0  0  0  0  0  0  0  0  0
    1.9082   -7.5621    1.8108 N   0  0  0  0  0  0  0  0  0  0  0  0
    1.1108   -6.6303    1.3841 N   0  0  0  0  0  0  0  0  0  0  0  0
    1.8179   -5.6219    0.7572 N   0  0  0  0  0  0  0  0  0  0  0  0
    3.0895   -6.0098    0.8220 C   0  0  0  0  0  0  0  0  0  0  0  0
    4.2649   -5.3147    0.2723 C   0  0  0  0  0  0  0  0  0  0  0  0
    4.3417   -4.1048   -0.3297 C   0  0  0  0  0  0  0  0  0  0  0  0
    5.6618   -3.5549   -0.8740 C   0  0  1  0  0  0  0  0  0  0  0  0
    5.5043   -3.3207   -2.3933 C   0  0  0  0  0  0  0  0  0  0  0  0
    4.3668   -2.3046   -2.6430 C   0  0  2  0  0  0  0  0  0  0  0  0
    4.6759   -0.9719   -1.9237 C   0  0  0  0  0  0  0  0  0  0  0  0
    4.8342   -1.2171   -0.4057 C   0  0  2  0  0  0  0  0  0  0  0  0
    5.9839   -2.2192   -0.1673 C   0  0  0  0  0  0  0  0  0  0  0  0
    3.5273   -1.8082    0.1620 C   0  0  0  0  0  0  0  0  0  0  0  0
    3.1916   -3.1235   -0.5664 C   0  0  1  0  0  0  0  0  0  0  0  0
    3.0491   -2.8787   -2.0834 C   0  0  0  0  0  0  0  0  0  0  0  0
    5.3217   -9.7375    0.8799 H   0  0  0  0  0  0  0  0  0  0  0  0
    4.6137   -8.6346   -0.3128 H   0  0  0  0  0  0  0  0  0  0  0  0
    3.5816   -9.7359    0.5987 H   0  0  0  0  0  0  0  0  0  0  0  0
    4.1298   -8.5095    2.7334 H   0  0  0  0  0  0  0  0  0  0  0  0
    5.1939   -7.4358    1.8505 H   0  0  0  0  0  0  0  0  0  0  0  0
    5.1930   -5.8663    0.3409 H   0  0  0  0  0  0  0  0  0  0  0  0
    6.4740   -4.2587   -0.6939 H   0  0  0  0  0  0  0  0  0  0  0  0
    6.4402   -2.9692   -2.8248 H   0  0  0  0  0  0  0  0  0  0  0  0
    5.2720   -4.2635   -2.8911 H   0  0  0  0  0  0  0  0  0  0  0  0
    4.2595   -2.1292   -3.7148 H   0  0  0  0  0  0  0  0  0  0  0  0
    5.5811   -0.5247   -2.3237 H   0  0  0  0  0  0  0  0  0  0  0  0
    3.8701   -0.2602   -2.1067 H   0  0  0  0  0  0  0  0  0  0  0  0
    5.0521   -0.2746    0.0998 H   0  0  0  0  0  0  0  0  0  0  0  0
    6.1233   -2.3860    0.9014 H   0  0  0  0  0  0  0  0  0  0  0  0
    6.9239   -1.8174   -0.5398 H   0  0  0  0  0  0  0  0  0  0  0  0
    3.6283   -1.9966    1.2313 H   0  0  0  0  0  0  0  0  0  0  0  0
    2.7078   -1.1008    0.0615 H   0  0  0  0  0  0  0  0  0  0  0  0
    2.2270   -3.4592   -0.1975 H   0  0  0  0  0  0  0  0  0  0  0  0
    2.2227   -2.1954   -2.2741 H   0  0  0  0  0  0  0  0  0  0  0  0
    2.7949   -3.8115   -2.5890 H   0  0  0  0  0  0  0  0  0  0  0  0
  1  2  1  0
  1 19  1  0
  1 20  1  0
  1 21  1  0
  2  3  1  0
  2 22  1  0
  2 23  1  0
  3  7  1  0
  3  4  1  0
  4  5  2  0
  5  6  1  0
  6  7  2  0
  7  8  1  0
  8  9  2  3
  8 24  1  0
  9 17  1  0
  9 10  1  0
 10 15  1  0
 10 11  1  0
 10 25  1  6
 11 12  1  0
 11 26  1  0
 11 27  1  0
 12 18  1  0
 12 13  1  0
 12 28  1  6
 13 14  1  0
 13 29  1  0
 13 30  1  0
 14 15  1  0
 14 16  1  0
 14 31  1  1
 15 32  1  0
 15 33  1  0
 16 17  1  0
 16 34  1  0
 16 35  1  0
 17 18  1  0
 17 36  1  1
 18 37  1  0
 18 38  1  0
M  END
>  <i_m_ct_stereo_status>  (279) 
1

>  <s_m_source_file>  (279) 
/var/tmp/pbs.5076255.sched01/tmpos3i1bch/920fm1no0n.sdf

>  <i_m_source_file_index>  (279) 
26

>  <i_lp_mmshare_version>  (279) 
48012

>  <i_f3d_flags>  (279) 
0

>  <s_epik_input>  (279) 
W0NIM11bQ0gyXW4xbm5uYzFbQ0hdPUMoW0NAQEhdMjMpW0NASF00W0NIMl1bQ0BASF0oW0NIMl0zKVtDSDJdW0NAQEhdKFtDSDJdMilbQ0gyXTQ=

>  <s_epik_cmdline>  (279) 
J2VwaWtfcHl0aG9uJywgJy1waHQnLCAnMi4wJywgJy1waCcsICc3LjAnLCAnLXRuJywgJzgnLCAnLW1hJywgJzIwMCcsICctaW1hZScsICc8aW5maWxlLm1hZT4nLCAnLW9tYWUnLCAnPG91dGZpbGUubWFlPic=

>  <r_lp_tautomer_probability>  (279) 
1

>  <r_epik_Ionization_Penalty>  (279) 
3.77409e-07

>  <r_epik_Ionization_Penalty_Charging>  (279) 
0

>  <r_epik_Ionization_Penalty_Neutral>  (279) 
3.77409e-07

>  <r_epik_State_Penalty>  (279) 
-0

>  <r_epik_Charging_Adjusted_Penalty>  (279) 
0

>  <i_epik_Tot_Q>  (279) 
0

>  <i_epik_Tot_abs_Q>  (279) 
0

>  <s_lp_Force_Field>  (279) 
OPLS3e

>  <r_lp_Energy>  (279) 
6.722

>  <b_lp_Chiralities_Consistent>  (279) 
1

>  <s_lp_Variant>  (279) 
84:0-1

>  <s_i_glide_gridfile>  (279) 
pfpi4k_grid

>  <i_i_glide_lignum>  (279) 
26

>  <i_i_glide_rotatable_bonds>  (279) 
2

>  <r_i_docking_score>  (279) 
-3.44679

>  <r_i_glide_ligand_efficiency>  (279) 
-0.191488

>  <r_i_glide_ligand_efficiency_sa>  (279) 
-0.501841

>  <r_i_glide_ligand_efficiency_ln>  (279) 
-0.885979

>  <r_i_glide_gscore>  (279) 
-3.44679

>  <r_i_glide_lipo>  (279) 
-0.447004

>  <r_i_glide_hbond>  (279) 
0

>  <r_i_glide_metal>  (279) 
-0

>  <r_i_glide_rewards>  (279) 
-1.83133

>  <r_i_glide_evdw>  (279) 
-21.668

>  <r_i_glide_ecoul>  (279) 
-1.28661

>  <r_i_glide_erotb>  (279) 
0.291204

>  <r_i_glide_esite>  (279) 
-0.183265

>  <r_i_glide_emodel>  (279) 
-28.2387

>  <r_i_glide_energy>  (279) 
-22.9546

>  <r_i_glide_einternal>  (279) 
0.0435796

>  <r_i_glide_intrahb_reward>  (279) 
-0

>  <i_i_glide_confnum>  (279) 
1

>  <i_i_glide_posenum>  (279) 
1

>  <r_i_glide_eff_state_penalty>  (279) 
0

>  <ligand_id>  (279) 
84

>  <original_smiles>  (279) 
CCn1nnnc1C=C1C2CC3CC(C2)CC1C3

>  <smiles>  (279) 
[H]C(=C1C2([H])C([H])([H])C3([H])C([H])([H])C1([H])C([H])([H])C([H])(C2([H])[H])C3([H])[H])c1nnnn1C([H])([H])C([H])([H])[H]

$$$$
84:0:1
     RDKit          3D

 38 41  0  0  1  0  0  0  0  0999 V2000
    4.4713   -8.5162    3.1618 C   0  0  0  0  0  0  0  0  0  0  0  0
    4.1172   -8.4678    1.6727 C   0  0  0  0  0  0  0  0  0  0  0  0
    3.0371   -7.5394    1.4203 N   0  0  0  0  0  0  0  0  0  0  0  0
    1.7563   -7.8787    1.7121 N   0  0  0  0  0  0  0  0  0  0  0  0
    1.0003   -6.9001    1.3470 N   0  0  0  0  0  0  0  0  0  0  0  0
    1.7601   -5.8697    0.8177 N   0  0  0  0  0  0  0  0  0  0  0  0
    3.0168   -6.3024    0.8883 C   0  0  0  0  0  0  0  0  0  0  0  0
    4.2377   -5.5994    0.4578 C   0  0  0  0  0  0  0  0  0  0  0  0
    4.3763   -4.3546   -0.0464 C   0  0  0  0  0  0  0  0  0  0  0  0
    5.7377   -3.8085   -0.4844 C   0  0  1  0  0  0  0  0  0  0  0  0
    5.6689   -3.4566   -1.9879 C   0  0  0  0  0  0  0  0  0  0  0  0
    4.5760   -2.3904   -2.2168 C   0  0  2  0  0  0  0  0  0  0  0  0
    4.8859   -1.1253   -1.3874 C   0  0  0  0  0  0  0  0  0  0  0  0
    4.9627   -1.4877    0.1122 C   0  0  2  0  0  0  0  0  0  0  0  0
    6.0713   -2.5403    0.3322 C   0  0  0  0  0  0  0  0  0  0  0  0
    3.6098   -2.0696    0.5662 C   0  0  0  0  0  0  0  0  0  0  0  0
    3.2747   -3.3164   -0.2697 C   0  0  1  0  0  0  0  0  0  0  0  0
    3.2174   -2.9649   -1.7681 C   0  0  0  0  0  0  0  0  0  0  0  0
    5.2934   -9.2094    3.3314 H   0  0  0  0  0  0  0  0  0  0  0  0
    3.6171   -8.8485    3.7574 H   0  0  0  0  0  0  0  0  0  0  0  0
    4.7753   -7.5334    3.5310 H   0  0  0  0  0  0  0  0  0  0  0  0
    4.9959   -8.2006    1.0933 H   0  0  0  0  0  0  0  0  0  0  0  0
    3.8119   -9.4527    1.3124 H   0  0  0  0  0  0  0  0  0  0  0  0
    5.1541   -6.1569    0.5384 H   0  0  0  0  0  0  0  0  0  0  0  0
    6.5202   -4.5544   -0.3189 H   0  0  0  0  0  0  0  0  0  0  0  0
    6.6362   -3.1035   -2.3502 H   0  0  0  0  0  0  0  0  0  0  0  0
    5.4247   -4.3477   -2.5674 H   0  0  0  0  0  0  0  0  0  0  0  0
    4.5278   -2.1357   -3.2762 H   0  0  0  0  0  0  0  0  0  0  0  0
    5.8146   -0.6787   -1.7201 H   0  0  0  0  0  0  0  0  0  0  0  0
    4.1132   -0.3779   -1.5506 H   0  0  0  0  0  0  0  0  0  0  0  0
    5.1841   -0.5919    0.6990 H   0  0  0  0  0  0  0  0  0  0  0  0
    6.1536   -2.7895    1.3907 H   0  0  0  0  0  0  0  0  0  0  0  0
    7.0400   -2.1388    0.0313 H   0  0  0  0  0  0  0  0  0  0  0  0
    3.6476   -2.3394    1.6224 H   0  0  0  0  0  0  0  0  0  0  0  0
    2.8122   -1.3358    0.4593 H   0  0  0  0  0  0  0  0  0  0  0  0
    2.2840   -3.6367    0.0224 H   0  0  0  0  0  0  0  0  0  0  0  0
    2.4191   -2.2439   -1.9418 H   0  0  0  0  0  0  0  0  0  0  0  0
    2.9632   -3.8503   -2.3499 H   0  0  0  0  0  0  0  0  0  0  0  0
  1  2  1  0
  1 19  1  0
  1 20  1  0
  1 21  1  0
  2  3  1  0
  2 22  1  0
  2 23  1  0
  3  7  1  0
  3  4  1  0
  4  5  2  0
  5  6  1  0
  6  7  2  0
  7  8  1  0
  8  9  2  3
  8 24  1  0
  9 17  1  0
  9 10  1  0
 10 15  1  0
 10 11  1  0
 10 25  1  6
 11 12  1  0
 11 26  1  0
 11 27  1  0
 12 18  1  0
 12 13  1  0
 12 28  1  6
 13 14  1  0
 13 29  1  0
 13 30  1  0
 14 15  1  0
 14 16  1  0
 14 31  1  1
 15 32  1  0
 15 33  1  0
 16 17  1  0
 16 34  1  0
 16 35  1  0
 17 18  1  0
 17 36  1  1
 18 37  1  0
 18 38  1  0
M  END
>  <i_m_ct_stereo_status>  (280) 
1

>  <s_m_source_file>  (280) 
/var/tmp/pbs.5076255.sched01/tmpos3i1bch/920fm1no0n.sdf

>  <i_m_source_file_index>  (280) 
26

>  <i_lp_mmshare_version>  (280) 
48012

>  <i_f3d_flags>  (280) 
0

>  <s_epik_input>  (280) 
W0NIM11bQ0gyXW4xbm5uYzFbQ0hdPUMoW0NAQEhdMjMpW0NASF00W0NIMl1bQ0BASF0oW0NIMl0zKVtDSDJdW0NAQEhdKFtDSDJdMilbQ0gyXTQ=

>  <s_epik_cmdline>  (280) 
J2VwaWtfcHl0aG9uJywgJy1waHQnLCAnMi4wJywgJy1waCcsICc3LjAnLCAnLXRuJywgJzgnLCAnLW1hJywgJzIwMCcsICctaW1hZScsICc8aW5maWxlLm1hZT4nLCAnLW9tYWUnLCAnPG91dGZpbGUubWFlPic=

>  <r_lp_tautomer_probability>  (280) 
1

>  <r_epik_Ionization_Penalty>  (280) 
3.77409e-07

>  <r_epik_Ionization_Penalty_Charging>  (280) 
0

>  <r_epik_Ionization_Penalty_Neutral>  (280) 
3.77409e-07

>  <r_epik_State_Penalty>  (280) 
-0

>  <r_epik_Charging_Adjusted_Penalty>  (280) 
0

>  <i_epik_Tot_Q>  (280) 
0

>  <i_epik_Tot_abs_Q>  (280) 
0

>  <s_lp_Force_Field>  (280) 
OPLS3e

>  <r_lp_Energy>  (280) 
6.722

>  <b_lp_Chiralities_Consistent>  (280) 
1

>  <s_lp_Variant>  (280) 
84:0-1

>  <s_i_glide_gridfile>  (280) 
pfpi4k_grid

>  <i_i_glide_lignum>  (280) 
26

>  <i_i_glide_rotatable_bonds>  (280) 
2

>  <r_i_docking_score>  (280) 
-3.29722

>  <r_i_glide_ligand_efficiency>  (280) 
-0.183179

>  <r_i_glide_ligand_efficiency_sa>  (280) 
-0.480065

>  <r_i_glide_ligand_efficiency_ln>  (280) 
-0.847534

>  <r_i_glide_gscore>  (280) 
-3.29722

>  <r_i_glide_lipo>  (280) 
-0.44076

>  <r_i_glide_hbond>  (280) 
0

>  <r_i_glide_metal>  (280) 
-0

>  <r_i_glide_rewards>  (280) 
-1.79408

>  <r_i_glide_evdw>  (280) 
-19.8442

>  <r_i_glide_ecoul>  (280) 
-1.22682

>  <r_i_glide_erotb>  (280) 
0.291204

>  <r_i_glide_esite>  (280) 
-0.177354

>  <r_i_glide_emodel>  (280) 
-26.1081

>  <r_i_glide_energy>  (280) 
-21.0711

>  <r_i_glide_einternal>  (280) 
0.0628094

>  <r_i_glide_intrahb_reward>  (280) 
-0

>  <i_i_glide_confnum>  (280) 
4

>  <i_i_glide_posenum>  (280) 
16

>  <r_i_glide_eff_state_penalty>  (280) 
0

>  <ligand_id>  (280) 
84

>  <original_smiles>  (280) 
CCn1nnnc1C=C1C2CC3CC(C2)CC1C3

>  <smiles>  (280) 
[H]C(=C1C2([H])C([H])([H])C3([H])C([H])([H])C1([H])C([H])([H])C([H])(C2([H])[H])C3([H])[H])c1nnnn1C([H])([H])C([H])([H])[H]

$$$$
84:0:2
     RDKit          3D

 38 41  0  0  1  0  0  0  0  0999 V2000
    5.9923   -7.6368    1.5508 C   0  0  0  0  0  0  0  0  0  0  0  0
    4.6377   -8.0474    0.9408 C   0  0  0  0  0  0  0  0  0  0  0  0
    3.6064   -7.0642    1.2130 N   0  0  0  0  0  0  0  0  0  0  0  0
    2.5511   -7.3655    2.0119 N   0  0  0  0  0  0  0  0  0  0  0  0
    1.7848   -6.3221    2.0308 N   0  0  0  0  0  0  0  0  0  0  0  0
    2.2998   -5.3177    1.2356 N   0  0  0  0  0  0  0  0  0  0  0  0
    3.4227   -5.8220    0.7408 C   0  0  0  0  0  0  0  0  0  0  0  0
    4.3458   -5.1918   -0.2217 C   0  0  0  0  0  0  0  0  0  0  0  0
    4.1989   -4.0493   -0.9153 C   0  0  0  0  0  0  0  0  0  0  0  0
    5.2755   -3.5626   -1.8836 C   0  0  1  0  0  0  0  0  0  0  0  0
    4.6632   -3.5030   -3.2956 C   0  0  0  0  0  0  0  0  0  0  0  0
    3.4723   -2.5200   -3.3137 C   0  0  2  0  0  0  0  0  0  0  0  0
    3.9297   -1.1135   -2.8633 C   0  0  0  0  0  0  0  0  0  0  0  0
    4.5483   -1.1979   -1.4468 C   0  0  2  0  0  0  0  0  0  0  0  0
    5.7517   -2.1601   -1.4587 C   0  0  0  0  0  0  0  0  0  0  0  0
    3.4979   -1.7208   -0.4500 C   0  0  0  0  0  0  0  0  0  0  0  0
    2.9929   -3.1043   -0.9026 C   0  0  1  0  0  0  0  0  0  0  0  0
    2.4074   -3.0338   -2.3283 C   0  0  0  0  0  0  0  0  0  0  0  0
    6.7492   -8.3919    1.3414 H   0  0  0  0  0  0  0  0  0  0  0  0
    5.9080   -7.5234    2.6352 H   0  0  0  0  0  0  0  0  0  0  0  0
    6.3693   -6.6889    1.1620 H   0  0  0  0  0  0  0  0  0  0  0  0
    4.7028   -8.1697   -0.1423 H   0  0  0  0  0  0  0  0  0  0  0  0
    4.3246   -9.0113    1.3454 H   0  0  0  0  0  0  0  0  0  0  0  0
    5.2607   -5.7299   -0.4031 H   0  0  0  0  0  0  0  0  0  0  0  0
    6.1325   -4.2381   -1.8808 H   0  0  0  0  0  0  0  0  0  0  0  0
    5.4211   -3.1884   -3.9896 H   0  0  0  0  0  0  0  0  0  0  0  0
    4.3472   -4.4964   -3.6135 H   0  0  0  0  0  0  0  0  0  0  0  0
    3.0459   -2.4700   -4.3182 H   0  0  0  0  0  0  0  0  0  0  0  0
    4.6463   -0.7053   -3.5759 H   0  0  0  0  0  0  0  0  0  0  0  0
    3.0781   -0.4324   -2.8562 H   0  0  0  0  0  0  0  0  0  0  0  0
    4.8764   -0.2151   -1.1195 H   0  0  0  0  0  0  0  0  0  0  0  0
    6.2108   -2.1961   -0.4708 H   0  0  0  0  0  0  0  0  0  0  0  0
    6.5161   -1.8140   -2.1494 H   0  0  0  0  0  0  0  0  0  0  0  0
    3.9276   -1.7941    0.5501 H   0  0  0  0  0  0  0  0  0  0  0  0
    2.6785   -1.0138   -0.3653 H   0  0  0  0  0  0  0  0  0  0  0  0
    2.1882   -3.4047   -0.2395 H   0  0  0  0  0  0  0  0  0  0  0  0
    1.5433   -2.3792   -2.3373 H   0  0  0  0  0  0  0  0  0  0  0  0
    2.0430   -4.0104   -2.6399 H   0  0  0  0  0  0  0  0  0  0  0  0
  1  2  1  0
  1 19  1  0
  1 20  1  0
  1 21  1  0
  2  3  1  0
  2 22  1  0
  2 23  1  0
  3  7  1  0
  3  4  1  0
  4  5  2  0
  5  6  1  0
  6  7  2  0
  7  8  1  0
  8  9  2  3
  8 24  1  0
  9 17  1  0
  9 10  1  0
 10 15  1  0
 10 11  1  0
 10 25  1  6
 11 12  1  0
 11 26  1  0
 11 27  1  0
 12 18  1  0
 12 13  1  0
 12 28  1  6
 13 14  1  0
 13 29  1  0
 13 30  1  0
 14 15  1  0
 14 16  1  0
 14 31  1  1
 15 32  1  0
 15 33  1  0
 16 17  1  0
 16 34  1  0
 16 35  1  0
 17 18  1  0
 17 36  1  1
 18 37  1  0
 18 38  1  0
M  END
>  <i_m_ct_stereo_status>  (281) 
1

>  <s_m_source_file>  (281) 
/var/tmp/pbs.5076255.sched01/tmpos3i1bch/920fm1no0n.sdf

>  <i_m_source_file_index>  (281) 
26

>  <i_lp_mmshare_version>  (281) 
48012

>  <i_f3d_flags>  (281) 
0

>  <s_epik_input>  (281) 
W0NIM11bQ0gyXW4xbm5uYzFbQ0hdPUMoW0NAQEhdMjMpW0NASF00W0NIMl1bQ0BASF0oW0NIMl0zKVtDSDJdW0NAQEhdKFtDSDJdMilbQ0gyXTQ=

>  <s_epik_cmdline>  (281) 
J2VwaWtfcHl0aG9uJywgJy1waHQnLCAnMi4wJywgJy1waCcsICc3LjAnLCAnLXRuJywgJzgnLCAnLW1hJywgJzIwMCcsICctaW1hZScsICc8aW5maWxlLm1hZT4nLCAnLW9tYWUnLCAnPG91dGZpbGUubWFlPic=

>  <r_lp_tautomer_probability>  (281) 
1

>  <r_epik_Ionization_Penalty>  (281) 
3.77409e-07

>  <r_epik_Ionization_Penalty_Charging>  (281) 
0

>  <r_epik_Ionization_Penalty_Neutral>  (281) 
3.77409e-07

>  <r_epik_State_Penalty>  (281) 
-0

>  <r_epik_Charging_Adjusted_Penalty>  (281) 
0

>  <i_epik_Tot_Q>  (281) 
0

>  <i_epik_Tot_abs_Q>  (281) 
0

>  <s_lp_Force_Field>  (281) 
OPLS3e

>  <r_lp_Energy>  (281) 
6.722

>  <b_lp_Chiralities_Consistent>  (281) 
1

>  <s_lp_Variant>  (281) 
84:0-1

>  <s_i_glide_gridfile>  (281) 
pfpi4k_grid

>  <i_i_glide_lignum>  (281) 
26

>  <i_i_glide_rotatable_bonds>  (281) 
2

>  <r_i_docking_score>  (281) 
-3.17557

>  <r_i_glide_ligand_efficiency>  (281) 
-0.17642

>  <r_i_glide_ligand_efficiency_sa>  (281) 
-0.462352

>  <r_i_glide_ligand_efficiency_ln>  (281) 
-0.816264

>  <r_i_glide_gscore>  (281) 
-3.17557

>  <r_i_glide_lipo>  (281) 
-0.527083

>  <r_i_glide_hbond>  (281) 
0

>  <r_i_glide_metal>  (281) 
-0

>  <r_i_glide_rewards>  (281) 
-1.84629

>  <r_i_glide_evdw>  (281) 
-19.4058

>  <r_i_glide_ecoul>  (281) 
-0.327954

>  <r_i_glide_erotb>  (281) 
0.291204

>  <r_i_glide_esite>  (281) 
-0.0739162

>  <r_i_glide_emodel>  (281) 
-24.1918

>  <r_i_glide_energy>  (281) 
-19.7338

>  <r_i_glide_einternal>  (281) 
0.562965

>  <r_i_glide_intrahb_reward>  (281) 
-0

>  <i_i_glide_confnum>  (281) 
4

>  <i_i_glide_posenum>  (281) 
33

>  <r_i_glide_eff_state_penalty>  (281) 
0

>  <ligand_id>  (281) 
84

>  <original_smiles>  (281) 
CCn1nnnc1C=C1C2CC3CC(C2)CC1C3

>  <smiles>  (281) 
[H]C(=C1C2([H])C([H])([H])C3([H])C([H])([H])C1([H])C([H])([H])C([H])(C2([H])[H])C3([H])[H])c1nnnn1C([H])([H])C([H])([H])[H]

$$$$
85:0:0
     RDKit          3D

 46 51  0  0  1  0  0  0  0  0999 V2000
    3.2258   -3.3361   -3.7527 C   0  0  0  0  0  0  0  0  0  0  0  0
    3.5029   -2.7223   -2.3817 C   0  0  2  0  0  0  0  0  0  0  0  0
    3.6286   -1.2294   -2.3362 C   0  0  0  0  0  0  0  0  0  0  0  0
    4.8675   -2.0854   -2.1926 C   0  0  1  0  0  0  0  0  0  0  0  0
    5.6618   -2.2640   -0.9043 C   0  0  1  0  0  0  0  0  0  0  0  0
    5.7823   -1.0102    0.0063 C   0  0  0  0  0  0  0  0  0  0  0  0
    5.4714   -1.0294    1.5232 C   0  0  1  0  0  0  0  0  0  0  0  0
    4.0874   -0.5017    1.9505 C   0  0  0  0  0  0  0  0  0  0  0  0
    3.0215   -1.5903    1.8391 C   0  0  2  0  0  0  0  0  0  0  0  0
    3.3930   -2.7693    2.7511 C   0  0  0  0  0  0  0  0  0  0  0  0
    4.6391   -3.3748    2.1209 C   0  0  2  0  0  0  0  0  0  0  0  0
    5.7828   -2.3455    2.2290 C   0  0  0  0  0  0  0  0  0  0  0  0
    4.2980   -3.9005    0.6798 C   0  0  2  0  0  0  0  0  0  0  0  0
    4.0732   -5.3464    0.7800 N   0  0  0  0  0  0  0  0  0  0  0  0
    4.8668   -6.3892    0.5411 C   0  0  0  0  0  0  0  0  0  0  0  0
    4.2953   -7.5333    0.8547 N   0  0  0  0  0  0  0  0  0  0  0  0
    3.0617   -7.1540    1.3339 N   0  0  0  0  0  0  0  0  0  0  0  0
    2.9257   -5.8577    1.3227 N   0  0  0  0  0  0  0  0  0  0  0  0
    5.4813   -3.6595   -0.2968 C   0  0  0  0  0  0  0  0  0  0  0  0
    3.0388   -3.3094    0.1724 N   0  0  0  0  0  0  0  0  0  0  0  0
    3.0380   -1.8862    0.4360 O   0  0  0  0  0  0  0  0  0  0  0  0
    2.7931   -3.5200   -1.2634 C   0  0  1  0  0  0  0  0  0  0  0  0
    1.4085   -3.4545   -1.4309 O   0  0  0  0  0  0  0  0  0  0  0  0
    2.1574   -3.3375   -3.9756 H   0  0  0  0  0  0  0  0  0  0  0  0
    3.6061   -4.3497   -3.8395 H   0  0  0  0  0  0  0  0  0  0  0  0
    3.7370   -2.7814   -4.5353 H   0  0  0  0  0  0  0  0  0  0  0  0
    3.5145   -0.7040   -3.2805 H   0  0  0  0  0  0  0  0  0  0  0  0
    3.2478   -0.7018   -1.4746 H   0  0  0  0  0  0  0  0  0  0  0  0
    5.4925   -2.1557   -3.0768 H   0  0  0  0  0  0  0  0  0  0  0  0
    6.6729   -2.3596   -1.2990 H   0  0  0  0  0  0  0  0  0  0  0  0
    6.8265   -0.7072   -0.0464 H   0  0  0  0  0  0  0  0  0  0  0  0
    5.2317   -0.1925   -0.4468 H   0  0  0  0  0  0  0  0  0  0  0  0
    6.1677   -0.2902    1.9160 H   0  0  0  0  0  0  0  0  0  0  0  0
    4.1422   -0.1545    2.9844 H   0  0  0  0  0  0  0  0  0  0  0  0
    3.8149    0.3621    1.3477 H   0  0  0  0  0  0  0  0  0  0  0  0
    2.0582   -1.1891    2.1465 H   0  0  0  0  0  0  0  0  0  0  0  0
    3.5838   -2.4250    3.7682 H   0  0  0  0  0  0  0  0  0  0  0  0
    2.5829   -3.4962    2.8165 H   0  0  0  0  0  0  0  0  0  0  0  0
    4.9435   -4.2108    2.7398 H   0  0  0  0  0  0  0  0  0  0  0  0
    6.7401   -2.7389    1.9045 H   0  0  0  0  0  0  0  0  0  0  0  0
    5.9160   -2.1043    3.2811 H   0  0  0  0  0  0  0  0  0  0  0  0
    5.8841   -6.3158    0.1686 H   0  0  0  0  0  0  0  0  0  0  0  0
    5.4086   -4.3568   -1.1336 H   0  0  0  0  0  0  0  0  0  0  0  0
    6.4013   -3.9498    0.1992 H   0  0  0  0  0  0  0  0  0  0  0  0
    3.0061   -4.5621   -1.4287 H   0  0  0  0  0  0  0  0  0  0  0  0
    1.1868   -2.5211   -1.4756 H   0  0  0  0  0  0  0  0  0  0  0  0
  2  1  1  6
  1 24  1  0
  1 25  1  0
  1 26  1  0
  2  4  1  0
  2 22  1  0
  2  3  1  0
  3  4  1  0
  3 27  1  0
  3 28  1  0
  4  5  1  0
  4 29  1  6
  5 19  1  0
  5  6  1  0
  5 30  1  6
  6  7  1  0
  6 31  1  0
  6 32  1  0
  7 12  1  0
  7  8  1  0
  7 33  1  1
  8  9  1  0
  8 34  1  0
  8 35  1  0
  9 21  1  0
  9 10  1  0
  9 36  1  1
 10 11  1  0
 10 37  1  0
 10 38  1  0
 11 12  1  0
 11 13  1  0
 11 39  1  1
 12 40  1  0
 12 41  1  0
 13 14  1  1
 13 19  1  0
 13 20  1  0
 14 18  1  0
 14 15  1  0
 15 16  2  0
 15 42  1  0
 16 17  1  0
 17 18  2  0
 19 43  1  0
 19 44  1  0
 20 21  1  0
 20 22  1  0
 22 23  1  0
 22 45  1  6
 23 46  1  0
M  END
>  <i_m_ct_stereo_status>  (282) 
1

>  <s_m_source_file>  (282) 
/var/tmp/pbs.5076255.sched01/tmpos3i1bch/920fm1no0n.sdf

>  <i_m_source_file_index>  (282) 
27

>  <i_lp_mmshare_version>  (282) 
48012

>  <i_f3d_flags>  (282) 
0

>  <s_epik_input>  (282) 
W0NIM11bQ0BAXTEyW0NAQEhdKFtDSDJdMSlbQ0BIXTNbQ0gyXVtDQEhdNFtDSDJdW0NAQEhdNVtDSDJdW0NASF0oW0NIMl00KVtDQF0oW0NIMl0zKShOKE81KVtDQEhdMltPSF0pbjZbY0hdbm5uNg==

>  <s_epik_cmdline>  (282) 
J2VwaWtfcHl0aG9uJywgJy1waHQnLCAnMi4wJywgJy1waCcsICc3LjAnLCAnLXRuJywgJzgnLCAnLW1hJywgJzIwMCcsICctaW1hZScsICc8aW5maWxlLm1hZT4nLCAnLW9tYWUnLCAnPG91dGZpbGUubWFlPic=

>  <r_lp_tautomer_probability>  (282) 
1

>  <r_epik_Ionization_Penalty>  (282) 
0.000194287

>  <r_epik_Ionization_Penalty_Charging>  (282) 
0

>  <r_epik_Ionization_Penalty_Neutral>  (282) 
0.000194287

>  <r_epik_State_Penalty>  (282) 
-0

>  <r_epik_Charging_Adjusted_Penalty>  (282) 
0

>  <i_epik_Tot_Q>  (282) 
0

>  <i_epik_Tot_abs_Q>  (282) 
0

>  <s_epik_Chemistry_Notes>  (282) 
This compound contains an acetal/aminal-like group ( X-CH(R)-Y where X, Y are N, S, or O) that may be acid/base labile, releasing an aldehyde. This compound has a N-S or N-O group and may undergo hydrolysis at high or low pH.

>  <s_lp_Force_Field>  (282) 
OPLS3e

>  <r_lp_Energy>  (282) 
61.4

>  <b_lp_Chiralities_Consistent>  (282) 
1

>  <s_lp_Variant>  (282) 
85:0-1

>  <s_i_glide_gridfile>  (282) 
pfpi4k_grid

>  <i_i_glide_lignum>  (282) 
27

>  <i_i_glide_rotatable_bonds>  (282) 
2

>  <r_i_docking_score>  (282) 
-3.65937

>  <r_i_glide_ligand_efficiency>  (282) 
-0.159103

>  <r_i_glide_ligand_efficiency_sa>  (282) 
-0.452468

>  <r_i_glide_ligand_efficiency_ln>  (282) 
-0.884869

>  <r_i_glide_gscore>  (282) 
-3.65937

>  <r_i_glide_lipo>  (282) 
-0.483119

>  <r_i_glide_hbond>  (282) 
0

>  <r_i_glide_metal>  (282) 
-0

>  <r_i_glide_rewards>  (282) 
-1.5907

>  <r_i_glide_evdw>  (282) 
-23.5916

>  <r_i_glide_ecoul>  (282) 
-3.0368

>  <r_i_glide_erotb>  (282) 
0.129461

>  <r_i_glide_esite>  (282) 
-0.0799105

>  <r_i_glide_emodel>  (282) 
-32.0454

>  <r_i_glide_energy>  (282) 
-26.6284

>  <r_i_glide_einternal>  (282) 
2.34635

>  <r_i_glide_intrahb_reward>  (282) 
-0

>  <i_i_glide_confnum>  (282) 
2

>  <i_i_glide_posenum>  (282) 
1

>  <r_i_glide_eff_state_penalty>  (282) 
0

>  <ligand_id>  (282) 
85

>  <original_smiles>  (282) 
CC12CC1C1CC3CC4CC(C3)C(n3cnnn3)(C1)N(O4)C2O

>  <smiles>  (282) 
[H]OC1([H])N2OC3([H])C([H])([H])C4([H])C([H])([H])C([H])(C3([H])[H])C2(n2nnnc2[H])C([H])([H])C([H])(C4([H])[H])C2([H])C([H])([H])C12C([H])([H])[H]

$$$$
85:0:1
     RDKit          3D

 46 51  0  0  1  0  0  0  0  0999 V2000
    4.2210   -3.3290   -3.1169 C   0  0  0  0  0  0  0  0  0  0  0  0
    4.0803   -2.7195   -1.7248 C   0  0  2  0  0  0  0  0  0  0  0  0
    4.1931   -1.2244   -1.6198 C   0  0  0  0  0  0  0  0  0  0  0  0
    5.3435   -2.0840   -1.1468 C   0  0  1  0  0  0  0  0  0  0  0  0
    5.7498   -2.2680    0.3099 C   0  0  1  0  0  0  0  0  0  0  0  0
    5.6116   -1.0182    1.2320 C   0  0  0  0  0  0  0  0  0  0  0  0
    4.8851   -1.0813    2.6084 C   0  0  1  0  0  0  0  0  0  0  0  0
    3.4287   -0.5715    2.6314 C   0  0  0  0  0  0  0  0  0  0  0  0
    2.4374   -1.6625    2.2080 C   0  0  2  0  0  0  0  0  0  0  0  0
    2.5440   -2.8535    3.1680 C   0  0  0  0  0  0  0  0  0  0  0  0
    3.9263   -3.4411    2.9126 C   0  0  2  0  0  0  0  0  0  0  0  0
    4.9879   -2.4101    3.3670 C   0  0  0  0  0  0  0  0  0  0  0  0
    4.0224   -3.9474    1.4292 C   0  0  2  0  0  0  0  0  0  0  0  0
    3.7708   -5.3978    1.4309 N   0  0  0  0  0  0  0  0  0  0  0  0
    4.5735   -6.4507    1.2397 C   0  0  0  0  0  0  0  0  0  0  0  0
    3.9305   -7.5933    1.3733 N   0  0  0  0  0  0  0  0  0  0  0  0
    2.6448   -7.2050    1.6954 N   0  0  0  0  0  0  0  0  0  0  0  0
    2.5477   -5.9169    1.7382 N   0  0  0  0  0  0  0  0  0  0  0  0
    5.4240   -3.6780    0.8257 C   0  0  0  0  0  0  0  0  0  0  0  0
    2.9511   -3.3715    0.5831 N   0  0  0  0  0  0  0  0  0  0  0  0
    2.8021   -1.9458    0.8503 O   0  0  0  0  0  0  0  0  0  0  0  0
    3.0857   -3.5573   -0.8784 C   0  0  1  0  0  0  0  0  0  0  0  0
    1.7657   -3.4562   -1.3527 O   0  0  0  0  0  0  0  0  0  0  0  0
    3.2713   -3.3029   -3.6495 H   0  0  0  0  0  0  0  0  0  0  0  0
    4.5673   -4.3608   -3.0641 H   0  0  0  0  0  0  0  0  0  0  0  0
    4.9515   -2.7805   -3.7123 H   0  0  0  0  0  0  0  0  0  0  0  0
    4.3593   -0.6724   -2.5408 H   0  0  0  0  0  0  0  0  0  0  0  0
    3.5969   -0.7016   -0.8844 H   0  0  0  0  0  0  0  0  0  0  0  0
    6.2061   -2.1068   -1.8127 H   0  0  0  0  0  0  0  0  0  0  0  0
    6.8327   -2.3565    0.2177 H   0  0  0  0  0  0  0  0  0  0  0  0
    6.6364   -0.7221    1.4599 H   0  0  0  0  0  0  0  0  0  0  0  0
    5.2310   -0.1696    0.6636 H   0  0  0  0  0  0  0  0  0  0  0  0
    5.4371   -0.3490    3.2004 H   0  0  0  0  0  0  0  0  0  0  0  0
    3.1882   -0.2504    3.6464 H   0  0  0  0  0  0  0  0  0  0  0  0
    3.3274    0.3086    2.0011 H   0  0  0  0  0  0  0  0  0  0  0  0
    1.4249   -1.2595    2.2522 H   0  0  0  0  0  0  0  0  0  0  0  0
    2.4354   -2.5310    4.2024 H   0  0  0  0  0  0  0  0  0  0  0  0
    1.7511   -3.5811    2.9862 H   0  0  0  0  0  0  0  0  0  0  0  0
    4.0461   -4.2912    3.5763 H   0  0  0  0  0  0  0  0  0  0  0  0
    5.9921   -2.8042    3.3084 H   0  0  0  0  0  0  0  0  0  0  0  0
    4.8386   -2.2023    4.4243 H   0  0  0  0  0  0  0  0  0  0  0  0
    5.6340   -6.3936    1.0263 H   0  0  0  0  0  0  0  0  0  0  0  0
    5.5961   -4.3442   -0.0193 H   0  0  0  0  0  0  0  0  0  0  0  0
    6.1707   -3.9852    1.5520 H   0  0  0  0  0  0  0  0  0  0  0  0
    3.3567   -4.5990   -1.0487 H   0  0  0  0  0  0  0  0  0  0  0  0
    1.5542   -2.5145   -1.4318 H   0  0  0  0  0  0  0  0  0  0  0  0
  2  1  1  6
  1 24  1  0
  1 25  1  0
  1 26  1  0
  2  4  1  0
  2 22  1  0
  2  3  1  0
  3  4  1  0
  3 27  1  0
  3 28  1  0
  4  5  1  0
  4 29  1  6
  5 19  1  0
  5  6  1  0
  5 30  1  6
  6  7  1  0
  6 31  1  0
  6 32  1  0
  7 12  1  0
  7  8  1  0
  7 33  1  1
  8  9  1  0
  8 34  1  0
  8 35  1  0
  9 21  1  0
  9 10  1  0
  9 36  1  6
 10 11  1  0
 10 37  1  0
 10 38  1  0
 11 12  1  0
 11 13  1  0
 11 39  1  1
 12 40  1  0
 12 41  1  0
 13 14  1  1
 13 19  1  0
 13 20  1  0
 14 18  1  0
 14 15  1  0
 15 16  2  0
 15 42  1  0
 16 17  1  0
 17 18  2  0
 19 43  1  0
 19 44  1  0
 20 21  1  0
 20 22  1  0
 22 23  1  0
 22 45  1  1
 23 46  1  0
M  END
>  <i_m_ct_stereo_status>  (283) 
1

>  <s_m_source_file>  (283) 
/var/tmp/pbs.5076255.sched01/tmpos3i1bch/920fm1no0n.sdf

>  <i_m_source_file_index>  (283) 
27

>  <i_lp_mmshare_version>  (283) 
48012

>  <i_f3d_flags>  (283) 
0

>  <s_epik_input>  (283) 
W0NIM11bQ0BAXTEyW0NAQEhdKFtDSDJdMSlbQ0BIXTNbQ0gyXVtDQEhdNFtDSDJdW0NAQEhdNVtDSDJdW0NASF0oW0NIMl00KVtDQF0oW0NIMl0zKShOKE81KVtDQEhdMltPSF0pbjZbY0hdbm5uNg==

>  <s_epik_cmdline>  (283) 
J2VwaWtfcHl0aG9uJywgJy1waHQnLCAnMi4wJywgJy1waCcsICc3LjAnLCAnLXRuJywgJzgnLCAnLW1hJywgJzIwMCcsICctaW1hZScsICc8aW5maWxlLm1hZT4nLCAnLW9tYWUnLCAnPG91dGZpbGUubWFlPic=

>  <r_lp_tautomer_probability>  (283) 
1

>  <r_epik_Ionization_Penalty>  (283) 
0.000194287

>  <r_epik_Ionization_Penalty_Charging>  (283) 
0

>  <r_epik_Ionization_Penalty_Neutral>  (283) 
0.000194287

>  <r_epik_State_Penalty>  (283) 
-0

>  <r_epik_Charging_Adjusted_Penalty>  (283) 
0

>  <i_epik_Tot_Q>  (283) 
0

>  <i_epik_Tot_abs_Q>  (283) 
0

>  <s_epik_Chemistry_Notes>  (283) 
This compound contains an acetal/aminal-like group ( X-CH(R)-Y where X, Y are N, S, or O) that may be acid/base labile, releasing an aldehyde. This compound has a N-S or N-O group and may undergo hydrolysis at high or low pH.

>  <s_lp_Force_Field>  (283) 
OPLS3e

>  <r_lp_Energy>  (283) 
61.4

>  <b_lp_Chiralities_Consistent>  (283) 
1

>  <s_lp_Variant>  (283) 
85:0-1

>  <s_i_glide_gridfile>  (283) 
pfpi4k_grid

>  <i_i_glide_lignum>  (283) 
27

>  <i_i_glide_rotatable_bonds>  (283) 
2

>  <r_i_docking_score>  (283) 
-3.49265

>  <r_i_glide_ligand_efficiency>  (283) 
-0.151854

>  <r_i_glide_ligand_efficiency_sa>  (283) 
-0.431854

>  <r_i_glide_ligand_efficiency_ln>  (283) 
-0.844555

>  <r_i_glide_gscore>  (283) 
-3.49265

>  <r_i_glide_lipo>  (283) 
-0.436075

>  <r_i_glide_hbond>  (283) 
0

>  <r_i_glide_metal>  (283) 
-0

>  <r_i_glide_rewards>  (283) 
-1.45974

>  <r_i_glide_evdw>  (283) 
-26.3527

>  <r_i_glide_ecoul>  (283) 
-2.18343

>  <r_i_glide_erotb>  (283) 
0.129461

>  <r_i_glide_esite>  (283) 
-0.0811528

>  <r_i_glide_emodel>  (283) 
-33.686

>  <r_i_glide_energy>  (283) 
-28.5361

>  <r_i_glide_einternal>  (283) 
2.4096

>  <r_i_glide_intrahb_reward>  (283) 
-0

>  <i_i_glide_confnum>  (283) 
2

>  <i_i_glide_posenum>  (283) 
32

>  <r_i_glide_eff_state_penalty>  (283) 
0

>  <ligand_id>  (283) 
85

>  <original_smiles>  (283) 
CC12CC1C1CC3CC4CC(C3)C(n3cnnn3)(C1)N(O4)C2O

>  <smiles>  (283) 
[H]OC1([H])N2OC3([H])C([H])([H])C4([H])C([H])([H])C([H])(C3([H])[H])C2(n2nnnc2[H])C([H])([H])C([H])(C4([H])[H])C2([H])C([H])([H])C12C([H])([H])[H]

$$$$
85:0:2
     RDKit          3D

 46 51  0  0  1  0  0  0  0  0999 V2000
    3.0580   -3.3091   -3.8122 C   0  0  0  0  0  0  0  0  0  0  0  0
    3.4029   -2.7293   -2.4398 C   0  0  2  0  0  0  0  0  0  0  0  0
    3.5475   -1.2395   -2.3577 C   0  0  0  0  0  0  0  0  0  0  0  0
    4.7796   -2.1174   -2.2814 C   0  0  1  0  0  0  0  0  0  0  0  0
    5.6088   -2.3436   -1.0272 C   0  0  1  0  0  0  0  0  0  0  0  0
    5.7744   -1.1042   -0.0951 C   0  0  0  0  0  0  0  0  0  0  0  0
    5.5165   -1.1658    1.4321 C   0  0  1  0  0  0  0  0  0  0  0  0
    4.1578   -0.6387    1.9297 C   0  0  0  0  0  0  0  0  0  0  0  0
    3.0730   -1.7134    1.8322 C   0  0  2  0  0  0  0  0  0  0  0  0
    3.4641   -2.9167    2.6989 C   0  0  0  0  0  0  0  0  0  0  0  0
    4.6768   -3.5158    2.0015 C   0  0  2  0  0  0  0  0  0  0  0  0
    5.8349   -2.5040    2.0898 C   0  0  0  0  0  0  0  0  0  0  0  0
    4.2853   -4.0050    0.5663 C   0  0  2  0  0  0  0  0  0  0  0  0
    4.0167   -5.4418    0.6971 N   0  0  0  0  0  0  0  0  0  0  0  0
    2.9594   -6.0879    1.2067 C   0  0  0  0  0  0  0  0  0  0  0  0
    3.1692   -7.3840    1.2850 N   0  0  0  0  0  0  0  0  0  0  0  0
    4.4601   -7.5311    0.8284 N   0  0  0  0  0  0  0  0  0  0  0  0
    4.9772   -6.3801    0.5022 N   0  0  0  0  0  0  0  0  0  0  0  0
    5.4328   -3.7624   -0.4496 C   0  0  0  0  0  0  0  0  0  0  0  0
    3.0052   -3.3949    0.1147 N   0  0  0  0  0  0  0  0  0  0  0  0
    3.0213   -1.9781    0.4246 O   0  0  0  0  0  0  0  0  0  0  0  0
    2.7051   -3.5439   -1.3261 C   0  0  1  0  0  0  0  0  0  0  0  0
    1.3177   -3.4569   -1.4848 O   0  0  0  0  0  0  0  0  0  0  0  0
    1.9839   -3.2756   -4.0056 H   0  0  0  0  0  0  0  0  0  0  0  0
    3.3877   -4.3391   -3.9177 H   0  0  0  0  0  0  0  0  0  0  0  0
    3.5577   -2.7586   -4.6040 H   0  0  0  0  0  0  0  0  0  0  0  0
    3.4029   -0.6847   -3.2807 H   0  0  0  0  0  0  0  0  0  0  0  0
    3.2041   -0.7364   -1.4644 H   0  0  0  0  0  0  0  0  0  0  0  0
    5.3802   -2.1573   -3.1852 H   0  0  0  0  0  0  0  0  0  0  0  0
    6.6033   -2.4431   -1.4591 H   0  0  0  0  0  0  0  0  0  0  0  0
    6.8236   -0.8293   -0.1768 H   0  0  0  0  0  0  0  0  0  0  0  0
    5.2419   -0.2548   -0.5091 H   0  0  0  0  0  0  0  0  0  0  0  0
    6.2362   -0.4529    1.8304 H   0  0  0  0  0  0  0  0  0  0  0  0
    4.2639   -0.3257    2.9718 H   0  0  0  0  0  0  0  0  0  0  0  0
    3.8774    0.2488    1.3687 H   0  0  0  0  0  0  0  0  0  0  0  0
    2.1337   -1.3038    2.1960 H   0  0  0  0  0  0  0  0  0  0  0  0
    3.7001   -2.6075    3.7184 H   0  0  0  0  0  0  0  0  0  0  0  0
    2.6479   -3.6356    2.7756 H   0  0  0  0  0  0  0  0  0  0  0  0
    5.0079   -4.3612    2.5964 H   0  0  0  0  0  0  0  0  0  0  0  0
    6.7764   -2.9041    1.7226 H   0  0  0  0  0  0  0  0  0  0  0  0
    6.0139   -2.3010    3.1439 H   0  0  0  0  0  0  0  0  0  0  0  0
    2.0495   -5.6062    1.5506 H   0  0  0  0  0  0  0  0  0  0  0  0
    5.3216   -4.4535   -1.2874 H   0  0  0  0  0  0  0  0  0  0  0  0
    6.3698   -4.0781    0.0024 H   0  0  0  0  0  0  0  0  0  0  0  0
    2.9053   -4.5835   -1.5244 H   0  0  0  0  0  0  0  0  0  0  0  0
    1.1053   -2.5204   -1.4757 H   0  0  0  0  0  0  0  0  0  0  0  0
  2  1  1  6
  1 24  1  0
  1 25  1  0
  1 26  1  0
  2  4  1  0
  2 22  1  0
  2  3  1  0
  3  4  1  0
  3 27  1  0
  3 28  1  0
  4  5  1  0
  4 29  1  6
  5 19  1  0
  5  6  1  0
  5 30  1  6
  6  7  1  0
  6 31  1  0
  6 32  1  0
  7 12  1  0
  7  8  1  0
  7 33  1  1
  8  9  1  0
  8 34  1  0
  8 35  1  0
  9 21  1  0
  9 10  1  0
  9 36  1  1
 10 11  1  0
 10 37  1  0
 10 38  1  0
 11 12  1  0
 11 13  1  0
 11 39  1  1
 12 40  1  0
 12 41  1  0
 13 14  1  1
 13 19  1  0
 13 20  1  0
 14 18  1  0
 14 15  1  0
 15 16  2  0
 15 42  1  0
 16 17  1  0
 17 18  2  0
 19 43  1  0
 19 44  1  0
 20 21  1  0
 20 22  1  0
 22 23  1  0
 22 45  1  6
 23 46  1  0
M  END
>  <i_m_ct_stereo_status>  (284) 
1

>  <s_m_source_file>  (284) 
/var/tmp/pbs.5076255.sched01/tmpos3i1bch/920fm1no0n.sdf

>  <i_m_source_file_index>  (284) 
27

>  <i_lp_mmshare_version>  (284) 
48012

>  <i_f3d_flags>  (284) 
0

>  <s_epik_input>  (284) 
W0NIM11bQ0BAXTEyW0NAQEhdKFtDSDJdMSlbQ0BIXTNbQ0gyXVtDQEhdNFtDSDJdW0NAQEhdNVtDSDJdW0NASF0oW0NIMl00KVtDQF0oW0NIMl0zKShOKE81KVtDQEhdMltPSF0pbjZbY0hdbm5uNg==

>  <s_epik_cmdline>  (284) 
J2VwaWtfcHl0aG9uJywgJy1waHQnLCAnMi4wJywgJy1waCcsICc3LjAnLCAnLXRuJywgJzgnLCAnLW1hJywgJzIwMCcsICctaW1hZScsICc8aW5maWxlLm1hZT4nLCAnLW9tYWUnLCAnPG91dGZpbGUubWFlPic=

>  <r_lp_tautomer_probability>  (284) 
1

>  <r_epik_Ionization_Penalty>  (284) 
0.000194287

>  <r_epik_Ionization_Penalty_Charging>  (284) 
0

>  <r_epik_Ionization_Penalty_Neutral>  (284) 
0.000194287

>  <r_epik_State_Penalty>  (284) 
-0

>  <r_epik_Charging_Adjusted_Penalty>  (284) 
0

>  <i_epik_Tot_Q>  (284) 
0

>  <i_epik_Tot_abs_Q>  (284) 
0

>  <s_epik_Chemistry_Notes>  (284) 
This compound contains an acetal/aminal-like group ( X-CH(R)-Y where X, Y are N, S, or O) that may be acid/base labile, releasing an aldehyde. This compound has a N-S or N-O group and may undergo hydrolysis at high or low pH.

>  <s_lp_Force_Field>  (284) 
OPLS3e

>  <r_lp_Energy>  (284) 
61.4

>  <b_lp_Chiralities_Consistent>  (284) 
1

>  <s_lp_Variant>  (284) 
85:0-1

>  <s_i_glide_gridfile>  (284) 
pfpi4k_grid

>  <i_i_glide_lignum>  (284) 
27

>  <i_i_glide_rotatable_bonds>  (284) 
2

>  <r_i_docking_score>  (284) 
-3.48177

>  <r_i_glide_ligand_efficiency>  (284) 
-0.151381

>  <r_i_glide_ligand_efficiency_sa>  (284) 
-0.430508

>  <r_i_glide_ligand_efficiency_ln>  (284) 
-0.841924

>  <r_i_glide_gscore>  (284) 
-3.48177

>  <r_i_glide_lipo>  (284) 
-0.491399

>  <r_i_glide_hbond>  (284) 
0

>  <r_i_glide_metal>  (284) 
-0

>  <r_i_glide_rewards>  (284) 
-1.3988

>  <r_i_glide_evdw>  (284) 
-23.1123

>  <r_i_glide_ecoul>  (284) 
-3.27114

>  <r_i_glide_erotb>  (284) 
0.129461

>  <r_i_glide_esite>  (284) 
-0.0747468

>  <r_i_glide_emodel>  (284) 
-32.1647

>  <r_i_glide_energy>  (284) 
-26.3834

>  <r_i_glide_einternal>  (284) 
0.670941

>  <r_i_glide_intrahb_reward>  (284) 
-0

>  <i_i_glide_confnum>  (284) 
2

>  <i_i_glide_posenum>  (284) 
36

>  <r_i_glide_eff_state_penalty>  (284) 
0

>  <ligand_id>  (284) 
85

>  <original_smiles>  (284) 
CC12CC1C1CC3CC4CC(C3)C(n3cnnn3)(C1)N(O4)C2O

>  <smiles>  (284) 
[H]OC1([H])N2OC3([H])C([H])([H])C4([H])C([H])([H])C([H])(C3([H])[H])C2(n2nnnc2[H])C([H])([H])C([H])(C4([H])[H])C2([H])C([H])([H])C12C([H])([H])[H]

$$$$
86:0:0
     RDKit          3D

 75 80  0  0  1  0  0  0  0  0999 V2000
   -1.8898   -8.8534    2.5530 C   0  0  0  0  0  0  0  0  0  0  0  0
   -0.4633   -8.9450    3.0768 C   0  0  2  0  0  0  0  0  0  0  0  0
   -0.5885   -8.8828    4.4727 O   0  0  0  0  0  0  0  0  0  0  0  0
    0.5264   -7.9511    2.3804 C   0  0  2  0  0  0  0  0  0  0  0  0
    1.9784   -7.8867    2.8550 C   0  0  0  0  0  0  0  0  0  0  0  0
    2.0903   -6.5879    3.6901 C   0  0  1  0  0  0  0  0  0  0  0  0
    0.7994   -5.8316    3.3207 C   0  0  2  0  0  0  0  0  0  0  0  0
    0.0218   -5.6278    4.4638 O   0  0  0  0  0  0  0  0  0  0  0  0
    0.5212   -6.2350    5.5219 C   0  0  0  0  0  0  0  0  0  0  0  0
    0.0063   -6.2136    6.6548 O   0  0  0  0  0  0  0  0  0  0  0  0
    1.8009   -6.9625    5.1770 C   0  0  2  0  0  0  0  0  0  0  0  0
    2.9423   -6.8888    6.2305 C   0  0  2  0  0  0  0  0  0  0  0  0
    3.2202   -8.3539    6.6162 C   0  0  0  0  0  0  0  0  0  0  0  0
    2.7854   -5.9983    7.5092 C   0  0  0  0  0  0  0  0  0  0  0  0
    4.1744   -5.4107    7.2056 C   0  0  0  0  0  0  0  0  0  0  0  0
    5.0091   -4.7526    7.8500 O   0  0  0  0  0  0  0  0  0  0  0  0
    4.1800   -6.0370    5.7971 C   0  0  1  0  0  0  0  0  0  0  0  0
    5.5095   -6.8083    5.6627 C   0  0  0  0  0  0  0  0  0  0  0  0
    3.9405   -4.9705    4.6501 C   0  0  1  0  0  0  0  0  0  0  0  0
    2.9464   -3.8490    5.0599 C   0  0  0  0  0  0  0  0  0  0  0  0
    5.2677   -4.2828    4.2879 C   0  0  0  0  0  0  0  0  0  0  0  0
    5.1436   -3.2343    3.1861 C   0  0  0  0  0  0  0  0  0  0  0  0
    4.1748   -3.5365    2.0188 C   0  0  1  0  0  0  0  0  0  0  0  0
    4.7466   -2.8673    0.6956 C   0  0  0  0  0  0  0  0  0  0  0  0
    3.6819   -2.6397   -0.4045 C   0  0  0  0  0  0  0  0  0  0  0  0
    5.2979   -1.4400    0.9636 C   0  0  0  0  0  0  0  0  0  0  0  0
    5.9027   -3.7499    0.1568 C   0  0  0  0  0  0  0  0  0  0  0  0
    5.5120   -5.2187   -0.0048 C   0  0  0  0  0  0  0  0  0  0  0  0
    4.9354   -5.8408    1.2787 C   0  0  0  0  0  0  0  0  0  0  0  0
    3.7403   -5.0607    1.9295 C   0  0  2  0  0  0  0  0  0  0  0  0
    2.5558   -5.1759    0.9340 C   0  0  0  0  0  0  0  0  0  0  0  0
    3.4037   -5.7161    3.3835 C   0  0  2  0  0  0  0  0  0  0  0  0
    0.0865   -6.5966    2.3809 O   0  0  0  0  0  0  0  0  0  0  0  0
   -1.9794   -9.1831    1.5179 H   0  0  0  0  0  0  0  0  0  0  0  0
   -2.2561   -7.8376    2.6262 H   0  0  0  0  0  0  0  0  0  0  0  0
   -2.5519   -9.4723    3.1549 H   0  0  0  0  0  0  0  0  0  0  0  0
   -0.0879   -9.9482    2.8730 H   0  0  0  0  0  0  0  0  0  0  0  0
   -1.1117   -9.6498    4.7704 H   0  0  0  0  0  0  0  0  0  0  0  0
    0.5295   -8.2453    1.3272 H   0  0  0  0  0  0  0  0  0  0  0  0
    2.2704   -8.7944    3.3952 H   0  0  0  0  0  0  0  0  0  0  0  0
    2.6533   -7.8783    2.0092 H   0  0  0  0  0  0  0  0  0  0  0  0
    0.9996   -4.8314    2.9161 H   0  0  0  0  0  0  0  0  0  0  0  0
    1.4800   -7.9996    5.1771 H   0  0  0  0  0  0  0  0  0  0  0  0
    3.9481   -8.4318    7.4254 H   0  0  0  0  0  0  0  0  0  0  0  0
    3.6017   -8.9265    5.7662 H   0  0  0  0  0  0  0  0  0  0  0  0
    2.3256   -8.8697    6.9767 H   0  0  0  0  0  0  0  0  0  0  0  0
    1.9803   -5.2641    7.4958 H   0  0  0  0  0  0  0  0  0  0  0  0
    2.6957   -6.6085    8.4080 H   0  0  0  0  0  0  0  0  0  0  0  0
    5.5308   -7.4342    4.7685 H   0  0  0  0  0  0  0  0  0  0  0  0
    5.6883   -7.4734    6.5087 H   0  0  0  0  0  0  0  0  0  0  0  0
    6.3817   -6.1603    5.6554 H   0  0  0  0  0  0  0  0  0  0  0  0
    2.5076   -3.3691    4.1820 H   0  0  0  0  0  0  0  0  0  0  0  0
    3.4427   -3.0760    5.6512 H   0  0  0  0  0  0  0  0  0  0  0  0
    2.1006   -4.1866    5.6511 H   0  0  0  0  0  0  0  0  0  0  0  0
    5.7201   -3.8438    5.1762 H   0  0  0  0  0  0  0  0  0  0  0  0
    5.9782   -5.0147    3.9212 H   0  0  0  0  0  0  0  0  0  0  0  0
    4.8330   -2.3011    3.6445 H   0  0  0  0  0  0  0  0  0  0  0  0
    6.1567   -3.0767    2.8251 H   0  0  0  0  0  0  0  0  0  0  0  0
    3.2649   -2.9767    2.2424 H   0  0  0  0  0  0  0  0  0  0  0  0
    3.9251   -1.7876   -1.0417 H   0  0  0  0  0  0  0  0  0  0  0  0
    2.6971   -2.4373    0.0266 H   0  0  0  0  0  0  0  0  0  0  0  0
    3.6030   -3.4787   -1.0934 H   0  0  0  0  0  0  0  0  0  0  0  0
    5.5700   -0.9440    0.0319 H   0  0  0  0  0  0  0  0  0  0  0  0
    6.2092   -1.4197    1.5585 H   0  0  0  0  0  0  0  0  0  0  0  0
    4.5469   -0.8219    1.4654 H   0  0  0  0  0  0  0  0  0  0  0  0
    6.2522   -3.3572   -0.7949 H   0  0  0  0  0  0  0  0  0  0  0  0
    6.7629   -3.7035    0.8208 H   0  0  0  0  0  0  0  0  0  0  0  0
    4.8362   -5.3409   -0.8453 H   0  0  0  0  0  0  0  0  0  0  0  0
    6.4008   -5.7885   -0.2776 H   0  0  0  0  0  0  0  0  0  0  0  0
    4.6261   -6.8555    1.0438 H   0  0  0  0  0  0  0  0  0  0  0  0
    5.7563   -5.9465    1.9794 H   0  0  0  0  0  0  0  0  0  0  0  0
    2.0293   -6.1175    0.9643 H   0  0  0  0  0  0  0  0  0  0  0  0
    2.8576   -5.1301   -0.1064 H   0  0  0  0  0  0  0  0  0  0  0  0
    1.8390   -4.3653    1.0851 H   0  0  0  0  0  0  0  0  0  0  0  0
    4.1016   -6.5431    3.3557 H   0  0  0  0  0  0  0  0  0  0  0  0
  1  2  1  0
  1 34  1  0
  1 35  1  0
  1 36  1  0
  2  3  1  0
  2  4  1  0
  2 37  1  1
  3 38  1  0
  4 33  1  0
  4  5  1  0
  4 39  1  6
  6  5  1  6
  5 40  1  0
  5 41  1  0
  6 11  1  0
  6 32  1  0
  6  7  1  0
  7  8  1  0
  7 33  1  0
  7 42  1  6
  8  9  1  0
  9 10  2  0
  9 11  1  0
 11 12  1  0
 11 43  1  6
 12 17  1  0
 12 13  1  1
 12 14  1  0
 13 44  1  0
 13 45  1  0
 13 46  1  0
 14 15  1  0
 14 47  1  0
 14 48  1  0
 15 16  2  0
 15 17  1  0
 17 18  1  6
 17 19  1  0
 18 49  1  0
 18 50  1  0
 18 51  1  0
 19 32  1  0
 19 20  1  1
 19 21  1  0
 20 52  1  0
 20 53  1  0
 20 54  1  0
 21 22  1  0
 21 55  1  0
 21 56  1  0
 22 23  1  0
 22 57  1  0
 22 58  1  0
 23 30  1  0
 23 24  1  0
 23 59  1  1
 24 25  1  0
 24 26  1  0
 24 27  1  0
 25 60  1  0
 25 61  1  0
 25 62  1  0
 26 63  1  0
 26 64  1  0
 26 65  1  0
 27 28  1  0
 27 66  1  0
 27 67  1  0
 28 29  1  0
 28 68  1  0
 28 69  1  0
 29 30  1  0
 29 70  1  0
 29 71  1  0
 30 31  1  6
 30 32  1  0
 31 72  1  0
 31 73  1  0
 31 74  1  0
 32 75  1  6
M  END
>  <i_m_ct_stereo_status>  (285) 
1

>  <s_m_source_file>  (285) 
/var/tmp/pbs.5076255.sched01/tmpos3i1bch/920fm1no0n.sdf

>  <i_m_source_file_index>  (285) 
28

>  <i_lp_mmshare_version>  (285) 
48012

>  <i_f3d_flags>  (285) 
0

>  <s_epik_input>  (285) 
W0NIM11bQ0BIXShbT0hdKVtDQEhdKFtDSDJdMSlPW0NASF0oW0NAXTEyMylPQyg9TylbQ0BASF0yW0NAQF00KFtDSDNdKVtDQF0oW0NIM10pKEMoPU8pW0NIMl00KVtDQF01KFtDSDNdKVtDQEBIXTNbQ0BAXTYoW0NIM10pW0NAQEhdKFtDSDJdW0NIMl01KUMoW0NIM10pKFtDSDNdKVtDSDJdW0NIMl1bQ0gyXTY=

>  <s_epik_cmdline>  (285) 
J2VwaWtfcHl0aG9uJywgJy1waHQnLCAnMi4wJywgJy1waCcsICc3LjAnLCAnLXRuJywgJzgnLCAnLW1hJywgJzIwMCcsICctaW1hZScsICc8aW5maWxlLm1hZT4nLCAnLW9tYWUnLCAnPG91dGZpbGUubWFlPic=

>  <r_lp_tautomer_probability>  (285) 
1

>  <r_epik_Ionization_Penalty>  (285) 
5.67854e-08

>  <r_epik_Ionization_Penalty_Charging>  (285) 
0

>  <r_epik_Ionization_Penalty_Neutral>  (285) 
5.67854e-08

>  <r_epik_State_Penalty>  (285) 
-0

>  <r_epik_Charging_Adjusted_Penalty>  (285) 
0

>  <i_epik_Tot_Q>  (285) 
0

>  <i_epik_Tot_abs_Q>  (285) 
0

>  <s_epik_Chemistry_Notes>  (285) 
This compound has an ester and may undergo hydrolysis at high or low pH. This compound contains an acetal/aminal-like group ( X-CH(R)-Y where X, Y are N, S, or O) that may be acid/base labile, releasing an aldehyde.

>  <s_lp_Force_Field>  (285) 
OPLS3e

>  <r_lp_Energy>  (285) 
84.8253

>  <b_lp_Chiralities_Consistent>  (285) 
1

>  <s_lp_Variant>  (285) 
86:0-1

>  <s_i_glide_gridfile>  (285) 
pfpi4k_grid

>  <i_i_glide_lignum>  (285) 
28

>  <i_i_glide_rotatable_bonds>  (285) 
2

>  <r_i_docking_score>  (285) 
-3.02769

>  <r_i_glide_ligand_efficiency>  (285) 
-0.0917483

>  <r_i_glide_ligand_efficiency_sa>  (285) 
-0.294286

>  <r_i_glide_ligand_efficiency_ln>  (285) 
-0.673343

>  <r_i_glide_gscore>  (285) 
-3.02769

>  <r_i_glide_lipo>  (285) 
-0.546766

>  <r_i_glide_hbond>  (285) 
-0.135025

>  <r_i_glide_metal>  (285) 
-0

>  <r_i_glide_rewards>  (285) 
-0.282068

>  <r_i_glide_evdw>  (285) 
-20.4816

>  <r_i_glide_ecoul>  (285) 
-7.26891

>  <r_i_glide_erotb>  (285) 
0.0956267

>  <r_i_glide_esite>  (285) 
-0.045046

>  <r_i_glide_emodel>  (285) 
-31.3535

>  <r_i_glide_energy>  (285) 
-27.7505

>  <r_i_glide_einternal>  (285) 
2.52429

>  <r_i_glide_intrahb_reward>  (285) 
-0

>  <i_i_glide_confnum>  (285) 
3

>  <i_i_glide_posenum>  (285) 
38

>  <r_i_glide_eff_state_penalty>  (285) 
0

>  <ligand_id>  (285) 
86

>  <original_smiles>  (285) 
CC(O)C1CC23C(OC(=O)C2C2(C)CC(=O)C2(C)C2(C)CCC4C(C)(C)CCCC4(C)C32)O1

>  <smiles>  (285) 
[H]OC([H])(C([H])([H])[H])C1([H])OC2([H])OC(=O)C3([H])C2(C1([H])[H])C1([H])C2(C([H])([H])[H])C([H])([H])C([H])([H])C([H])([H])C(C([H])([H])[H])(C([H])([H])[H])C2([H])C([H])([H])C([H])([H])C1(C([H])([H])[H])C1(C([H])([H])[H])C(=O)C([H])([H])C31C([H])([H])[H]

$$$$
86:0:1
     RDKit          3D

 75 80  0  0  1  0  0  0  0  0999 V2000
   -2.0490   -8.6827    2.6647 C   0  0  0  0  0  0  0  0  0  0  0  0
   -0.5660   -9.0202    2.6129 C   0  0  2  0  0  0  0  0  0  0  0  0
   -0.2377   -9.4538    3.8986 O   0  0  0  0  0  0  0  0  0  0  0  0
    0.3093   -7.8677    2.0081 C   0  0  2  0  0  0  0  0  0  0  0  0
    1.8285   -8.0636    1.9178 C   0  0  0  0  0  0  0  0  0  0  0  0
    2.4254   -7.2137    3.0656 C   0  0  1  0  0  0  0  0  0  0  0  0
    1.2280   -6.3124    3.4822 C   0  0  2  0  0  0  0  0  0  0  0  0
    0.8946   -6.5402    4.8182 O   0  0  0  0  0  0  0  0  0  0  0  0
    1.6090   -7.5232    5.3526 C   0  0  0  0  0  0  0  0  0  0  0  0
    1.4706   -7.9734    6.4993 O   0  0  0  0  0  0  0  0  0  0  0  0
    2.5555   -8.1332    4.3290 C   0  0  2  0  0  0  0  0  0  0  0  0
    3.9594   -8.5486    4.8393 C   0  0  2  0  0  0  0  0  0  0  0  0
    4.0813  -10.0572    4.5284 C   0  0  0  0  0  0  0  0  0  0  0  0
    4.3966   -8.2500    6.3125 C   0  0  0  0  0  0  0  0  0  0  0  0
    5.6878   -7.6557    5.7553 C   0  0  0  0  0  0  0  0  0  0  0  0
    6.7826   -7.3547    6.2671 O   0  0  0  0  0  0  0  0  0  0  0  0
    5.1298   -7.6525    4.3173 C   0  0  1  0  0  0  0  0  0  0  0  0
    6.1922   -8.3575    3.4389 C   0  0  0  0  0  0  0  0  0  0  0  0
    4.7525   -6.2047    3.8068 C   0  0  1  0  0  0  0  0  0  0  0  0
    4.1581   -5.2987    4.9308 C   0  0  0  0  0  0  0  0  0  0  0  0
    5.9944   -5.4790    3.2778 C   0  0  0  0  0  0  0  0  0  0  0  0
    5.7340   -4.0828    2.7416 C   0  0  0  0  0  0  0  0  0  0  0  0
    4.3981   -3.8371    1.9912 C   0  0  1  0  0  0  0  0  0  0  0  0
    4.6426   -2.7212    0.8916 C   0  0  0  0  0  0  0  0  0  0  0  0
    3.3406   -2.0160    0.4171 C   0  0  0  0  0  0  0  0  0  0  0  0
    5.4968   -1.5410    1.4398 C   0  0  0  0  0  0  0  0  0  0  0  0
    5.3879   -3.3438   -0.3094 C   0  0  0  0  0  0  0  0  0  0  0  0
    4.7001   -4.5967   -0.8441 C   0  0  0  0  0  0  0  0  0  0  0  0
    4.4501   -5.6681    0.2360 C   0  0  0  0  0  0  0  0  0  0  0  0
    3.6961   -5.1797    1.5126 C   0  0  2  0  0  0  0  0  0  0  0  0
    2.2582   -4.8257    1.0604 C   0  0  0  0  0  0  0  0  0  0  0  0
    3.7069   -6.3440    2.6490 C   0  0  2  0  0  0  0  0  0  0  0  0
    0.1359   -6.6033    2.6372 O   0  0  0  0  0  0  0  0  0  0  0  0
   -2.5020   -8.6464    1.6781 H   0  0  0  0  0  0  0  0  0  0  0  0
   -2.2305   -7.7361    3.1672 H   0  0  0  0  0  0  0  0  0  0  0  0
   -2.5735   -9.4554    3.2205 H   0  0  0  0  0  0  0  0  0  0  0  0
   -0.4324   -9.9082    1.9975 H   0  0  0  0  0  0  0  0  0  0  0  0
   -0.9174  -10.0680    4.2540 H   0  0  0  0  0  0  0  0  0  0  0  0
   -0.0688   -7.7517    0.9927 H   0  0  0  0  0  0  0  0  0  0  0  0
    2.1116   -9.1163    1.9416 H   0  0  0  0  0  0  0  0  0  0  0  0
    2.1907   -7.7114    0.9551 H   0  0  0  0  0  0  0  0  0  0  0  0
    1.4554   -5.2469    3.4242 H   0  0  0  0  0  0  0  0  0  0  0  0
    2.0834   -9.0732    4.0687 H   0  0  0  0  0  0  0  0  0  0  0  0
    5.0048  -10.4851    4.9262 H   0  0  0  0  0  0  0  0  0  0  0  0
    4.0656  -10.2618    3.4541 H   0  0  0  0  0  0  0  0  0  0  0  0
    3.2769  -10.6404    4.9800 H   0  0  0  0  0  0  0  0  0  0  0  0
    3.7686   -7.5462    6.8543 H   0  0  0  0  0  0  0  0  0  0  0  0
    4.4787   -9.1693    6.8956 H   0  0  0  0  0  0  0  0  0  0  0  0
    5.8147   -8.5680    2.4395 H   0  0  0  0  0  0  0  0  0  0  0  0
    6.5080   -9.3137    3.8522 H   0  0  0  0  0  0  0  0  0  0  0  0
    7.1225   -7.7998    3.3431 H   0  0  0  0  0  0  0  0  0  0  0  0
    3.5626   -4.4904    4.5162 H   0  0  0  0  0  0  0  0  0  0  0  0
    4.9444   -4.8449    5.5356 H   0  0  0  0  0  0  0  0  0  0  0  0
    3.4981   -5.8065    5.6258 H   0  0  0  0  0  0  0  0  0  0  0  0
    6.7823   -5.4634    4.0312 H   0  0  0  0  0  0  0  0  0  0  0  0
    6.4001   -6.0276    2.4348 H   0  0  0  0  0  0  0  0  0  0  0  0
    5.7602   -3.3995    3.5851 H   0  0  0  0  0  0  0  0  0  0  0  0
    6.6043   -3.8393    2.1295 H   0  0  0  0  0  0  0  0  0  0  0  0
    3.7302   -3.3766    2.7190 H   0  0  0  0  0  0  0  0  0  0  0  0
    3.5048   -0.9874    0.0878 H   0  0  0  0  0  0  0  0  0  0  0  0
    2.5890   -1.9713    1.2096 H   0  0  0  0  0  0  0  0  0  0  0  0
    2.8884   -2.4913   -0.4509 H   0  0  0  0  0  0  0  0  0  0  0  0
    5.5506   -0.7216    0.7203 H   0  0  0  0  0  0  0  0  0  0  0  0
    6.5361   -1.8058    1.6243 H   0  0  0  0  0  0  0  0  0  0  0  0
    5.0806   -1.1419    2.3665 H   0  0  0  0  0  0  0  0  0  0  0  0
    5.4816   -2.6095   -1.1076 H   0  0  0  0  0  0  0  0  0  0  0  0
    6.4058   -3.6093   -0.0319 H   0  0  0  0  0  0  0  0  0  0  0  0
    3.7845   -4.3028   -1.3506 H   0  0  0  0  0  0  0  0  0  0  0  0
    5.3158   -5.0305   -1.6245 H   0  0  0  0  0  0  0  0  0  0  0  0
    3.8988   -6.4834   -0.2259 H   0  0  0  0  0  0  0  0  0  0  0  0
    5.4192   -6.0857    0.5013 H   0  0  0  0  0  0  0  0  0  0  0  0
    1.6028   -5.6697    0.9390 H   0  0  0  0  0  0  0  0  0  0  0  0
    2.2186   -4.3733    0.0777 H   0  0  0  0  0  0  0  0  0  0  0  0
    1.8122   -4.1144    1.7506 H   0  0  0  0  0  0  0  0  0  0  0  0
    4.1948   -7.1158    2.0731 H   0  0  0  0  0  0  0  0  0  0  0  0
  1  2  1  0
  1 34  1  0
  1 35  1  0
  1 36  1  0
  2  3  1  0
  2  4  1  0
  2 37  1  6
  3 38  1  0
  4 33  1  0
  4  5  1  0
  4 39  1  6
  6  5  1  6
  5 40  1  0
  5 41  1  0
  6 11  1  0
  6 32  1  0
  6  7  1  0
  7  8  1  0
  7 33  1  0
  7 42  1  1
  8  9  1  0
  9 10  2  0
  9 11  1  0
 11 12  1  0
 11 43  1  6
 12 17  1  0
 12 13  1  6
 12 14  1  0
 13 44  1  0
 13 45  1  0
 13 46  1  0
 14 15  1  0
 14 47  1  0
 14 48  1  0
 15 16  2  0
 15 17  1  0
 17 18  1  6
 17 19  1  0
 18 49  1  0
 18 50  1  0
 18 51  1  0
 19 32  1  0
 19 20  1  1
 19 21  1  0
 20 52  1  0
 20 53  1  0
 20 54  1  0
 21 22  1  0
 21 55  1  0
 21 56  1  0
 22 23  1  0
 22 57  1  0
 22 58  1  0
 23 30  1  0
 23 24  1  0
 23 59  1  1
 24 25  1  0
 24 26  1  0
 24 27  1  0
 25 60  1  0
 25 61  1  0
 25 62  1  0
 26 63  1  0
 26 64  1  0
 26 65  1  0
 27 28  1  0
 27 66  1  0
 27 67  1  0
 28 29  1  0
 28 68  1  0
 28 69  1  0
 29 30  1  0
 29 70  1  0
 29 71  1  0
 30 31  1  6
 30 32  1  0
 31 72  1  0
 31 73  1  0
 31 74  1  0
 32 75  1  6
M  END
>  <i_m_ct_stereo_status>  (286) 
1

>  <s_m_source_file>  (286) 
/var/tmp/pbs.5076255.sched01/tmpos3i1bch/920fm1no0n.sdf

>  <i_m_source_file_index>  (286) 
28

>  <i_lp_mmshare_version>  (286) 
48012

>  <i_f3d_flags>  (286) 
0

>  <s_epik_input>  (286) 
W0NIM11bQ0BIXShbT0hdKVtDQEhdKFtDSDJdMSlPW0NASF0oW0NAXTEyMylPQyg9TylbQ0BASF0yW0NAQF00KFtDSDNdKVtDQF0oW0NIM10pKEMoPU8pW0NIMl00KVtDQF01KFtDSDNdKVtDQEBIXTNbQ0BAXTYoW0NIM10pW0NAQEhdKFtDSDJdW0NIMl01KUMoW0NIM10pKFtDSDNdKVtDSDJdW0NIMl1bQ0gyXTY=

>  <s_epik_cmdline>  (286) 
J2VwaWtfcHl0aG9uJywgJy1waHQnLCAnMi4wJywgJy1waCcsICc3LjAnLCAnLXRuJywgJzgnLCAnLW1hJywgJzIwMCcsICctaW1hZScsICc8aW5maWxlLm1hZT4nLCAnLW9tYWUnLCAnPG91dGZpbGUubWFlPic=

>  <r_lp_tautomer_probability>  (286) 
1

>  <r_epik_Ionization_Penalty>  (286) 
5.67854e-08

>  <r_epik_Ionization_Penalty_Charging>  (286) 
0

>  <r_epik_Ionization_Penalty_Neutral>  (286) 
5.67854e-08

>  <r_epik_State_Penalty>  (286) 
-0

>  <r_epik_Charging_Adjusted_Penalty>  (286) 
0

>  <i_epik_Tot_Q>  (286) 
0

>  <i_epik_Tot_abs_Q>  (286) 
0

>  <s_epik_Chemistry_Notes>  (286) 
This compound has an ester and may undergo hydrolysis at high or low pH. This compound contains an acetal/aminal-like group ( X-CH(R)-Y where X, Y are N, S, or O) that may be acid/base labile, releasing an aldehyde.

>  <s_lp_Force_Field>  (286) 
OPLS3e

>  <r_lp_Energy>  (286) 
84.8253

>  <b_lp_Chiralities_Consistent>  (286) 
1

>  <s_lp_Variant>  (286) 
86:0-1

>  <s_i_glide_gridfile>  (286) 
pfpi4k_grid

>  <i_i_glide_lignum>  (286) 
28

>  <i_i_glide_rotatable_bonds>  (286) 
2

>  <r_i_docking_score>  (286) 
-2.64208

>  <r_i_glide_ligand_efficiency>  (286) 
-0.0800631

>  <r_i_glide_ligand_efficiency_sa>  (286) 
-0.256805

>  <r_i_glide_ligand_efficiency_ln>  (286) 
-0.587586

>  <r_i_glide_gscore>  (286) 
-2.64208

>  <r_i_glide_lipo>  (286) 
-0.39054

>  <r_i_glide_hbond>  (286) 
-0.113482

>  <r_i_glide_metal>  (286) 
-0

>  <r_i_glide_rewards>  (286) 
-0.282068

>  <r_i_glide_evdw>  (286) 
-22.1369

>  <r_i_glide_ecoul>  (286) 
-5.47522

>  <r_i_glide_erotb>  (286) 
0.0956267

>  <r_i_glide_esite>  (286) 
-0.0234925

>  <r_i_glide_emodel>  (286) 
-30.428

>  <r_i_glide_energy>  (286) 
-27.6121

>  <r_i_glide_einternal>  (286) 
2.61059

>  <r_i_glide_intrahb_reward>  (286) 
-0

>  <i_i_glide_confnum>  (286) 
6

>  <i_i_glide_posenum>  (286) 
34

>  <r_i_glide_eff_state_penalty>  (286) 
0

>  <ligand_id>  (286) 
86

>  <original_smiles>  (286) 
CC(O)C1CC23C(OC(=O)C2C2(C)CC(=O)C2(C)C2(C)CCC4C(C)(C)CCCC4(C)C32)O1

>  <smiles>  (286) 
[H]OC([H])(C([H])([H])[H])C1([H])OC2([H])OC(=O)C3([H])C2(C1([H])[H])C1([H])C2(C([H])([H])[H])C([H])([H])C([H])([H])C([H])([H])C(C([H])([H])[H])(C([H])([H])[H])C2([H])C([H])([H])C([H])([H])C1(C([H])([H])[H])C1(C([H])([H])[H])C(=O)C([H])([H])C31C([H])([H])[H]

$$$$
86:0:2
     RDKit          3D

 75 80  0  0  1  0  0  0  0  0999 V2000
   -2.3516   -7.9054    3.2733 C   0  0  0  0  0  0  0  0  0  0  0  0
   -1.1237   -8.5929    2.6940 C   0  0  2  0  0  0  0  0  0  0  0  0
   -0.6140   -9.4644    3.6741 O   0  0  0  0  0  0  0  0  0  0  0  0
   -0.0805   -7.5713    2.1277 C   0  0  2  0  0  0  0  0  0  0  0  0
    1.3320   -8.0598    1.8091 C   0  0  0  0  0  0  0  0  0  0  0  0
    2.2333   -7.5592    2.9670 C   0  0  1  0  0  0  0  0  0  0  0  0
    1.3250   -6.5163    3.6610 C   0  0  2  0  0  0  0  0  0  0  0  0
    1.0915   -6.9025    4.9804 O   0  0  0  0  0  0  0  0  0  0  0  0
    1.5944   -8.1116    5.2514 C   0  0  0  0  0  0  0  0  0  0  0  0
    1.4752   -8.6953    6.3288 O   0  0  0  0  0  0  0  0  0  0  0  0
    2.2967   -8.6898    4.0345 C   0  0  2  0  0  0  0  0  0  0  0  0
    3.6169   -9.4819    4.2697 C   0  0  2  0  0  0  0  0  0  0  0  0
    3.3402  -10.9092    3.7370 C   0  0  0  0  0  0  0  0  0  0  0  0
    4.2482   -9.5370    5.6912 C   0  0  0  0  0  0  0  0  0  0  0  0
    5.5884   -9.1494    5.0521 C   0  0  0  0  0  0  0  0  0  0  0  0
    6.7683   -9.1809    5.4300 O   0  0  0  0  0  0  0  0  0  0  0  0
    4.9019   -8.7778    3.7230 C   0  0  1  0  0  0  0  0  0  0  0  0
    5.6413   -9.5333    2.5872 C   0  0  0  0  0  0  0  0  0  0  0  0
    4.7921   -7.2149    3.4785 C   0  0  1  0  0  0  0  0  0  0  0  0
    4.5589   -6.4084    4.7864 C   0  0  0  0  0  0  0  0  0  0  0  0
    6.1052   -6.6978    2.8641 C   0  0  0  0  0  0  0  0  0  0  0  0
    6.1231   -5.2007    2.5946 C   0  0  0  0  0  0  0  0  0  0  0  0
    4.8107   -4.5455    2.0833 C   0  0  1  0  0  0  0  0  0  0  0  0
    5.1662   -3.3311    1.1201 C   0  0  0  0  0  0  0  0  0  0  0  0
    4.0175   -2.3059    0.9463 C   0  0  0  0  0  0  0  0  0  0  0  0
    6.3327   -2.4855    1.6804 C   0  0  0  0  0  0  0  0  0  0  0  0
    5.6161   -3.8908   -0.2508 C   0  0  0  0  0  0  0  0  0  0  0  0
    4.6016   -4.8636   -0.8443 C   0  0  0  0  0  0  0  0  0  0  0  0
    4.2399   -6.0160    0.1215 C   0  0  0  0  0  0  0  0  0  0  0  0
    3.7523   -5.5979    1.5491 C   0  0  2  0  0  0  0  0  0  0  0  0
    2.3912   -4.8768    1.3550 C   0  0  0  0  0  0  0  0  0  0  0  0
    3.6257   -6.9334    2.4757 C   0  0  2  0  0  0  0  0  0  0  0  0
    0.1282   -6.4223    2.9425 O   0  0  0  0  0  0  0  0  0  0  0  0
   -2.9554   -7.4537    2.4882 H   0  0  0  0  0  0  0  0  0  0  0  0
   -2.0964   -7.1559    4.0200 H   0  0  0  0  0  0  0  0  0  0  0  0
   -2.9648   -8.6531    3.7668 H   0  0  0  0  0  0  0  0  0  0  0  0
   -1.4328   -9.2407    1.8672 H   0  0  0  0  0  0  0  0  0  0  0  0
   -1.3396   -9.9891    4.1011 H   0  0  0  0  0  0  0  0  0  0  0  0
   -0.5358   -7.1929    1.2121 H   0  0  0  0  0  0  0  0  0  0  0  0
    1.3798   -9.1432    1.6285 H   0  0  0  0  0  0  0  0  0  0  0  0
    1.6621   -7.6135    0.8758 H   0  0  0  0  0  0  0  0  0  0  0  0
    1.7871   -5.5327    3.7241 H   0  0  0  0  0  0  0  0  0  0  0  0
    1.6013   -9.4585    3.7073 H   0  0  0  0  0  0  0  0  0  0  0  0
    4.1724  -11.5846    3.9251 H   0  0  0  0  0  0  0  0  0  0  0  0
    3.1547  -10.9196    2.6599 H   0  0  0  0  0  0  0  0  0  0  0  0
    2.4775  -11.3744    4.2172 H   0  0  0  0  0  0  0  0  0  0  0  0
    3.8726   -8.8150    6.4122 H   0  0  0  0  0  0  0  0  0  0  0  0
    4.1916  -10.5353    6.1265 H   0  0  0  0  0  0  0  0  0  0  0  0
    5.1070   -9.4860    1.6424 H   0  0  0  0  0  0  0  0  0  0  0  0
    5.7679  -10.5928    2.8071 H   0  0  0  0  0  0  0  0  0  0  0  0
    6.6579   -9.1802    2.4282 H   0  0  0  0  0  0  0  0  0  0  0  0
    4.1284   -5.4328    4.5848 H   0  0  0  0  0  0  0  0  0  0  0  0
    5.4899   -6.2391    5.3290 H   0  0  0  0  0  0  0  0  0  0  0  0
    3.8789   -6.8717    5.4890 H   0  0  0  0  0  0  0  0  0  0  0  0
    6.9611   -6.9765    3.4921 H   0  0  0  0  0  0  0  0  0  0  0  0
    6.2759   -7.1622    1.9034 H   0  0  0  0  0  0  0  0  0  0  0  0
    6.3837   -4.7085    3.5167 H   0  0  0  0  0  0  0  0  0  0  0  0
    6.9606   -5.0489    1.9132 H   0  0  0  0  0  0  0  0  0  0  0  0
    4.3500   -4.0825    2.9595 H   0  0  0  0  0  0  0  0  0  0  0  0
    4.3829   -1.2976    0.7482 H   0  0  0  0  0  0  0  0  0  0  0  0
    3.3996   -2.2440    1.8380 H   0  0  0  0  0  0  0  0  0  0  0  0
    3.3770   -2.5201    0.0988 H   0  0  0  0  0  0  0  0  0  0  0  0
    6.5069   -1.5868    1.0882 H   0  0  0  0  0  0  0  0  0  0  0  0
    7.2807   -3.0150    1.6581 H   0  0  0  0  0  0  0  0  0  0  0  0
    6.1374   -2.1712    2.7056 H   0  0  0  0  0  0  0  0  0  0  0  0
    5.7961   -3.0707   -0.9493 H   0  0  0  0  0  0  0  0  0  0  0  0
    6.5689   -4.4142   -0.1611 H   0  0  0  0  0  0  0  0  0  0  0  0
    3.7209   -4.3151   -1.1602 H   0  0  0  0  0  0  0  0  0  0  0  0
    5.0175   -5.2789   -1.7602 H   0  0  0  0  0  0  0  0  0  0  0  0
    3.4490   -6.6147   -0.3187 H   0  0  0  0  0  0  0  0  0  0  0  0
    5.1070   -6.6714    0.1700 H   0  0  0  0  0  0  0  0  0  0  0  0
    1.5536   -5.5397    1.2074 H   0  0  0  0  0  0  0  0  0  0  0  0
    2.3434   -4.2749    0.4576 H   0  0  0  0  0  0  0  0  0  0  0  0
    2.1570   -4.2114    2.1839 H   0  0  0  0  0  0  0  0  0  0  0  0
    3.8523   -7.6797    1.7282 H   0  0  0  0  0  0  0  0  0  0  0  0
  1  2  1  0
  1 34  1  0
  1 35  1  0
  1 36  1  0
  2  3  1  0
  2  4  1  0
  2 37  1  6
  3 38  1  0
  4 33  1  0
  4  5  1  0
  4 39  1  6
  6  5  1  6
  5 40  1  0
  5 41  1  0
  6 11  1  0
  6 32  1  0
  6  7  1  0
  7  8  1  0
  7 33  1  0
  7 42  1  1
  8  9  1  0
  9 10  2  0
  9 11  1  0
 11 12  1  0
 11 43  1  6
 12 17  1  0
 12 13  1  6
 12 14  1  0
 13 44  1  0
 13 45  1  0
 13 46  1  0
 14 15  1  0
 14 47  1  0
 14 48  1  0
 15 16  2  0
 15 17  1  0
 17 18  1  6
 17 19  1  0
 18 49  1  0
 18 50  1  0
 18 51  1  0
 19 32  1  0
 19 20  1  1
 19 21  1  0
 20 52  1  0
 20 53  1  0
 20 54  1  0
 21 22  1  0
 21 55  1  0
 21 56  1  0
 22 23  1  0
 22 57  1  0
 22 58  1  0
 23 30  1  0
 23 24  1  0
 23 59  1  1
 24 25  1  0
 24 26  1  0
 24 27  1  0
 25 60  1  0
 25 61  1  0
 25 62  1  0
 26 63  1  0
 26 64  1  0
 26 65  1  0
 27 28  1  0
 27 66  1  0
 27 67  1  0
 28 29  1  0
 28 68  1  0
 28 69  1  0
 29 30  1  0
 29 70  1  0
 29 71  1  0
 30 31  1  6
 30 32  1  0
 31 72  1  0
 31 73  1  0
 31 74  1  0
 32 75  1  6
M  END
>  <i_m_ct_stereo_status>  (287) 
1

>  <s_m_source_file>  (287) 
/var/tmp/pbs.5076255.sched01/tmpos3i1bch/920fm1no0n.sdf

>  <i_m_source_file_index>  (287) 
28

>  <i_lp_mmshare_version>  (287) 
48012

>  <i_f3d_flags>  (287) 
0

>  <s_epik_input>  (287) 
W0NIM11bQ0BIXShbT0hdKVtDQEhdKFtDSDJdMSlPW0NASF0oW0NAXTEyMylPQyg9TylbQ0BASF0yW0NAQF00KFtDSDNdKVtDQF0oW0NIM10pKEMoPU8pW0NIMl00KVtDQF01KFtDSDNdKVtDQEBIXTNbQ0BAXTYoW0NIM10pW0NAQEhdKFtDSDJdW0NIMl01KUMoW0NIM10pKFtDSDNdKVtDSDJdW0NIMl1bQ0gyXTY=

>  <s_epik_cmdline>  (287) 
J2VwaWtfcHl0aG9uJywgJy1waHQnLCAnMi4wJywgJy1waCcsICc3LjAnLCAnLXRuJywgJzgnLCAnLW1hJywgJzIwMCcsICctaW1hZScsICc8aW5maWxlLm1hZT4nLCAnLW9tYWUnLCAnPG91dGZpbGUubWFlPic=

>  <r_lp_tautomer_probability>  (287) 
1

>  <r_epik_Ionization_Penalty>  (287) 
5.67854e-08

>  <r_epik_Ionization_Penalty_Charging>  (287) 
0

>  <r_epik_Ionization_Penalty_Neutral>  (287) 
5.67854e-08

>  <r_epik_State_Penalty>  (287) 
-0

>  <r_epik_Charging_Adjusted_Penalty>  (287) 
0

>  <i_epik_Tot_Q>  (287) 
0

>  <i_epik_Tot_abs_Q>  (287) 
0

>  <s_epik_Chemistry_Notes>  (287) 
This compound has an ester and may undergo hydrolysis at high or low pH. This compound contains an acetal/aminal-like group ( X-CH(R)-Y where X, Y are N, S, or O) that may be acid/base labile, releasing an aldehyde.

>  <s_lp_Force_Field>  (287) 
OPLS3e

>  <r_lp_Energy>  (287) 
84.8253

>  <b_lp_Chiralities_Consistent>  (287) 
1

>  <s_lp_Variant>  (287) 
86:0-1

>  <s_i_glide_gridfile>  (287) 
pfpi4k_grid

>  <i_i_glide_lignum>  (287) 
28

>  <i_i_glide_rotatable_bonds>  (287) 
2

>  <r_i_docking_score>  (287) 
-2.33654

>  <r_i_glide_ligand_efficiency>  (287) 
-0.0708041

>  <r_i_glide_ligand_efficiency_sa>  (287) 
-0.227107

>  <r_i_glide_ligand_efficiency_ln>  (287) 
-0.519633

>  <r_i_glide_gscore>  (287) 
-2.33654

>  <r_i_glide_lipo>  (287) 
-0.285492

>  <r_i_glide_hbond>  (287) 
-0.123436

>  <r_i_glide_metal>  (287) 
-0

>  <r_i_glide_rewards>  (287) 
-0.282068

>  <r_i_glide_evdw>  (287) 
-19.9873

>  <r_i_glide_ecoul>  (287) 
-4.77849

>  <r_i_glide_erotb>  (287) 
0.0956267

>  <r_i_glide_esite>  (287) 
-0.0250308

>  <r_i_glide_emodel>  (287) 
-26.9211

>  <r_i_glide_energy>  (287) 
-24.7657

>  <r_i_glide_einternal>  (287) 
2.63003

>  <r_i_glide_intrahb_reward>  (287) 
-0

>  <i_i_glide_confnum>  (287) 
6

>  <i_i_glide_posenum>  (287) 
9

>  <r_i_glide_eff_state_penalty>  (287) 
0

>  <ligand_id>  (287) 
86

>  <original_smiles>  (287) 
CC(O)C1CC23C(OC(=O)C2C2(C)CC(=O)C2(C)C2(C)CCC4C(C)(C)CCCC4(C)C32)O1

>  <smiles>  (287) 
[H]OC([H])(C([H])([H])[H])C1([H])OC2([H])OC(=O)C3([H])C2(C1([H])[H])C1([H])C2(C([H])([H])[H])C([H])([H])C([H])([H])C([H])([H])C(C([H])([H])[H])(C([H])([H])[H])C2([H])C([H])([H])C([H])([H])C1(C([H])([H])[H])C1(C([H])([H])[H])C(=O)C([H])([H])C31C([H])([H])[H]

$$$$
87:0:0
     RDKit          3D

 88 94  0  0  1  0  0  0  0  0999 V2000
    2.7033   -2.0191    6.1834 C   0  0  0  0  0  0  0  0  0  0  0  0
    2.7399   -1.4347    4.9874 C   0  0  0  0  0  0  0  0  0  0  0  0
    2.2601   -2.1361    3.7227 C   0  0  1  0  0  0  0  0  0  0  0  0
    0.9456   -1.5237    3.1602 C   0  0  0  0  0  0  0  0  0  0  0  0
    0.2216   -0.4093    3.9532 C   0  0  1  0  0  0  0  0  0  0  0  0
   -0.2183   -0.8314    5.2429 O   0  0  0  0  0  0  0  0  0  0  0  0
   -1.2710   -1.7818    5.2462 C   0  0  0  0  0  0  0  0  0  0  0  0
    0.9856    0.9477    3.9548 C   0  0  1  0  0  0  0  0  0  0  0  0
    0.0603    2.2392    3.8945 C   0  0  1  0  0  0  0  0  0  0  0  0
   -0.9662    2.1846    2.7382 C   0  0  0  0  0  0  0  0  0  0  0  0
   -0.6619    2.4348    5.1312 O   0  0  0  0  0  0  0  0  0  0  0  0
   -1.3289    3.6807    5.4097 C   0  0  1  0  0  0  0  0  0  0  0  0
   -2.6494    3.2651    6.0580 C   0  0  0  0  0  0  0  0  0  0  0  0
   -0.5540    4.6766    6.3416 C   0  0  0  0  0  0  0  0  0  0  0  0
    0.4506    5.6794    5.6810 C   0  0  1  0  0  0  0  0  0  0  0  0
    0.6097    6.7892    6.5477 O   0  0  0  0  0  0  0  0  0  0  0  0
    1.8637    5.1199    5.3298 C   0  0  0  0  0  0  0  0  0  0  0  0
    1.7889    3.6468    4.9717 C   0  0  2  0  0  0  0  0  0  0  0  0
    0.9377    3.4776    3.7126 C   0  0  1  0  0  0  0  0  0  0  0  0
    1.8051    3.4425    2.5751 O   0  0  0  0  0  0  0  0  0  0  0  0
    2.0123    2.7867    6.2506 C   0  0  2  0  0  0  0  0  0  0  0  0
    1.7767    1.3174    6.4545 C   0  0  1  0  0  0  0  0  0  0  0  0
    0.5134    1.0837    7.0140 O   0  0  0  0  0  0  0  0  0  0  0  0
    2.1762    1.0442    4.9938 C   0  0  1  0  0  0  0  0  0  0  0  0
    3.2931   -0.0283    4.7843 C   0  0  2  0  0  0  0  0  0  0  0  0
    4.2111    0.0787    3.5204 C   0  0  1  0  0  0  0  0  0  0  0  0
    5.5603   -0.1475    3.9170 O   0  0  0  0  0  0  0  0  0  0  0  0
    3.8670   -0.8344    2.3130 C   0  0  1  0  0  0  0  0  0  0  0  0
    4.9303   -0.8344    1.2004 C   0  0  0  0  0  0  0  0  0  0  0  0
    4.3998   -1.4985   -0.0840 C   0  0  1  0  0  0  0  0  0  0  0  0
    5.4170   -1.3348   -1.2298 C   0  0  0  0  0  0  0  0  0  0  0  0
    3.9486   -2.9611    0.1679 C   0  0  1  0  0  0  0  0  0  0  0  0
    3.2625   -3.5475   -1.0879 C   0  0  0  0  0  0  0  0  0  0  0  0
    5.0782   -3.7788    0.4174 O   0  0  0  0  0  0  0  0  0  0  0  0
    2.9686   -3.0224    1.3805 C   0  0  1  0  0  0  0  0  0  0  0  0
    2.6125   -4.3800    1.6490 O   0  0  0  0  0  0  0  0  0  0  0  0
    3.4277   -2.2804    2.6942 C   0  0  2  0  0  0  0  0  0  0  0  0
    4.5759   -3.0799    3.3809 C   0  0  0  0  0  0  0  0  0  0  0  0
    2.7285    2.4735    5.0223 C   0  0  1  0  0  0  0  0  0  0  0  0
    4.1307    2.7477    5.0689 O   0  0  0  0  0  0  0  0  0  0  0  0
    3.0611   -1.5048    7.0643 H   0  0  0  0  0  0  0  0  0  0  0  0
    2.2986   -3.0159    6.3078 H   0  0  0  0  0  0  0  0  0  0  0  0
    1.9789   -3.1418    4.0426 H   0  0  0  0  0  0  0  0  0  0  0  0
    1.0831   -1.1111    2.1624 H   0  0  0  0  0  0  0  0  0  0  0  0
    0.2634   -2.3490    3.0019 H   0  0  0  0  0  0  0  0  0  0  0  0
   -0.6852   -0.2396    3.3780 H   0  0  0  0  0  0  0  0  0  0  0  0
   -1.5888   -1.9718    6.2684 H   0  0  0  0  0  0  0  0  0  0  0  0
   -0.9537   -2.7371    4.8316 H   0  0  0  0  0  0  0  0  0  0  0  0
   -2.1448   -1.4276    4.6971 H   0  0  0  0  0  0  0  0  0  0  0  0
    1.4760    0.9609    2.9805 H   0  0  0  0  0  0  0  0  0  0  0  0
   -0.5064    1.7854    1.8278 H   0  0  0  0  0  0  0  0  0  0  0  0
   -1.3539    3.1752    2.4893 H   0  0  0  0  0  0  0  0  0  0  0  0
   -1.8169    1.5594    3.0095 H   0  0  0  0  0  0  0  0  0  0  0  0
   -1.6070    4.1770    4.4850 H   0  0  0  0  0  0  0  0  0  0  0  0
   -3.2671    4.1303    6.2803 H   0  0  0  0  0  0  0  0  0  0  0  0
   -2.4913    2.7185    6.9909 H   0  0  0  0  0  0  0  0  0  0  0  0
   -3.2208    2.6356    5.3791 H   0  0  0  0  0  0  0  0  0  0  0  0
   -1.3023    5.2898    6.8454 H   0  0  0  0  0  0  0  0  0  0  0  0
   -0.0928    4.1313    7.1670 H   0  0  0  0  0  0  0  0  0  0  0  0
    0.0001    6.0885    4.7718 H   0  0  0  0  0  0  0  0  0  0  0  0
    1.2268    7.3885    6.1604 H   0  0  0  0  0  0  0  0  0  0  0  0
    2.3138    5.6825    4.5099 H   0  0  0  0  0  0  0  0  0  0  0  0
    2.5342    5.2367    6.1811 H   0  0  0  0  0  0  0  0  0  0  0  0
    0.3406    4.3717    3.5109 H   0  0  0  0  0  0  0  0  0  0  0  0
    1.2591    3.6947    1.8255 H   0  0  0  0  0  0  0  0  0  0  0  0
    2.6035    3.2269    7.0474 H   0  0  0  0  0  0  0  0  0  0  0  0
    2.5323    0.9373    7.1470 H   0  0  0  0  0  0  0  0  0  0  0  0
   -0.1068    1.4873    6.4170 H   0  0  0  0  0  0  0  0  0  0  0  0
    3.9894    0.0899    5.6279 H   0  0  0  0  0  0  0  0  0  0  0  0
    4.1722    1.1017    3.1477 H   0  0  0  0  0  0  0  0  0  0  0  0
    6.1061   -0.0573    3.1607 H   0  0  0  0  0  0  0  0  0  0  0  0
    3.0138   -0.3491    1.8532 H   0  0  0  0  0  0  0  0  0  0  0  0
    5.2049    0.2053    0.9713 H   0  0  0  0  0  0  0  0  0  0  0  0
    5.8454   -1.3358    1.5182 H   0  0  0  0  0  0  0  0  0  0  0  0
    3.5125   -0.9451   -0.3830 H   0  0  0  0  0  0  0  0  0  0  0  0
    6.3492   -1.8794   -1.0494 H   0  0  0  0  0  0  0  0  0  0  0  0
    5.6566   -0.2768   -1.3463 H   0  0  0  0  0  0  0  0  0  0  0  0
    5.0103   -1.6643   -2.1876 H   0  0  0  0  0  0  0  0  0  0  0  0
    2.4005   -2.9531   -1.3929 H   0  0  0  0  0  0  0  0  0  0  0  0
    2.9005   -4.5606   -0.9159 H   0  0  0  0  0  0  0  0  0  0  0  0
    3.9367   -3.6066   -1.9409 H   0  0  0  0  0  0  0  0  0  0  0  0
    4.8083   -4.6777    0.3488 H   0  0  0  0  0  0  0  0  0  0  0  0
    2.0596   -2.5537    1.0064 H   0  0  0  0  0  0  0  0  0  0  0  0
    3.3787   -4.8054    1.9971 H   0  0  0  0  0  0  0  0  0  0  0  0
    5.4587   -3.1723    2.7577 H   0  0  0  0  0  0  0  0  0  0  0  0
    4.2613   -4.0887    3.6620 H   0  0  0  0  0  0  0  0  0  0  0  0
    4.9255   -2.6093    4.2943 H   0  0  0  0  0  0  0  0  0  0  0  0
    4.3055    2.9509    4.1712 H   0  0  0  0  0  0  0  0  0  0  0  0
  1  2  2  0
  1 41  1  0
  1 42  1  0
  2 25  1  0
  2  3  1  0
  3 37  1  0
  3  4  1  0
  3 43  1  1
  4  5  1  0
  4 44  1  0
  4 45  1  0
  5  6  1  0
  5  8  1  0
  5 46  1  6
  6  7  1  0
  7 47  1  0
  7 48  1  0
  7 49  1  0
  8 24  1  0
  8  9  1  0
  8 50  1  6
  9 19  1  0
  9 10  1  6
  9 11  1  0
 10 51  1  0
 10 52  1  0
 10 53  1  0
 11 12  1  0
 12 13  1  0
 12 14  1  0
 12 54  1  6
 13 55  1  0
 13 56  1  0
 13 57  1  0
 14 15  1  0
 14 58  1  0
 14 59  1  0
 15 16  1  0
 15 17  1  0
 15 60  1  6
 16 61  1  0
 18 17  1  1
 17 62  1  0
 17 63  1  0
 18 39  1  0
 18 19  1  0
 18 21  1  0
 19 20  1  0
 19 64  1  6
 20 65  1  0
 21 39  1  0
 21 22  1  0
 21 66  1  1
 22 23  1  0
 22 24  1  0
 22 67  1  1
 23 68  1  0
 24 25  1  0
 24 39  1  6
 25 26  1  0
 25 69  1  1
 26 27  1  0
 26 28  1  0
 26 70  1  6
 27 71  1  0
 28 37  1  0
 28 29  1  0
 28 72  1  6
 29 30  1  0
 29 73  1  0
 29 74  1  0
 30 31  1  0
 30 32  1  0
 30 75  1  6
 31 76  1  0
 31 77  1  0
 31 78  1  0
 32 33  1  0
 32 34  1  1
 32 35  1  0
 33 79  1  0
 33 80  1  0
 33 81  1  0
 34 82  1  0
 35 36  1  0
 35 37  1  0
 35 83  1  6
 36 84  1  0
 37 38  1  1
 38 85  1  0
 38 86  1  0
 38 87  1  0
 39 40  1  1
 40 88  1  0
M  END
>  <i_m_ct_stereo_status>  (288) 
1

>  <s_m_source_file>  (288) 
/var/tmp/pbs.5076255.sched01/tmpos3i1bch/920fm1no0n.sdf

>  <i_m_source_file_index>  (288) 
29

>  <i_lp_mmshare_version>  (288) 
48012

>  <i_f3d_flags>  (288) 
0

>  <s_epik_input>  (288) 
W09IXVtDQEBIXTFbQ0BdKFtDSDNdKShbT0hdKVtDQEhdKFtDSDNdKVtDSDJdW0NASF0oW0NASF0oW09IXSlbQ0BASF0yQzM9W0NIMl0pW0NAQF0xKFtDSDNdKVtDQEBIXTNbQ0gyXVtDQEBIXShPW0NIM10pW0NASF0oW0NAXTIoW0NAQEhdNFtPSF0pW0NAQF01KFtDQEhdNFtDQF01NjcpW09IXSlbQ0BdKFtDSDNdKShbQ0BASF03W09IXSlPW0NAQEhdKFtDSDNdKVtDSDJdW0NAQEhdKFtPSF0pW0NIMl02

>  <s_epik_cmdline>  (288) 
J2VwaWtfcHl0aG9uJywgJy1waHQnLCAnMi4wJywgJy1waCcsICc3LjAnLCAnLXRuJywgJzgnLCAnLW1hJywgJzIwMCcsICctaW1hZScsICc8aW5maWxlLm1hZT4nLCAnLW9tYWUnLCAnPG91dGZpbGUubWFlPic=

>  <r_lp_tautomer_probability>  (288) 
1

>  <r_epik_Ionization_Penalty>  (288) 
2.33292e-06

>  <r_epik_Ionization_Penalty_Charging>  (288) 
0

>  <r_epik_Ionization_Penalty_Neutral>  (288) 
2.33292e-06

>  <r_epik_State_Penalty>  (288) 
-0

>  <r_epik_Charging_Adjusted_Penalty>  (288) 
0

>  <i_epik_Tot_Q>  (288) 
0

>  <i_epik_Tot_abs_Q>  (288) 
0

>  <s_lp_Force_Field>  (288) 
OPLS3e

>  <r_lp_Energy>  (288) 
89.9559

>  <b_lp_Chiralities_Consistent>  (288) 
1

>  <s_lp_Variant>  (288) 
87:0-1

>  <s_i_glide_gridfile>  (288) 
pfpi4k_grid

>  <i_i_glide_lignum>  (288) 
29

>  <i_i_glide_rotatable_bonds>  (288) 
8

>  <r_i_docking_score>  (288) 
-3.26055

>  <r_i_glide_ligand_efficiency>  (288) 
-0.0815136

>  <r_i_glide_ligand_efficiency_sa>  (288) 
-0.278773

>  <r_i_glide_ligand_efficiency_ln>  (288) 
-0.695378

>  <r_i_glide_gscore>  (288) 
-3.26055

>  <r_i_glide_lipo>  (288) 
-0.293896

>  <r_i_glide_hbond>  (288) 
0

>  <r_i_glide_metal>  (288) 
-0

>  <r_i_glide_rewards>  (288) 
-0.5

>  <r_i_glide_evdw>  (288) 
-24.8832

>  <r_i_glide_ecoul>  (288) 
-8.14994

>  <r_i_glide_erotb>  (288) 
0

>  <r_i_glide_esite>  (288) 
0

>  <r_i_glide_emodel>  (288) 
-44.2635

>  <r_i_glide_energy>  (288) 
-33.0331

>  <r_i_glide_einternal>  (288) 
1.5616

>  <r_i_glide_intrahb_reward>  (288) 
-0.5

>  <i_i_glide_confnum>  (288) 
2

>  <i_i_glide_posenum>  (288) 
33

>  <r_i_glide_eff_state_penalty>  (288) 
0

>  <ligand_id>  (288) 
87

>  <original_smiles>  (288) 
C=C1C2CC(OC)C3C4(C)OC(C)CC(O)CC5(C4O)C4C(O)C3(C1C(O)C1CC(C)C(C)(O)C(O)C21C)C45O

>  <smiles>  (288) 
[H]OC1([H])C([H])([H])C([H])(C([H])([H])[H])OC2(C([H])([H])[H])C([H])(O[H])C3(C1([H])[H])C1([H])C([H])(O[H])C4(C5([H])C(=C([H])[H])C([H])(C([H])([H])C([H])(OC([H])([H])[H])C24[H])C2(C([H])([H])[H])C([H])(O[H])C(O[H])(C([H])([H])[H])C([H])(C([H])([H])[H])C([H])([H])C2([H])C5([H])O[H])C13O[H]

$$$$
87:0:1
     RDKit          3D

 88 94  0  0  1  0  0  0  0  0999 V2000
    4.8956   -0.4889    4.6454 C   0  0  0  0  0  0  0  0  0  0  0  0
    3.7277   -1.0628    4.9007 C   0  0  0  0  0  0  0  0  0  0  0  0
    3.5067   -1.9762    6.1090 C   0  0  1  0  0  0  0  0  0  0  0  0
    2.5975   -1.3206    7.1942 C   0  0  0  0  0  0  0  0  0  0  0  0
    2.1274    0.1337    7.0342 C   0  0  1  0  0  0  0  0  0  0  0  0
    3.2534    1.0136    7.0607 O   0  0  0  0  0  0  0  0  0  0  0  0
    3.0669    2.2712    7.7273 C   0  0  0  0  0  0  0  0  0  0  0  0
    1.0936    0.3253    5.8615 C   0  0  1  0  0  0  0  0  0  0  0  0
   -0.0720    1.3790    6.1467 C   0  0  1  0  0  0  0  0  0  0  0  0
   -0.7615    1.1360    7.5229 C   0  0  0  0  0  0  0  0  0  0  0  0
    0.4569    2.7292    6.1339 O   0  0  0  0  0  0  0  0  0  0  0  0
   -0.4587    3.8641    6.1323 C   0  0  1  0  0  0  0  0  0  0  0  0
    0.1790    4.8459    7.1216 C   0  0  0  0  0  0  0  0  0  0  0  0
   -0.6736    4.5317    4.7270 C   0  0  0  0  0  0  0  0  0  0  0  0
   -1.7699    3.9590    3.7881 C   0  0  1  0  0  0  0  0  0  0  0  0
   -2.1013    4.9356    2.8198 O   0  0  0  0  0  0  0  0  0  0  0  0
   -1.4432    2.6471    3.0089 C   0  0  0  0  0  0  0  0  0  0  0  0
   -0.4768    1.7615    3.7718 C   0  0  2  0  0  0  0  0  0  0  0  0
   -1.1362    1.3010    5.0494 C   0  0  1  0  0  0  0  0  0  0  0  0
   -1.7238    0.0325    4.9047 O   0  0  0  0  0  0  0  0  0  0  0  0
    0.9806    2.1130    3.3249 C   0  0  2  0  0  0  0  0  0  0  0  0
    2.2916    1.7277    3.9433 C   0  0  1  0  0  0  0  0  0  0  0  0
    2.7837    2.7189    4.8164 O   0  0  0  0  0  0  0  0  0  0  0  0
    1.6801    0.3981    4.4147 C   0  0  1  0  0  0  0  0  0  0  0  0
    2.5100   -0.8830    3.9951 C   0  0  2  0  0  0  0  0  0  0  0  0
    1.7278   -2.2201    3.7439 C   0  0  1  0  0  0  0  0  0  0  0  0
    2.2228   -2.8112    2.5504 O   0  0  0  0  0  0  0  0  0  0  0  0
    1.7455   -3.2760    4.8854 C   0  0  1  0  0  0  0  0  0  0  0  0
    1.1681   -4.6406    4.4889 C   0  0  0  0  0  0  0  0  0  0  0  0
    0.9101   -5.5360    5.7194 C   0  0  1  0  0  0  0  0  0  0  0  0
    0.1672   -6.8223    5.3034 C   0  0  0  0  0  0  0  0  0  0  0  0
    2.2102   -5.7760    6.5366 C   0  0  1  0  0  0  0  0  0  0  0  0
    1.9032   -6.5240    7.8601 C   0  0  0  0  0  0  0  0  0  0  0  0
    3.0725   -6.6243    5.8114 O   0  0  0  0  0  0  0  0  0  0  0  0
    2.9036   -4.4047    6.8379 C   0  0  1  0  0  0  0  0  0  0  0  0
    4.1402   -4.5941    7.5307 O   0  0  0  0  0  0  0  0  0  0  0  0
    3.1042   -3.4132    5.6244 C   0  0  2  0  0  0  0  0  0  0  0  0
    4.2273   -3.9614    4.6957 C   0  0  0  0  0  0  0  0  0  0  0  0
    0.5529    0.7033    3.3997 C   0  0  1  0  0  0  0  0  0  0  0  0
    0.5917    0.1498    2.1246 O   0  0  0  0  0  0  0  0  0  0  0  0
    5.0304    0.1445    3.7799 H   0  0  0  0  0  0  0  0  0  0  0  0
    5.7412   -0.6363    5.2910 H   0  0  0  0  0  0  0  0  0  0  0  0
    4.4897   -2.0630    6.5735 H   0  0  0  0  0  0  0  0  0  0  0  0
    1.6980   -1.9190    7.3505 H   0  0  0  0  0  0  0  0  0  0  0  0
    3.1350   -1.3965    8.1325 H   0  0  0  0  0  0  0  0  0  0  0  0
    1.6036    0.2894    7.9638 H   0  0  0  0  0  0  0  0  0  0  0  0
    3.9923    2.8683    7.5989 H   0  0  0  0  0  0  0  0  0  0  0  0
    2.9270    2.1745    8.8272 H   0  0  0  0  0  0  0  0  0  0  0  0
    2.2163    2.8409    7.3373 H   0  0  0  0  0  0  0  0  0  0  0  0
    0.5417   -0.6130    5.8762 H   0  0  0  0  0  0  0  0  0  0  0  0
   -0.9226    0.0699    7.7021 H   0  0  0  0  0  0  0  0  0  0  0  0
   -1.7377    1.6219    7.6072 H   0  0  0  0  0  0  0  0  0  0  0  0
   -0.1444    1.5218    8.3430 H   0  0  0  0  0  0  0  0  0  0  0  0
   -1.4470    3.6061    6.5609 H   0  0  0  0  0  0  0  0  0  0  0  0
   -0.4015    5.7541    7.2288 H   0  0  0  0  0  0  0  0  0  0  0  0
    1.1726    5.1229    6.7718 H   0  0  0  0  0  0  0  0  0  0  0  0
    0.2818    4.4028    8.1117 H   0  0  0  0  0  0  0  0  0  0  0  0
   -0.9313    5.5633    4.9357 H   0  0  0  0  0  0  0  0  0  0  0  0
    0.2955    4.5857    4.2386 H   0  0  0  0  0  0  0  0  0  0  0  0
   -2.6630    3.7840    4.3939 H   0  0  0  0  0  0  0  0  0  0  0  0
   -1.4260    4.9378    2.1477 H   0  0  0  0  0  0  0  0  0  0  0  0
   -2.3556    2.0938    2.7543 H   0  0  0  0  0  0  0  0  0  0  0  0
   -0.9738    2.9075    2.0572 H   0  0  0  0  0  0  0  0  0  0  0  0
   -1.9912    1.9137    5.2943 H   0  0  0  0  0  0  0  0  0  0  0  0
   -2.3337    0.0542    4.1662 H   0  0  0  0  0  0  0  0  0  0  0  0
    1.1330    2.5995    2.3540 H   0  0  0  0  0  0  0  0  0  0  0  0
    3.0404    1.5680    3.1585 H   0  0  0  0  0  0  0  0  0  0  0  0
    2.0638    2.9193    5.4110 H   0  0  0  0  0  0  0  0  0  0  0  0
    2.9660   -0.6434    3.0204 H   0  0  0  0  0  0  0  0  0  0  0  0
    0.6753   -1.9989    3.5290 H   0  0  0  0  0  0  0  0  0  0  0  0
    2.1159   -2.1672    1.8447 H   0  0  0  0  0  0  0  0  0  0  0  0
    1.0332   -2.8883    5.5935 H   0  0  0  0  0  0  0  0  0  0  0  0
    0.2167   -4.4768    3.9552 H   0  0  0  0  0  0  0  0  0  0  0  0
    1.8192   -5.1601    3.7870 H   0  0  0  0  0  0  0  0  0  0  0  0
    0.2323   -4.9914    6.3618 H   0  0  0  0  0  0  0  0  0  0  0  0
    0.7643   -7.4749    4.6579 H   0  0  0  0  0  0  0  0  0  0  0  0
   -0.7431   -6.5695    4.7507 H   0  0  0  0  0  0  0  0  0  0  0  0
   -0.1559   -7.4095    6.1666 H   0  0  0  0  0  0  0  0  0  0  0  0
    1.1971   -5.9726    8.4773 H   0  0  0  0  0  0  0  0  0  0  0  0
    2.7992   -6.6914    8.4601 H   0  0  0  0  0  0  0  0  0  0  0  0
    1.4794   -7.5125    7.6850 H   0  0  0  0  0  0  0  0  0  0  0  0
    2.6514   -7.4704    5.7255 H   0  0  0  0  0  0  0  0  0  0  0  0
    2.2526   -3.9350    7.5746 H   0  0  0  0  0  0  0  0  0  0  0  0
    3.9748   -5.1675    8.2736 H   0  0  0  0  0  0  0  0  0  0  0  0
    3.9951   -4.9349    4.2813 H   0  0  0  0  0  0  0  0  0  0  0  0
    5.1826   -4.0585    5.2236 H   0  0  0  0  0  0  0  0  0  0  0  0
    4.4150   -3.3190    3.8406 H   0  0  0  0  0  0  0  0  0  0  0  0
    0.2675    0.7890    1.5015 H   0  0  0  0  0  0  0  0  0  0  0  0
  1  2  2  0
  1 41  1  0
  1 42  1  0
  2 25  1  0
  2  3  1  0
  3 37  1  0
  3  4  1  0
  3 43  1  1
  4  5  1  0
  4 44  1  0
  4 45  1  0
  5  6  1  0
  5  8  1  0
  5 46  1  1
  6  7  1  0
  7 47  1  0
  7 48  1  0
  7 49  1  0
  8 24  1  0
  8  9  1  0
  8 50  1  6
  9 19  1  0
  9 10  1  1
  9 11  1  0
 10 51  1  0
 10 52  1  0
 10 53  1  0
 11 12  1  0
 12 13  1  0
 12 14  1  0
 12 54  1  1
 13 55  1  0
 13 56  1  0
 13 57  1  0
 14 15  1  0
 14 58  1  0
 14 59  1  0
 15 16  1  0
 15 17  1  0
 15 60  1  1
 16 61  1  0
 18 17  1  6
 17 62  1  0
 17 63  1  0
 18 39  1  0
 18 19  1  0
 18 21  1  0
 19 20  1  0
 19 64  1  1
 20 65  1  0
 21 39  1  0
 21 22  1  0
 21 66  1  6
 22 23  1  0
 22 24  1  0
 22 67  1  6
 23 68  1  0
 24 25  1  0
 24 39  1  6
 25 26  1  0
 25 69  1  6
 26 27  1  0
 26 28  1  0
 26 70  1  6
 27 71  1  0
 28 37  1  0
 28 29  1  0
 28 72  1  1
 29 30  1  0
 29 73  1  0
 29 74  1  0
 30 31  1  0
 30 32  1  0
 30 75  1  1
 31 76  1  0
 31 77  1  0
 31 78  1  0
 32 33  1  0
 32 34  1  6
 32 35  1  0
 33 79  1  0
 33 80  1  0
 33 81  1  0
 34 82  1  0
 35 36  1  0
 35 37  1  0
 35 83  1  1
 36 84  1  0
 37 38  1  6
 38 85  1  0
 38 86  1  0
 38 87  1  0
 39 40  1  6
 40 88  1  0
M  END
>  <i_m_ct_stereo_status>  (289) 
1

>  <s_m_source_file>  (289) 
/var/tmp/pbs.5076255.sched01/tmpos3i1bch/920fm1no0n.sdf

>  <i_m_source_file_index>  (289) 
29

>  <i_lp_mmshare_version>  (289) 
48012

>  <i_f3d_flags>  (289) 
0

>  <s_epik_input>  (289) 
W09IXVtDQEBIXTFbQ0BdKFtDSDNdKShbT0hdKVtDQEhdKFtDSDNdKVtDSDJdW0NASF0oW0NASF0oW09IXSlbQ0BASF0yQzM9W0NIMl0pW0NAQF0xKFtDSDNdKVtDQEBIXTNbQ0gyXVtDQEBIXShPW0NIM10pW0NASF0oW0NAXTIoW0NAQEhdNFtPSF0pW0NAQF01KFtDQEhdNFtDQF01NjcpW09IXSlbQ0BdKFtDSDNdKShbQ0BASF03W09IXSlPW0NAQEhdKFtDSDNdKVtDSDJdW0NAQEhdKFtPSF0pW0NIMl02

>  <s_epik_cmdline>  (289) 
J2VwaWtfcHl0aG9uJywgJy1waHQnLCAnMi4wJywgJy1waCcsICc3LjAnLCAnLXRuJywgJzgnLCAnLW1hJywgJzIwMCcsICctaW1hZScsICc8aW5maWxlLm1hZT4nLCAnLW9tYWUnLCAnPG91dGZpbGUubWFlPic=

>  <r_lp_tautomer_probability>  (289) 
1

>  <r_epik_Ionization_Penalty>  (289) 
2.33292e-06

>  <r_epik_Ionization_Penalty_Charging>  (289) 
0

>  <r_epik_Ionization_Penalty_Neutral>  (289) 
2.33292e-06

>  <r_epik_State_Penalty>  (289) 
-0

>  <r_epik_Charging_Adjusted_Penalty>  (289) 
0

>  <i_epik_Tot_Q>  (289) 
0

>  <i_epik_Tot_abs_Q>  (289) 
0

>  <s_lp_Force_Field>  (289) 
OPLS3e

>  <r_lp_Energy>  (289) 
89.9559

>  <b_lp_Chiralities_Consistent>  (289) 
1

>  <s_lp_Variant>  (289) 
87:0-1

>  <s_i_glide_gridfile>  (289) 
pfpi4k_grid

>  <i_i_glide_lignum>  (289) 
29

>  <i_i_glide_rotatable_bonds>  (289) 
8

>  <r_i_docking_score>  (289) 
-3.12912

>  <r_i_glide_ligand_efficiency>  (289) 
-0.0782279

>  <r_i_glide_ligand_efficiency_sa>  (289) 
-0.267536

>  <r_i_glide_ligand_efficiency_ln>  (289) 
-0.667348

>  <r_i_glide_gscore>  (289) 
-3.12912

>  <r_i_glide_lipo>  (289) 
-0.075295

>  <r_i_glide_hbond>  (289) 
-0.483467

>  <r_i_glide_metal>  (289) 
-0

>  <r_i_glide_rewards>  (289) 
-0.5

>  <r_i_glide_evdw>  (289) 
-20.6147

>  <r_i_glide_ecoul>  (289) 
-6.9308

>  <r_i_glide_erotb>  (289) 
0

>  <r_i_glide_esite>  (289) 
0

>  <r_i_glide_emodel>  (289) 
-37.2045

>  <r_i_glide_energy>  (289) 
-27.5455

>  <r_i_glide_einternal>  (289) 
2.571

>  <r_i_glide_intrahb_reward>  (289) 
-0.5

>  <i_i_glide_confnum>  (289) 
2

>  <i_i_glide_posenum>  (289) 
31

>  <r_i_glide_eff_state_penalty>  (289) 
0

>  <ligand_id>  (289) 
87

>  <original_smiles>  (289) 
C=C1C2CC(OC)C3C4(C)OC(C)CC(O)CC5(C4O)C4C(O)C3(C1C(O)C1CC(C)C(C)(O)C(O)C21C)C45O

>  <smiles>  (289) 
[H]OC1([H])C([H])([H])C([H])(C([H])([H])[H])OC2(C([H])([H])[H])C([H])(O[H])C3(C1([H])[H])C1([H])C([H])(O[H])C4(C5([H])C(=C([H])[H])C([H])(C([H])([H])C([H])(OC([H])([H])[H])C24[H])C2(C([H])([H])[H])C([H])(O[H])C(O[H])(C([H])([H])[H])C([H])(C([H])([H])[H])C([H])([H])C2([H])C5([H])O[H])C13O[H]

$$$$
87:0:2
     RDKit          3D

 88 94  0  0  1  0  0  0  0  0999 V2000
    4.9194   -0.5083    4.6026 C   0  0  0  0  0  0  0  0  0  0  0  0
    3.7341   -1.0786    4.8741 C   0  0  0  0  0  0  0  0  0  0  0  0
    3.5457   -1.9940    6.0761 C   0  0  1  0  0  0  0  0  0  0  0  0
    2.6407   -1.3668    7.1758 C   0  0  0  0  0  0  0  0  0  0  0  0
    2.1732    0.0993    7.0100 C   0  0  1  0  0  0  0  0  0  0  0  0
    3.2576    1.0248    6.9771 O   0  0  0  0  0  0  0  0  0  0  0  0
    4.0386    1.1150    8.1631 C   0  0  0  0  0  0  0  0  0  0  0  0
    1.1233    0.2940    5.8577 C   0  0  1  0  0  0  0  0  0  0  0  0
   -0.0165    1.3789    6.1827 C   0  0  1  0  0  0  0  0  0  0  0  0
   -0.7031    1.1339    7.5486 C   0  0  0  0  0  0  0  0  0  0  0  0
    0.5183    2.7214    6.1697 O   0  0  0  0  0  0  0  0  0  0  0  0
   -0.3767    3.8543    6.1500 C   0  0  1  0  0  0  0  0  0  0  0  0
    0.2587    4.8614    7.1140 C   0  0  0  0  0  0  0  0  0  0  0  0
   -0.5939    4.5069    4.7413 C   0  0  0  0  0  0  0  0  0  0  0  0
   -1.7233    3.9394    3.8164 C   0  0  1  0  0  0  0  0  0  0  0  0
   -2.0758    4.9368    2.8855 O   0  0  0  0  0  0  0  0  0  0  0  0
   -1.4158    2.6370    3.0202 C   0  0  0  0  0  0  0  0  0  0  0  0
   -0.4421    1.7660    3.7702 C   0  0  2  0  0  0  0  0  0  0  0  0
   -1.0739    1.3255    5.0751 C   0  0  1  0  0  0  0  0  0  0  0  0
   -1.6819    0.0470    4.9395 O   0  0  0  0  0  0  0  0  0  0  0  0
    1.0269    2.1333    3.3502 C   0  0  2  0  0  0  0  0  0  0  0  0
    2.3216    1.7371    3.9876 C   0  0  1  0  0  0  0  0  0  0  0  0
    2.8029    2.7070    4.8911 O   0  0  0  0  0  0  0  0  0  0  0  0
    1.7290    0.3759    4.4037 C   0  0  1  0  0  0  0  0  0  0  0  0
    2.5292   -0.9007    3.9661 C   0  0  2  0  0  0  0  0  0  0  0  0
    1.7382   -2.2341    3.7260 C   0  0  1  0  0  0  0  0  0  0  0  0
    2.2182   -2.8477    2.5426 O   0  0  0  0  0  0  0  0  0  0  0  0
    1.7663   -3.2803    4.8747 C   0  0  1  0  0  0  0  0  0  0  0  0
    1.1701   -4.6484    4.4876 C   0  0  0  0  0  0  0  0  0  0  0  0
    0.9370   -5.5436    5.7236 C   0  0  1  0  0  0  0  0  0  0  0  0
    0.1769   -6.8249    5.3196 C   0  0  0  0  0  0  0  0  0  0  0  0
    2.2447   -5.7781    6.5449 C   0  0  1  0  0  0  0  0  0  0  0  0
    1.9355   -6.5185    7.8627 C   0  0  0  0  0  0  0  0  0  0  0  0
    3.1239   -6.6261    5.8305 O   0  0  0  0  0  0  0  0  0  0  0  0
    2.9406   -4.4093    6.8354 C   0  0  1  0  0  0  0  0  0  0  0  0
    4.1717   -4.6059    7.5071 O   0  0  0  0  0  0  0  0  0  0  0  0
    3.1322   -3.4301    5.6145 C   0  0  2  0  0  0  0  0  0  0  0  0
    4.2476   -3.9764    4.6706 C   0  0  0  0  0  0  0  0  0  0  0  0
    0.5834    0.7137    3.4297 C   0  0  1  0  0  0  0  0  0  0  0  0
    0.5683    0.1527    2.1527 O   0  0  0  0  0  0  0  0  0  0  0  0
    5.0437    0.1303    3.7403 H   0  0  0  0  0  0  0  0  0  0  0  0
    5.7748   -0.6488    5.2516 H   0  0  0  0  0  0  0  0  0  0  0  0
    4.5287   -2.0776    6.5438 H   0  0  0  0  0  0  0  0  0  0  0  0
    1.7301   -1.9384    7.3325 H   0  0  0  0  0  0  0  0  0  0  0  0
    3.1586   -1.4746    8.1282 H   0  0  0  0  0  0  0  0  0  0  0  0
    1.6581    0.3053    7.9433 H   0  0  0  0  0  0  0  0  0  0  0  0
    4.7492    1.9330    8.0578 H   0  0  0  0  0  0  0  0  0  0  0  0
    4.6219    0.2115    8.3377 H   0  0  0  0  0  0  0  0  0  0  0  0
    3.4370    1.3199    9.0502 H   0  0  0  0  0  0  0  0  0  0  0  0
    0.5628   -0.6424    5.8823 H   0  0  0  0  0  0  0  0  0  0  0  0
   -0.8685    0.0683    7.7068 H   0  0  0  0  0  0  0  0  0  0  0  0
   -1.6693    1.6328    7.6031 H   0  0  0  0  0  0  0  0  0  0  0  0
   -0.0904    1.5201    8.3626 H   0  0  0  0  0  0  0  0  0  0  0  0
   -1.3428    3.6033    6.5880 H   0  0  0  0  0  0  0  0  0  0  0  0
   -0.3455    5.7635    7.2062 H   0  0  0  0  0  0  0  0  0  0  0  0
    1.2510    5.1577    6.7743 H   0  0  0  0  0  0  0  0  0  0  0  0
    0.3571    4.4401    8.1142 H   0  0  0  0  0  0  0  0  0  0  0  0
   -0.8710    5.5418    4.9439 H   0  0  0  0  0  0  0  0  0  0  0  0
    0.3563    4.5833    4.2106 H   0  0  0  0  0  0  0  0  0  0  0  0
   -2.6155    3.7815    4.4243 H   0  0  0  0  0  0  0  0  0  0  0  0
   -1.4252    4.9324    2.1750 H   0  0  0  0  0  0  0  0  0  0  0  0
   -2.3263    2.0881    2.7934 H   0  0  0  0  0  0  0  0  0  0  0  0
   -0.9797    2.8931    2.0710 H   0  0  0  0  0  0  0  0  0  0  0  0
   -1.9295    1.9469    5.3356 H   0  0  0  0  0  0  0  0  0  0  0  0
   -2.2685    0.0871    4.1963 H   0  0  0  0  0  0  0  0  0  0  0  0
    1.1793    2.5987    2.3757 H   0  0  0  0  0  0  0  0  0  0  0  0
    3.0793    1.5952    3.2233 H   0  0  0  0  0  0  0  0  0  0  0  0
    2.0822    2.8887    5.4830 H   0  0  0  0  0  0  0  0  0  0  0  0
    2.9621   -0.6570    2.9986 H   0  0  0  0  0  0  0  0  0  0  0  0
    0.6911   -2.0107    3.5249 H   0  0  0  0  0  0  0  0  0  0  0  0
    3.1509   -2.9627    2.6287 H   0  0  0  0  0  0  0  0  0  0  0  0
    1.0540   -2.8904    5.5931 H   0  0  0  0  0  0  0  0  0  0  0  0
    0.2177   -4.4785    3.9756 H   0  0  0  0  0  0  0  0  0  0  0  0
    1.8142   -5.1713    3.7801 H   0  0  0  0  0  0  0  0  0  0  0  0
    0.2601   -4.9888    6.3735 H   0  0  0  0  0  0  0  0  0  0  0  0
    0.7724   -7.4785    4.6800 H   0  0  0  0  0  0  0  0  0  0  0  0
   -0.7333   -6.5678    4.7753 H   0  0  0  0  0  0  0  0  0  0  0  0
   -0.1383   -7.4001    6.1889 H   0  0  0  0  0  0  0  0  0  0  0  0
    1.2311   -5.9636    8.4800 H   0  0  0  0  0  0  0  0  0  0  0  0
    2.8348   -6.6754    8.4551 H   0  0  0  0  0  0  0  0  0  0  0  0
    1.5148   -7.5057    7.6864 H   0  0  0  0  0  0  0  0  0  0  0  0
    3.2690   -6.2628    4.9726 H   0  0  0  0  0  0  0  0  0  0  0  0
    2.2948   -3.9384    7.5712 H   0  0  0  0  0  0  0  0  0  0  0  0
    4.7222   -5.1351    6.9486 H   0  0  0  0  0  0  0  0  0  0  0  0
    4.0088   -4.9453    4.2423 H   0  0  0  0  0  0  0  0  0  0  0  0
    5.2037   -4.0721    5.1886 H   0  0  0  0  0  0  0  0  0  0  0  0
    4.4378   -3.3265    3.8202 H   0  0  0  0  0  0  0  0  0  0  0  0
    0.2278    0.7741    1.5235 H   0  0  0  0  0  0  0  0  0  0  0  0
  1  2  2  0
  1 41  1  0
  1 42  1  0
  2 25  1  0
  2  3  1  0
  3 37  1  0
  3  4  1  0
  3 43  1  1
  4  5  1  0
  4 44  1  0
  4 45  1  0
  5  6  1  0
  5  8  1  0
  5 46  1  1
  6  7  1  0
  7 47  1  0
  7 48  1  0
  7 49  1  0
  8 24  1  0
  8  9  1  0
  8 50  1  6
  9 19  1  0
  9 10  1  1
  9 11  1  0
 10 51  1  0
 10 52  1  0
 10 53  1  0
 11 12  1  0
 12 13  1  0
 12 14  1  0
 12 54  1  1
 13 55  1  0
 13 56  1  0
 13 57  1  0
 14 15  1  0
 14 58  1  0
 14 59  1  0
 15 16  1  0
 15 17  1  0
 15 60  1  1
 16 61  1  0
 18 17  1  6
 17 62  1  0
 17 63  1  0
 18 39  1  0
 18 19  1  0
 18 21  1  0
 19 20  1  0
 19 64  1  1
 20 65  1  0
 21 39  1  0
 21 22  1  0
 21 66  1  6
 22 23  1  0
 22 24  1  0
 22 67  1  6
 23 68  1  0
 24 25  1  0
 24 39  1  6
 25 26  1  0
 25 69  1  6
 26 27  1  0
 26 28  1  0
 26 70  1  6
 27 71  1  0
 28 37  1  0
 28 29  1  0
 28 72  1  1
 29 30  1  0
 29 73  1  0
 29 74  1  0
 30 31  1  0
 30 32  1  0
 30 75  1  1
 31 76  1  0
 31 77  1  0
 31 78  1  0
 32 33  1  0
 32 34  1  6
 32 35  1  0
 33 79  1  0
 33 80  1  0
 33 81  1  0
 34 82  1  0
 35 36  1  0
 35 37  1  0
 35 83  1  1
 36 84  1  0
 37 38  1  6
 38 85  1  0
 38 86  1  0
 38 87  1  0
 39 40  1  6
 40 88  1  0
M  END
>  <i_m_ct_stereo_status>  (290) 
1

>  <s_m_source_file>  (290) 
/var/tmp/pbs.5076255.sched01/tmpos3i1bch/920fm1no0n.sdf

>  <i_m_source_file_index>  (290) 
29

>  <i_lp_mmshare_version>  (290) 
48012

>  <i_f3d_flags>  (290) 
0

>  <s_epik_input>  (290) 
W09IXVtDQEBIXTFbQ0BdKFtDSDNdKShbT0hdKVtDQEhdKFtDSDNdKVtDSDJdW0NASF0oW0NASF0oW09IXSlbQ0BASF0yQzM9W0NIMl0pW0NAQF0xKFtDSDNdKVtDQEBIXTNbQ0gyXVtDQEBIXShPW0NIM10pW0NASF0oW0NAXTIoW0NAQEhdNFtPSF0pW0NAQF01KFtDQEhdNFtDQF01NjcpW09IXSlbQ0BdKFtDSDNdKShbQ0BASF03W09IXSlPW0NAQEhdKFtDSDNdKVtDSDJdW0NAQEhdKFtPSF0pW0NIMl02

>  <s_epik_cmdline>  (290) 
J2VwaWtfcHl0aG9uJywgJy1waHQnLCAnMi4wJywgJy1waCcsICc3LjAnLCAnLXRuJywgJzgnLCAnLW1hJywgJzIwMCcsICctaW1hZScsICc8aW5maWxlLm1hZT4nLCAnLW9tYWUnLCAnPG91dGZpbGUubWFlPic=

>  <r_lp_tautomer_probability>  (290) 
1

>  <r_epik_Ionization_Penalty>  (290) 
2.33292e-06

>  <r_epik_Ionization_Penalty_Charging>  (290) 
0

>  <r_epik_Ionization_Penalty_Neutral>  (290) 
2.33292e-06

>  <r_epik_State_Penalty>  (290) 
-0

>  <r_epik_Charging_Adjusted_Penalty>  (290) 
0

>  <i_epik_Tot_Q>  (290) 
0

>  <i_epik_Tot_abs_Q>  (290) 
0

>  <s_lp_Force_Field>  (290) 
OPLS3e

>  <r_lp_Energy>  (290) 
89.9559

>  <b_lp_Chiralities_Consistent>  (290) 
1

>  <s_lp_Variant>  (290) 
87:0-1

>  <s_i_glide_gridfile>  (290) 
pfpi4k_grid

>  <i_i_glide_lignum>  (290) 
29

>  <i_i_glide_rotatable_bonds>  (290) 
8

>  <r_i_docking_score>  (290) 
-2.83974

>  <r_i_glide_ligand_efficiency>  (290) 
-0.0709934

>  <r_i_glide_ligand_efficiency_sa>  (290) 
-0.242794

>  <r_i_glide_ligand_efficiency_ln>  (290) 
-0.605632

>  <r_i_glide_gscore>  (290) 
-2.83974

>  <r_i_glide_lipo>  (290) 
-0.0786719

>  <r_i_glide_hbond>  (290) 
-0.423164

>  <r_i_glide_metal>  (290) 
-0

>  <r_i_glide_rewards>  (290) 
-0.5

>  <r_i_glide_evdw>  (290) 
-20.6239

>  <r_i_glide_ecoul>  (290) 
-5.37804

>  <r_i_glide_erotb>  (290) 
0

>  <r_i_glide_esite>  (290) 
0

>  <r_i_glide_emodel>  (290) 
-36.691

>  <r_i_glide_energy>  (290) 
-26.0019

>  <r_i_glide_einternal>  (290) 
1.22437

>  <r_i_glide_intrahb_reward>  (290) 
-0.5

>  <i_i_glide_confnum>  (290) 
2

>  <i_i_glide_posenum>  (290) 
7

>  <r_i_glide_eff_state_penalty>  (290) 
0

>  <ligand_id>  (290) 
87

>  <original_smiles>  (290) 
C=C1C2CC(OC)C3C4(C)OC(C)CC(O)CC5(C4O)C4C(O)C3(C1C(O)C1CC(C)C(C)(O)C(O)C21C)C45O

>  <smiles>  (290) 
[H]OC1([H])C([H])([H])C([H])(C([H])([H])[H])OC2(C([H])([H])[H])C([H])(O[H])C3(C1([H])[H])C1([H])C([H])(O[H])C4(C5([H])C(=C([H])[H])C([H])(C([H])([H])C([H])(OC([H])([H])[H])C24[H])C2(C([H])([H])[H])C([H])(O[H])C(O[H])(C([H])([H])[H])C([H])(C([H])([H])[H])C([H])([H])C2([H])C5([H])O[H])C13O[H]

$$$$
88:0:0
     RDKit          3D

 34 35  0  0  1  0  0  0  0  0999 V2000
    6.0003   -4.4101    0.0293 C   0  0  0  0  0  0  0  0  0  0  0  0
    5.9676   -5.7515    0.4818 O   0  0  0  0  0  0  0  0  0  0  0  0
    4.7743   -6.2600    0.9472 C   0  0  0  0  0  0  0  0  0  0  0  0
    3.5726   -5.5125    1.0226 C   0  0  0  0  0  0  0  0  0  0  0  0
    2.4009   -6.0962    1.5378 C   0  0  0  0  0  0  0  0  0  0  0  0
    2.4117   -7.4395    1.9719 C   0  0  0  0  0  0  0  0  0  0  0  0
    1.2099   -8.1016    2.5244 C   0  0  0  0  0  0  0  0  0  0  0  0
    0.0836   -7.5367    2.6533 N   0  0  0  0  0  0  0  0  0  0  0  0
   -0.8448   -8.4796    3.2277 C   0  0  0  0  0  0  0  0  0  0  0  0
   -1.3667   -7.9278    4.5652 C   0  0  0  0  0  0  0  0  0  0  0  0
   -2.0022   -8.7096    2.2497 C   0  0  0  0  0  0  0  0  0  0  0  0
   -0.0228   -9.7635    3.4258 C   0  0  0  0  0  0  0  0  0  0  0  0
    1.2512   -9.3960    2.9502 O   0  0  0  0  0  0  0  0  0  0  0  0
    3.6019   -8.1874    1.8828 C   0  0  0  0  0  0  0  0  0  0  0  0
    4.7888   -7.6094    1.3739 C   0  0  0  0  0  0  0  0  0  0  0  0
    5.9859   -8.2906    1.2850 O   0  0  0  0  0  0  0  0  0  0  0  0
    5.9990   -9.6862    1.5599 C   0  0  0  0  0  0  0  0  0  0  0  0
    7.0042   -4.1790   -0.3287 H   0  0  0  0  0  0  0  0  0  0  0  0
    5.7692   -3.7194    0.8393 H   0  0  0  0  0  0  0  0  0  0  0  0
    5.3084   -4.2495   -0.7979 H   0  0  0  0  0  0  0  0  0  0  0  0
    3.5349   -4.4813    0.7017 H   0  0  0  0  0  0  0  0  0  0  0  0
    1.5045   -5.5069    1.6099 H   0  0  0  0  0  0  0  0  0  0  0  0
   -2.0265   -8.6559    5.0391 H   0  0  0  0  0  0  0  0  0  0  0  0
   -1.9295   -6.9989    4.4471 H   0  0  0  0  0  0  0  0  0  0  0  0
   -0.5483   -7.7409    5.2630 H   0  0  0  0  0  0  0  0  0  0  0  0
   -2.6699   -9.4767    2.6330 H   0  0  0  0  0  0  0  0  0  0  0  0
   -1.6458   -9.0537    1.2792 H   0  0  0  0  0  0  0  0  0  0  0  0
   -2.5827   -7.8025    2.0961 H   0  0  0  0  0  0  0  0  0  0  0  0
    0.0435  -10.0698    4.4730 H   0  0  0  0  0  0  0  0  0  0  0  0
   -0.3987  -10.5998    2.8329 H   0  0  0  0  0  0  0  0  0  0  0  0
    3.5931   -9.2129    2.2251 H   0  0  0  0  0  0  0  0  0  0  0  0
    7.0095  -10.0662    1.4144 H   0  0  0  0  0  0  0  0  0  0  0  0
    5.3499  -10.2350    0.8786 H   0  0  0  0  0  0  0  0  0  0  0  0
    5.7183   -9.9037    2.5911 H   0  0  0  0  0  0  0  0  0  0  0  0
  1  2  1  0
  1 18  1  0
  1 19  1  0
  1 20  1  0
  2  3  1  0
  3 15  2  0
  3  4  1  0
  4  5  2  0
  4 21  1  0
  5  6  1  0
  5 22  1  0
  6  7  1  0
  6 14  2  0
  7 13  1  0
  7  8  2  0
  8  9  1  0
  9 10  1  0
  9 11  1  0
  9 12  1  0
 10 23  1  0
 10 24  1  0
 10 25  1  0
 11 26  1  0
 11 27  1  0
 11 28  1  0
 12 13  1  0
 12 29  1  0
 12 30  1  0
 14 15  1  0
 14 31  1  0
 15 16  1  0
 16 17  1  0
 17 32  1  0
 17 33  1  0
 17 34  1  0
M  END
>  <i_m_ct_stereo_status>  (291) 
1

>  <s_m_source_file>  (291) 
/var/tmp/pbs.5076255.sched01/tmpos3i1bch/920fm1no0n.sdf

>  <i_m_source_file_index>  (291) 
30

>  <i_lp_mmshare_version>  (291) 
48012

>  <i_f3d_flags>  (291) 
0

>  <s_epik_input>  (291) 
W0NIM11PYzFbY0hdW2NIXWMoQyhPW0NIMl0yKT1OQzIoW0NIM10pW0NIM10pW2NIXWMxT1tDSDNd

>  <s_epik_cmdline>  (291) 
J2VwaWtfcHl0aG9uJywgJy1waHQnLCAnMi4wJywgJy1waCcsICc3LjAnLCAnLXRuJywgJzgnLCAnLW1hJywgJzIwMCcsICctaW1hZScsICc8aW5maWxlLm1hZT4nLCAnLW9tYWUnLCAnPG91dGZpbGUubWFlPic=

>  <r_epik_Ionization_Penalty>  (291) 
0.01036

>  <r_epik_Ionization_Penalty_Charging>  (291) 
0

>  <r_epik_Ionization_Penalty_Neutral>  (291) 
0.01036

>  <r_epik_State_Penalty>  (291) 
0.00791825

>  <r_epik_Charging_Adjusted_Penalty>  (291) 
0.00791825

>  <i_epik_Tot_Q>  (291) 
0

>  <i_epik_Tot_abs_Q>  (291) 
0

>  <s_epik_Chemistry_Notes>  (291) 
This compound has an imine and may undergo hydrolysis.

>  <s_lp_Force_Field>  (291) 
OPLS3e

>  <r_lp_Energy>  (291) 
12.6249

>  <b_lp_Chiralities_Consistent>  (291) 
1

>  <s_lp_Variant>  (291) 
88:0-1

>  <s_i_glide_gridfile>  (291) 
pfpi4k_grid

>  <i_i_glide_lignum>  (291) 
30

>  <i_i_glide_rotatable_bonds>  (291) 
3

>  <r_i_docking_score>  (291) 
-3.30315

>  <r_i_glide_ligand_efficiency>  (291) 
-0.194303

>  <r_i_glide_ligand_efficiency_sa>  (291) 
-0.499608

>  <r_i_glide_ligand_efficiency_ln>  (291) 
-0.861718

>  <r_i_glide_gscore>  (291) 
-3.30315

>  <r_i_glide_lipo>  (291) 
-0.464765

>  <r_i_glide_hbond>  (291) 
0

>  <r_i_glide_metal>  (291) 
-0

>  <r_i_glide_rewards>  (291) 
-1.80492

>  <r_i_glide_evdw>  (291) 
-21.5476

>  <r_i_glide_ecoul>  (291) 
-1.61461

>  <r_i_glide_erotb>  (291) 
0.310582

>  <r_i_glide_esite>  (291) 
-0.0244777

>  <r_i_glide_emodel>  (291) 
-28.1616

>  <r_i_glide_energy>  (291) 
-23.1623

>  <r_i_glide_einternal>  (291) 
0.127312

>  <r_i_glide_intrahb_reward>  (291) 
-0

>  <i_i_glide_confnum>  (291) 
4

>  <i_i_glide_posenum>  (291) 
19

>  <r_i_glide_eff_state_penalty>  (291) 
0

>  <ligand_id>  (291) 
88

>  <original_smiles>  (291) 
COc1ccc(C2=NC(C)(C)CO2)cc1OC

>  <smiles>  (291) 
[H]c1c([H])c(C2=NC(C([H])([H])[H])(C([H])([H])[H])C([H])([H])O2)c([H])c(OC([H])([H])[H])c1OC([H])([H])[H]

$$$$
88:0:1
     RDKit          3D

 34 35  0  0  1  0  0  0  0  0999 V2000
    5.4428   -3.9396   -1.2468 C   0  0  0  0  0  0  0  0  0  0  0  0
    5.6708   -4.8162   -0.1551 O   0  0  0  0  0  0  0  0  0  0  0  0
    4.5879   -5.4471    0.4200 C   0  0  0  0  0  0  0  0  0  0  0  0
    3.2424   -5.1039    0.1428 C   0  0  0  0  0  0  0  0  0  0  0  0
    2.1899   -5.7988    0.7651 C   0  0  0  0  0  0  0  0  0  0  0  0
    2.4606   -6.8384    1.6753 C   0  0  0  0  0  0  0  0  0  0  0  0
    1.3775   -7.6067    2.3295 C   0  0  0  0  0  0  0  0  0  0  0  0
    0.1885   -7.1873    2.4752 N   0  0  0  0  0  0  0  0  0  0  0  0
   -0.5775   -8.2014    3.1679 C   0  0  0  0  0  0  0  0  0  0  0  0
   -1.0815   -7.6427    4.5094 C   0  0  0  0  0  0  0  0  0  0  0  0
   -1.7599   -8.6358    2.2881 C   0  0  0  0  0  0  0  0  0  0  0  0
    0.4159   -9.3552    3.3824 C   0  0  0  0  0  0  0  0  0  0  0  0
    1.6098   -8.8539    2.8235 O   0  0  0  0  0  0  0  0  0  0  0  0
    3.7990   -7.1780    1.9567 C   0  0  0  0  0  0  0  0  0  0  0  0
    4.8701   -6.4867    1.3368 C   0  0  0  0  0  0  0  0  0  0  0  0
    6.2000   -6.7768    1.5624 O   0  0  0  0  0  0  0  0  0  0  0  0
    6.5248   -7.8122    2.4812 C   0  0  0  0  0  0  0  0  0  0  0  0
    6.4003   -3.5360   -1.5803 H   0  0  0  0  0  0  0  0  0  0  0  0
    4.8118   -3.0955   -0.9716 H   0  0  0  0  0  0  0  0  0  0  0  0
    4.9994   -4.4750   -2.0864 H   0  0  0  0  0  0  0  0  0  0  0  0
    2.9945   -4.3279   -0.5682 H   0  0  0  0  0  0  0  0  0  0  0  0
    1.1743   -5.5520    0.5181 H   0  0  0  0  0  0  0  0  0  0  0  0
   -1.6123   -8.4205    5.0614 H   0  0  0  0  0  0  0  0  0  0  0  0
   -1.7641   -6.8003    4.3814 H   0  0  0  0  0  0  0  0  0  0  0  0
   -0.2565   -7.3082    5.1405 H   0  0  0  0  0  0  0  0  0  0  0  0
   -2.3207   -9.4457    2.7584 H   0  0  0  0  0  0  0  0  0  0  0  0
   -1.4147   -8.9954    1.3182 H   0  0  0  0  0  0  0  0  0  0  0  0
   -2.4558   -7.8164    2.1122 H   0  0  0  0  0  0  0  0  0  0  0  0
    0.5778   -9.5864    4.4377 H   0  0  0  0  0  0  0  0  0  0  0  0
    0.1171  -10.2693    2.8649 H   0  0  0  0  0  0  0  0  0  0  0  0
    3.9842   -7.9815    2.6542 H   0  0  0  0  0  0  0  0  0  0  0  0
    7.6096   -7.8988    2.5496 H   0  0  0  0  0  0  0  0  0  0  0  0
    6.1375   -8.7770    2.1498 H   0  0  0  0  0  0  0  0  0  0  0  0
    6.1506   -7.5965    3.4838 H   0  0  0  0  0  0  0  0  0  0  0  0
  1  2  1  0
  1 18  1  0
  1 19  1  0
  1 20  1  0
  2  3  1  0
  3 15  2  0
  3  4  1  0
  4  5  2  0
  4 21  1  0
  5  6  1  0
  5 22  1  0
  6  7  1  0
  6 14  2  0
  7 13  1  0
  7  8  2  0
  8  9  1  0
  9 10  1  0
  9 11  1  0
  9 12  1  0
 10 23  1  0
 10 24  1  0
 10 25  1  0
 11 26  1  0
 11 27  1  0
 11 28  1  0
 12 13  1  0
 12 29  1  0
 12 30  1  0
 14 15  1  0
 14 31  1  0
 15 16  1  0
 16 17  1  0
 17 32  1  0
 17 33  1  0
 17 34  1  0
M  END
>  <i_m_ct_stereo_status>  (292) 
1

>  <s_m_source_file>  (292) 
/var/tmp/pbs.5076255.sched01/tmpos3i1bch/920fm1no0n.sdf

>  <i_m_source_file_index>  (292) 
30

>  <i_lp_mmshare_version>  (292) 
48012

>  <i_f3d_flags>  (292) 
0

>  <s_epik_input>  (292) 
W0NIM11PYzFbY0hdW2NIXWMoQyhPW0NIMl0yKT1OQzIoW0NIM10pW0NIM10pW2NIXWMxT1tDSDNd

>  <s_epik_cmdline>  (292) 
J2VwaWtfcHl0aG9uJywgJy1waHQnLCAnMi4wJywgJy1waCcsICc3LjAnLCAnLXRuJywgJzgnLCAnLW1hJywgJzIwMCcsICctaW1hZScsICc8aW5maWxlLm1hZT4nLCAnLW9tYWUnLCAnPG91dGZpbGUubWFlPic=

>  <r_epik_Ionization_Penalty>  (292) 
0.01036

>  <r_epik_Ionization_Penalty_Charging>  (292) 
0

>  <r_epik_Ionization_Penalty_Neutral>  (292) 
0.01036

>  <r_epik_State_Penalty>  (292) 
0.00791825

>  <r_epik_Charging_Adjusted_Penalty>  (292) 
0.00791825

>  <i_epik_Tot_Q>  (292) 
0

>  <i_epik_Tot_abs_Q>  (292) 
0

>  <s_epik_Chemistry_Notes>  (292) 
This compound has an imine and may undergo hydrolysis.

>  <s_lp_Force_Field>  (292) 
OPLS3e

>  <r_lp_Energy>  (292) 
12.6249

>  <b_lp_Chiralities_Consistent>  (292) 
1

>  <s_lp_Variant>  (292) 
88:0-1

>  <s_i_glide_gridfile>  (292) 
pfpi4k_grid

>  <i_i_glide_lignum>  (292) 
30

>  <i_i_glide_rotatable_bonds>  (292) 
3

>  <r_i_docking_score>  (292) 
-3.14622

>  <r_i_glide_ligand_efficiency>  (292) 
-0.185072

>  <r_i_glide_ligand_efficiency_sa>  (292) 
-0.475871

>  <r_i_glide_ligand_efficiency_ln>  (292) 
-0.820778

>  <r_i_glide_gscore>  (292) 
-3.14622

>  <r_i_glide_lipo>  (292) 
-0.451176

>  <r_i_glide_hbond>  (292) 
0

>  <r_i_glide_metal>  (292) 
-0

>  <r_i_glide_rewards>  (292) 
-1.80492

>  <r_i_glide_evdw>  (292) 
-20.0567

>  <r_i_glide_ecoul>  (292) 
-1.14493

>  <r_i_glide_erotb>  (292) 
0.310582

>  <r_i_glide_esite>  (292) 
-0.0261336

>  <r_i_glide_emodel>  (292) 
-25.6308

>  <r_i_glide_energy>  (292) 
-21.2016

>  <r_i_glide_einternal>  (292) 
0.723832

>  <r_i_glide_intrahb_reward>  (292) 
-0

>  <i_i_glide_confnum>  (292) 
4

>  <i_i_glide_posenum>  (292) 
10

>  <r_i_glide_eff_state_penalty>  (292) 
0

>  <ligand_id>  (292) 
88

>  <original_smiles>  (292) 
COc1ccc(C2=NC(C)(C)CO2)cc1OC

>  <smiles>  (292) 
[H]c1c([H])c(C2=NC(C([H])([H])[H])(C([H])([H])[H])C([H])([H])O2)c([H])c(OC([H])([H])[H])c1OC([H])([H])[H]

$$$$
88:0:2
     RDKit          3D

 34 35  0  0  1  0  0  0  0  0999 V2000
   -2.3331    2.7089    4.1027 C   0  0  0  0  0  0  0  0  0  0  0  0
   -1.7865    1.4608    4.4916 O   0  0  0  0  0  0  0  0  0  0  0  0
   -0.7127    0.9652    3.7829 C   0  0  0  0  0  0  0  0  0  0  0  0
   -0.0422    1.6831    2.7593 C   0  0  0  0  0  0  0  0  0  0  0  0
    1.0513    1.1114    2.0811 C   0  0  0  0  0  0  0  0  0  0  0  0
    1.4850   -0.1889    2.4141 C   0  0  0  0  0  0  0  0  0  0  0  0
    2.6160   -0.8483    1.7186 C   0  0  0  0  0  0  0  0  0  0  0  0
    3.4617   -0.2497    0.9935 N   0  0  0  0  0  0  0  0  0  0  0  0
    4.4098   -1.2045    0.4739 C   0  0  0  0  0  0  0  0  0  0  0  0
    4.3474   -1.2145   -1.0648 C   0  0  0  0  0  0  0  0  0  0  0  0
    5.8219   -0.8259    0.9569 C   0  0  0  0  0  0  0  0  0  0  0  0
    3.9474   -2.5467    1.0621 C   0  0  0  0  0  0  0  0  0  0  0  0
    2.8121   -2.1936    1.8205 O   0  0  0  0  0  0  0  0  0  0  0  0
    0.8229   -0.9017    3.4344 C   0  0  0  0  0  0  0  0  0  0  0  0
   -0.2765   -0.3354    4.1251 C   0  0  0  0  0  0  0  0  0  0  0  0
   -0.9738   -0.9915    5.1219 O   0  0  0  0  0  0  0  0  0  0  0  0
   -0.5313   -2.2819    5.5239 C   0  0  0  0  0  0  0  0  0  0  0  0
   -3.1679    2.9499    4.7626 H   0  0  0  0  0  0  0  0  0  0  0  0
   -2.7138    2.6736    3.0815 H   0  0  0  0  0  0  0  0  0  0  0  0
   -1.6018    3.5117    4.1924 H   0  0  0  0  0  0  0  0  0  0  0  0
   -0.3528    2.6780    2.4706 H   0  0  0  0  0  0  0  0  0  0  0  0
    1.5376    1.6707    1.2990 H   0  0  0  0  0  0  0  0  0  0  0  0
    5.0170   -1.9683   -1.4808 H   0  0  0  0  0  0  0  0  0  0  0  0
    4.6357   -0.2557   -1.4934 H   0  0  0  0  0  0  0  0  0  0  0  0
    3.3403   -1.4381   -1.4212 H   0  0  0  0  0  0  0  0  0  0  0  0
    6.5592   -1.5620    0.6338 H   0  0  0  0  0  0  0  0  0  0  0  0
    5.8703   -0.7758    2.0456 H   0  0  0  0  0  0  0  0  0  0  0  0
    6.1341    0.1438    0.5673 H   0  0  0  0  0  0  0  0  0  0  0  0
    3.6645   -3.2696    0.2943 H   0  0  0  0  0  0  0  0  0  0  0  0
    4.6946   -2.9965    1.7173 H   0  0  0  0  0  0  0  0  0  0  0  0
    1.1699   -1.8963    3.6674 H   0  0  0  0  0  0  0  0  0  0  0  0
   -1.1814   -2.6465    6.3193 H   0  0  0  0  0  0  0  0  0  0  0  0
    0.4862   -2.2529    5.9180 H   0  0  0  0  0  0  0  0  0  0  0  0
   -0.5841   -3.0020    4.7060 H   0  0  0  0  0  0  0  0  0  0  0  0
  1  2  1  0
  1 18  1  0
  1 19  1  0
  1 20  1  0
  2  3  1  0
  3 15  2  0
  3  4  1  0
  4  5  2  0
  4 21  1  0
  5  6  1  0
  5 22  1  0
  6  7  1  0
  6 14  2  0
  7 13  1  0
  7  8  2  0
  8  9  1  0
  9 10  1  0
  9 11  1  0
  9 12  1  0
 10 23  1  0
 10 24  1  0
 10 25  1  0
 11 26  1  0
 11 27  1  0
 11 28  1  0
 12 13  1  0
 12 29  1  0
 12 30  1  0
 14 15  1  0
 14 31  1  0
 15 16  1  0
 16 17  1  0
 17 32  1  0
 17 33  1  0
 17 34  1  0
M  END
>  <i_m_ct_stereo_status>  (293) 
1

>  <s_m_source_file>  (293) 
/var/tmp/pbs.5076255.sched01/tmpos3i1bch/920fm1no0n.sdf

>  <i_m_source_file_index>  (293) 
30

>  <i_lp_mmshare_version>  (293) 
48012

>  <i_f3d_flags>  (293) 
0

>  <s_epik_input>  (293) 
W0NIM11PYzFbY0hdW2NIXWMoQyhPW0NIMl0yKT1OQzIoW0NIM10pW0NIM10pW2NIXWMxT1tDSDNd

>  <s_epik_cmdline>  (293) 
J2VwaWtfcHl0aG9uJywgJy1waHQnLCAnMi4wJywgJy1waCcsICc3LjAnLCAnLXRuJywgJzgnLCAnLW1hJywgJzIwMCcsICctaW1hZScsICc8aW5maWxlLm1hZT4nLCAnLW9tYWUnLCAnPG91dGZpbGUubWFlPic=

>  <r_epik_Ionization_Penalty>  (293) 
0.01036

>  <r_epik_Ionization_Penalty_Charging>  (293) 
0

>  <r_epik_Ionization_Penalty_Neutral>  (293) 
0.01036

>  <r_epik_State_Penalty>  (293) 
0.00791825

>  <r_epik_Charging_Adjusted_Penalty>  (293) 
0.00791825

>  <i_epik_Tot_Q>  (293) 
0

>  <i_epik_Tot_abs_Q>  (293) 
0

>  <s_epik_Chemistry_Notes>  (293) 
This compound has an imine and may undergo hydrolysis.

>  <s_lp_Force_Field>  (293) 
OPLS3e

>  <r_lp_Energy>  (293) 
12.6249

>  <b_lp_Chiralities_Consistent>  (293) 
1

>  <s_lp_Variant>  (293) 
88:0-1

>  <s_i_glide_gridfile>  (293) 
pfpi4k_grid

>  <i_i_glide_lignum>  (293) 
30

>  <i_i_glide_rotatable_bonds>  (293) 
3

>  <r_i_docking_score>  (293) 
-2.76225

>  <r_i_glide_ligand_efficiency>  (293) 
-0.162485

>  <r_i_glide_ligand_efficiency_sa>  (293) 
-0.417795

>  <r_i_glide_ligand_efficiency_ln>  (293) 
-0.720609

>  <r_i_glide_gscore>  (293) 
-2.76225

>  <r_i_glide_lipo>  (293) 
-0.111789

>  <r_i_glide_hbond>  (293) 
0

>  <r_i_glide_metal>  (293) 
-0

>  <r_i_glide_rewards>  (293) 
-1.80492

>  <r_i_glide_evdw>  (293) 
-20.9255

>  <r_i_glide_ecoul>  (293) 
-0.395319

>  <r_i_glide_erotb>  (293) 
0.310582

>  <r_i_glide_esite>  (293) 
-0.0505526

>  <r_i_glide_emodel>  (293) 
-25.3872

>  <r_i_glide_energy>  (293) 
-21.3208

>  <r_i_glide_einternal>  (293) 
0.324757

>  <r_i_glide_intrahb_reward>  (293) 
-0

>  <i_i_glide_confnum>  (293) 
4

>  <i_i_glide_posenum>  (293) 
21

>  <r_i_glide_eff_state_penalty>  (293) 
0

>  <ligand_id>  (293) 
88

>  <original_smiles>  (293) 
COc1ccc(C2=NC(C)(C)CO2)cc1OC

>  <smiles>  (293) 
[H]c1c([H])c(C2=NC(C([H])([H])[H])(C([H])([H])[H])C([H])([H])O2)c([H])c(OC([H])([H])[H])c1OC([H])([H])[H]

$$$$
88:1:0
     RDKit          3D

 35 36  0  0  1  0  0  0  0  0999 V2000
   -3.8007    3.4811    2.5682 C   0  0  0  0  0  0  0  0  0  0  0  0
   -2.5565    3.7978    3.1799 O   0  0  0  0  0  0  0  0  0  0  0  0
   -1.4857    2.9393    2.9948 C   0  0  0  0  0  0  0  0  0  0  0  0
   -1.5599    1.7430    2.2360 C   0  0  0  0  0  0  0  0  0  0  0  0
   -0.4160    0.9736    2.0067 C   0  0  0  0  0  0  0  0  0  0  0  0
    0.8286    1.3731    2.5058 C   0  0  0  0  0  0  0  0  0  0  0  0
    2.0088    0.5333    2.2792 C   0  0  0  0  0  0  0  0  0  0  0  0
    2.2259   -0.2700    1.2907 N   0  0  0  0  0  0  0  0  0  0  0  0
    3.5239   -0.9228    1.3843 C   0  0  0  0  0  0  0  0  0  0  0  0
    3.4237   -2.4446    1.1845 C   0  0  0  0  0  0  0  0  0  0  0  0
    4.4843   -0.2975    0.3634 C   0  0  0  0  0  0  0  0  0  0  0  0
    3.9312   -0.5539    2.8220 C   0  0  0  0  0  0  0  0  0  0  0  0
    3.0321    0.4966    3.1603 O   0  0  0  0  0  0  0  0  0  0  0  0
    0.9167    2.5427    3.2851 C   0  0  0  0  0  0  0  0  0  0  0  0
   -0.2398    3.3360    3.5349 C   0  0  0  0  0  0  0  0  0  0  0  0
   -0.2275    4.5171    4.2485 O   0  0  0  0  0  0  0  0  0  0  0  0
    1.0216    5.0257    4.6885 C   0  0  0  0  0  0  0  0  0  0  0  0
   -4.5452    4.2200    2.8492 H   0  0  0  0  0  0  0  0  0  0  0  0
   -4.1817    2.5443    2.9433 H   0  0  0  0  0  0  0  0  0  0  0  0
   -3.7748    3.4462    1.4796 H   0  0  0  0  0  0  0  0  0  0  0  0
   -2.4660    1.4355    1.7415 H   0  0  0  0  0  0  0  0  0  0  0  0
   -0.4805    0.1056    1.3818 H   0  0  0  0  0  0  0  0  0  0  0  0
    4.3970   -2.9107    1.3391 H   0  0  0  0  0  0  0  0  0  0  0  0
    3.0971   -2.6936    0.1739 H   0  0  0  0  0  0  0  0  0  0  0  0
    2.7274   -2.9033    1.8882 H   0  0  0  0  0  0  0  0  0  0  0  0
    5.4916   -0.6967    0.4757 H   0  0  0  0  0  0  0  0  0  0  0  0
    4.5381    0.7831    0.5014 H   0  0  0  0  0  0  0  0  0  0  0  0
    4.1607   -0.4871   -0.6613 H   0  0  0  0  0  0  0  0  0  0  0  0
    3.7509   -1.3758    3.5189 H   0  0  0  0  0  0  0  0  0  0  0  0
    4.9771   -0.2513    2.9254 H   0  0  0  0  0  0  0  0  0  0  0  0
    1.8846    2.8190    3.6767 H   0  0  0  0  0  0  0  0  0  0  0  0
    0.8521    5.9537    5.2362 H   0  0  0  0  0  0  0  0  0  0  0  0
    1.6863    5.2514    3.8524 H   0  0  0  0  0  0  0  0  0  0  0  0
    1.5154    4.3307    5.3686 H   0  0  0  0  0  0  0  0  0  0  0  0
    1.5673   -0.4781    0.5227 H   0  0  0  0  0  0  0  0  0  0  0  0
  1  2  1  0
  1 18  1  0
  1 19  1  0
  1 20  1  0
  2  3  1  0
  3 15  2  0
  3  4  1  0
  4  5  2  0
  4 21  1  0
  5  6  1  0
  5 22  1  0
  6  7  1  0
  6 14  2  0
  7 13  1  0
  7  8  2  0
  8  9  1  0
  8 35  1  0
  9 10  1  0
  9 11  1  0
  9 12  1  0
 10 23  1  0
 10 24  1  0
 10 25  1  0
 11 26  1  0
 11 27  1  0
 11 28  1  0
 12 13  1  0
 12 29  1  0
 12 30  1  0
 14 15  1  0
 14 31  1  0
 15 16  1  0
 16 17  1  0
 17 32  1  0
 17 33  1  0
 17 34  1  0
M  CHG  1   8   1
M  END
>  <i_m_ct_stereo_status>  (294) 
1

>  <s_m_source_file>  (294) 
/var/tmp/pbs.5076255.sched01/tmpos3i1bch/920fm1no0n.sdf

>  <i_m_source_file_index>  (294) 
31

>  <i_lp_mmshare_version>  (294) 
48012

>  <i_f3d_flags>  (294) 
0

>  <s_epik_input>  (294) 
W0NIM11PYzFbY0hdW2NIXWMoQyhPW0NIMl0yKT1OQzIoW0NIM10pW0NIM10pW2NIXWMxT1tDSDNd

>  <s_epik_cmdline>  (294) 
J2VwaWtfcHl0aG9uJywgJy1waHQnLCAnMi4wJywgJy1waCcsICc3LjAnLCAnLXRuJywgJzgnLCAnLW1hJywgJzIwMCcsICctaW1hZScsICc8aW5maWxlLm1hZT4nLCAnLW9tYWUnLCAnPG91dGZpbGUubWFlPic=

>  <r_epik_Ionization_Penalty>  (294) 
2.40259

>  <r_epik_Ionization_Penalty_Charging>  (294) 
2.40259

>  <r_epik_Ionization_Penalty_Neutral>  (294) 
1.84182e-15

>  <r_epik_State_Penalty>  (294) 
2.56062

>  <r_epik_Charging_Adjusted_Penalty>  (294) 
4.96322

>  <i_epik_Tot_Q>  (294) 
1

>  <i_epik_Tot_abs_Q>  (294) 
1

>  <s_epik_Chemistry_Notes>  (294) 
This compound has an imine and may undergo hydrolysis.

>  <s_lp_Force_Field>  (294) 
OPLS3e

>  <r_lp_Energy>  (294) 
22.3001

>  <b_lp_Chiralities_Consistent>  (294) 
1

>  <s_lp_Variant>  (294) 
88:0-2

>  <s_i_glide_gridfile>  (294) 
pfpi4k_grid

>  <i_i_glide_lignum>  (294) 
31

>  <i_i_glide_rotatable_bonds>  (294) 
3

>  <r_i_docking_score>  (294) 
-4.1915

>  <r_i_glide_ligand_efficiency>  (294) 
-0.246559

>  <r_i_glide_ligand_efficiency_sa>  (294) 
-0.633972

>  <r_i_glide_ligand_efficiency_ln>  (294) 
-1.09347

>  <r_i_glide_gscore>  (294) 
-4.1915

>  <r_i_glide_lipo>  (294) 
-0.34643

>  <r_i_glide_hbond>  (294) 
-0.2

>  <r_i_glide_metal>  (294) 
-0

>  <r_i_glide_rewards>  (294) 
-1.79804

>  <r_i_glide_evdw>  (294) 
-14.1409

>  <r_i_glide_ecoul>  (294) 
-8.92209

>  <r_i_glide_erotb>  (294) 
0.30833

>  <r_i_glide_esite>  (294) 
-0.109994

>  <r_i_glide_emodel>  (294) 
-31.7094

>  <r_i_glide_energy>  (294) 
-23.063

>  <r_i_glide_einternal>  (294) 
0.250527

>  <r_i_glide_intrahb_reward>  (294) 
-0

>  <i_i_glide_confnum>  (294) 
4

>  <i_i_glide_posenum>  (294) 
8

>  <r_i_glide_eff_state_penalty>  (294) 
0

>  <ligand_id>  (294) 
88

>  <original_smiles>  (294) 
COc1ccc(C2=NC(C)(C)CO2)cc1OC

>  <smiles>  (294) 
[H]c1c([H])c(C2=[N+]([H])C(C([H])([H])[H])(C([H])([H])[H])C([H])([H])O2)c([H])c(OC([H])([H])[H])c1OC([H])([H])[H]

$$$$
88:1:1
     RDKit          3D

 35 36  0  0  1  0  0  0  0  0999 V2000
   -2.6021    2.8670    3.9704 C   0  0  0  0  0  0  0  0  0  0  0  0
   -2.0913    1.6401    4.4747 O   0  0  0  0  0  0  0  0  0  0  0  0
   -0.9864    1.0968    3.8625 C   0  0  0  0  0  0  0  0  0  0  0  0
   -0.2363    1.7693    2.8573 C   0  0  0  0  0  0  0  0  0  0  0  0
    0.8888    1.1519    2.2761 C   0  0  0  0  0  0  0  0  0  0  0  0
    1.2691   -0.1390    2.6817 C   0  0  0  0  0  0  0  0  0  0  0  0
    2.4511   -0.7754    2.1068 C   0  0  0  0  0  0  0  0  0  0  0  0
    2.6159   -1.1219    0.8809 N   0  0  0  0  0  0  0  0  0  0  0  0
    3.9353   -1.6804    0.6244 C   0  0  0  0  0  0  0  0  0  0  0  0
    3.8607   -3.0212   -0.1227 C   0  0  0  0  0  0  0  0  0  0  0  0
    4.7893   -0.6654   -0.1473 C   0  0  0  0  0  0  0  0  0  0  0  0
    4.4575   -1.8501    2.0679 C   0  0  0  0  0  0  0  0  0  0  0  0
    3.5507   -1.0778    2.8400 O   0  0  0  0  0  0  0  0  0  0  0  0
    0.5404   -0.8102    3.6883 C   0  0  0  0  0  0  0  0  0  0  0  0
   -0.6005   -0.2022    4.2785 C   0  0  0  0  0  0  0  0  0  0  0  0
   -1.3819   -0.8062    5.2441 O   0  0  0  0  0  0  0  0  0  0  0  0
   -0.9953   -2.0821    5.7343 C   0  0  0  0  0  0  0  0  0  0  0  0
   -3.4864    3.1348    4.5427 H   0  0  0  0  0  0  0  0  0  0  0  0
   -2.8960    2.7851    2.9223 H   0  0  0  0  0  0  0  0  0  0  0  0
   -1.8795    3.6745    4.0867 H   0  0  0  0  0  0  0  0  0  0  0  0
   -0.4916    2.7632    2.5242 H   0  0  0  0  0  0  0  0  0  0  0  0
    1.4737    1.6840    1.5432 H   0  0  0  0  0  0  0  0  0  0  0  0
    4.8540   -3.4612   -0.2262 H   0  0  0  0  0  0  0  0  0  0  0  0
    3.4527   -2.8963   -1.1253 H   0  0  0  0  0  0  0  0  0  0  0  0
    3.2385   -3.7449    0.4049 H   0  0  0  0  0  0  0  0  0  0  0  0
    5.8111   -1.0245   -0.2712 H   0  0  0  0  0  0  0  0  0  0  0  0
    4.8390    0.2803    0.3941 H   0  0  0  0  0  0  0  0  0  0  0  0
    4.3841   -0.4714   -1.1406 H   0  0  0  0  0  0  0  0  0  0  0  0
    4.3578   -2.8785    2.4167 H   0  0  0  0  0  0  0  0  0  0  0  0
    5.5043   -1.5491    2.2054 H   0  0  0  0  0  0  0  0  0  0  0  0
    0.8807   -1.7919    3.9884 H   0  0  0  0  0  0  0  0  0  0  0  0
   -1.7323   -2.4156    6.4636 H   0  0  0  0  0  0  0  0  0  0  0  0
   -0.0244   -2.0362    6.2320 H   0  0  0  0  0  0  0  0  0  0  0  0
   -0.9689   -2.8305    4.9416 H   0  0  0  0  0  0  0  0  0  0  0  0
    1.8785   -1.0435    0.1464 H   0  0  0  0  0  0  0  0  0  0  0  0
  1  2  1  0
  1 18  1  0
  1 19  1  0
  1 20  1  0
  2  3  1  0
  3 15  2  0
  3  4  1  0
  4  5  2  0
  4 21  1  0
  5  6  1  0
  5 22  1  0
  6  7  1  0
  6 14  2  0
  7 13  1  0
  7  8  2  0
  8  9  1  0
  8 35  1  0
  9 10  1  0
  9 11  1  0
  9 12  1  0
 10 23  1  0
 10 24  1  0
 10 25  1  0
 11 26  1  0
 11 27  1  0
 11 28  1  0
 12 13  1  0
 12 29  1  0
 12 30  1  0
 14 15  1  0
 14 31  1  0
 15 16  1  0
 16 17  1  0
 17 32  1  0
 17 33  1  0
 17 34  1  0
M  CHG  1   8   1
M  END
>  <i_m_ct_stereo_status>  (295) 
1

>  <s_m_source_file>  (295) 
/var/tmp/pbs.5076255.sched01/tmpos3i1bch/920fm1no0n.sdf

>  <i_m_source_file_index>  (295) 
31

>  <i_lp_mmshare_version>  (295) 
48012

>  <i_f3d_flags>  (295) 
0

>  <s_epik_input>  (295) 
W0NIM11PYzFbY0hdW2NIXWMoQyhPW0NIMl0yKT1OQzIoW0NIM10pW0NIM10pW2NIXWMxT1tDSDNd

>  <s_epik_cmdline>  (295) 
J2VwaWtfcHl0aG9uJywgJy1waHQnLCAnMi4wJywgJy1waCcsICc3LjAnLCAnLXRuJywgJzgnLCAnLW1hJywgJzIwMCcsICctaW1hZScsICc8aW5maWxlLm1hZT4nLCAnLW9tYWUnLCAnPG91dGZpbGUubWFlPic=

>  <r_epik_Ionization_Penalty>  (295) 
2.40259

>  <r_epik_Ionization_Penalty_Charging>  (295) 
2.40259

>  <r_epik_Ionization_Penalty_Neutral>  (295) 
1.84182e-15

>  <r_epik_State_Penalty>  (295) 
2.56062

>  <r_epik_Charging_Adjusted_Penalty>  (295) 
4.96322

>  <i_epik_Tot_Q>  (295) 
1

>  <i_epik_Tot_abs_Q>  (295) 
1

>  <s_epik_Chemistry_Notes>  (295) 
This compound has an imine and may undergo hydrolysis.

>  <s_lp_Force_Field>  (295) 
OPLS3e

>  <r_lp_Energy>  (295) 
22.3001

>  <b_lp_Chiralities_Consistent>  (295) 
1

>  <s_lp_Variant>  (295) 
88:0-2

>  <s_i_glide_gridfile>  (295) 
pfpi4k_grid

>  <i_i_glide_lignum>  (295) 
31

>  <i_i_glide_rotatable_bonds>  (295) 
3

>  <r_i_docking_score>  (295) 
-4.16614

>  <r_i_glide_ligand_efficiency>  (295) 
-0.245067

>  <r_i_glide_ligand_efficiency_sa>  (295) 
-0.630136

>  <r_i_glide_ligand_efficiency_ln>  (295) 
-1.08685

>  <r_i_glide_gscore>  (295) 
-4.16614

>  <r_i_glide_lipo>  (295) 
-0.0249889

>  <r_i_glide_hbond>  (295) 
-0.178882

>  <r_i_glide_metal>  (295) 
-0

>  <r_i_glide_rewards>  (295) 
-1.79804

>  <r_i_glide_evdw>  (295) 
-17.7184

>  <r_i_glide_ecoul>  (295) 
-9.9398

>  <r_i_glide_erotb>  (295) 
0.30833

>  <r_i_glide_esite>  (295) 
-0.095667

>  <r_i_glide_emodel>  (295) 
-35.7998

>  <r_i_glide_energy>  (295) 
-27.6582

>  <r_i_glide_einternal>  (295) 
1.10888

>  <r_i_glide_intrahb_reward>  (295) 
-0

>  <i_i_glide_confnum>  (295) 
2

>  <i_i_glide_posenum>  (295) 
1

>  <r_i_glide_eff_state_penalty>  (295) 
0

>  <ligand_id>  (295) 
88

>  <original_smiles>  (295) 
COc1ccc(C2=NC(C)(C)CO2)cc1OC

>  <smiles>  (295) 
[H]c1c([H])c(C2=[N+]([H])C(C([H])([H])[H])(C([H])([H])[H])C([H])([H])O2)c([H])c(OC([H])([H])[H])c1OC([H])([H])[H]

$$$$
88:1:2
     RDKit          3D

 35 36  0  0  1  0  0  0  0  0999 V2000
   -2.6089    2.9551    3.7316 C   0  0  0  0  0  0  0  0  0  0  0  0
   -1.9132    1.9601    4.4615 O   0  0  0  0  0  0  0  0  0  0  0  0
   -0.8307    1.3532    3.8626 C   0  0  0  0  0  0  0  0  0  0  0  0
   -0.4446    1.5978    2.5171 C   0  0  0  0  0  0  0  0  0  0  0  0
    0.6380    0.9034    1.9465 C   0  0  0  0  0  0  0  0  0  0  0  0
    1.3528   -0.0431    2.7003 C   0  0  0  0  0  0  0  0  0  0  0  0
    2.4960   -0.7601    2.1154 C   0  0  0  0  0  0  0  0  0  0  0  0
    2.6248   -1.1436    0.8931 N   0  0  0  0  0  0  0  0  0  0  0  0
    3.8994   -1.7786    0.6259 C   0  0  0  0  0  0  0  0  0  0  0  0
    3.7345   -3.1298   -0.0916 C   0  0  0  0  0  0  0  0  0  0  0  0
    4.7978   -0.8317   -0.1879 C   0  0  0  0  0  0  0  0  0  0  0  0
    4.4317   -1.9505    2.0650 C   0  0  0  0  0  0  0  0  0  0  0  0
    3.5883   -1.1055    2.8373 O   0  0  0  0  0  0  0  0  0  0  0  0
    0.9770   -0.2861    4.0437 C   0  0  0  0  0  0  0  0  0  0  0  0
   -0.0993    0.4146    4.6317 C   0  0  0  0  0  0  0  0  0  0  0  0
   -0.4348    0.1076    5.9332 O   0  0  0  0  0  0  0  0  0  0  0  0
   -0.3109    1.1762    6.8688 C   0  0  0  0  0  0  0  0  0  0  0  0
   -3.3991    3.3456    4.3711 H   0  0  0  0  0  0  0  0  0  0  0  0
   -3.0735    2.5471    2.8303 H   0  0  0  0  0  0  0  0  0  0  0  0
   -1.9527    3.7877    3.4641 H   0  0  0  0  0  0  0  0  0  0  0  0
   -0.9659    2.3002    1.8887 H   0  0  0  0  0  0  0  0  0  0  0  0
    0.9220    1.0965    0.9247 H   0  0  0  0  0  0  0  0  0  0  0  0
    4.6972   -3.6362   -0.2037 H   0  0  0  0  0  0  0  0  0  0  0  0
    3.3174   -3.0077   -1.0924 H   0  0  0  0  0  0  0  0  0  0  0  0
    3.0796   -3.8068    0.4587 H   0  0  0  0  0  0  0  0  0  0  0  0
    5.7984   -1.2506   -0.3211 H   0  0  0  0  0  0  0  0  0  0  0  0
    4.9109    0.1319    0.3121 H   0  0  0  0  0  0  0  0  0  0  0  0
    4.3834   -0.6428   -1.1794 H   0  0  0  0  0  0  0  0  0  0  0  0
    4.2701   -2.9634    2.4384 H   0  0  0  0  0  0  0  0  0  0  0  0
    5.4936   -1.7056    2.1840 H   0  0  0  0  0  0  0  0  0  0  0  0
    1.5198   -1.0068    4.6445 H   0  0  0  0  0  0  0  0  0  0  0  0
   -0.7138    0.8700    7.8342 H   0  0  0  0  0  0  0  0  0  0  0  0
   -0.8248    2.1000    6.5986 H   0  0  0  0  0  0  0  0  0  0  0  0
    0.7423    1.4151    7.0100 H   0  0  0  0  0  0  0  0  0  0  0  0
    1.8833   -1.0558    0.1596 H   0  0  0  0  0  0  0  0  0  0  0  0
  1  2  1  0
  1 18  1  0
  1 19  1  0
  1 20  1  0
  2  3  1  0
  3 15  2  0
  3  4  1  0
  4  5  2  0
  4 21  1  0
  5  6  1  0
  5 22  1  0
  6  7  1  0
  6 14  2  0
  7 13  1  0
  7  8  2  0
  8  9  1  0
  8 35  1  0
  9 10  1  0
  9 11  1  0
  9 12  1  0
 10 23  1  0
 10 24  1  0
 10 25  1  0
 11 26  1  0
 11 27  1  0
 11 28  1  0
 12 13  1  0
 12 29  1  0
 12 30  1  0
 14 15  1  0
 14 31  1  0
 15 16  1  0
 16 17  1  0
 17 32  1  0
 17 33  1  0
 17 34  1  0
M  CHG  1   8   1
M  END
>  <i_m_ct_stereo_status>  (296) 
1

>  <s_m_source_file>  (296) 
/var/tmp/pbs.5076255.sched01/tmpos3i1bch/920fm1no0n.sdf

>  <i_m_source_file_index>  (296) 
31

>  <i_lp_mmshare_version>  (296) 
48012

>  <i_f3d_flags>  (296) 
0

>  <s_epik_input>  (296) 
W0NIM11PYzFbY0hdW2NIXWMoQyhPW0NIMl0yKT1OQzIoW0NIM10pW0NIM10pW2NIXWMxT1tDSDNd

>  <s_epik_cmdline>  (296) 
J2VwaWtfcHl0aG9uJywgJy1waHQnLCAnMi4wJywgJy1waCcsICc3LjAnLCAnLXRuJywgJzgnLCAnLW1hJywgJzIwMCcsICctaW1hZScsICc8aW5maWxlLm1hZT4nLCAnLW9tYWUnLCAnPG91dGZpbGUubWFlPic=

>  <r_epik_Ionization_Penalty>  (296) 
2.40259

>  <r_epik_Ionization_Penalty_Charging>  (296) 
2.40259

>  <r_epik_Ionization_Penalty_Neutral>  (296) 
1.84182e-15

>  <r_epik_State_Penalty>  (296) 
2.56062

>  <r_epik_Charging_Adjusted_Penalty>  (296) 
4.96322

>  <i_epik_Tot_Q>  (296) 
1

>  <i_epik_Tot_abs_Q>  (296) 
1

>  <s_epik_Chemistry_Notes>  (296) 
This compound has an imine and may undergo hydrolysis.

>  <s_lp_Force_Field>  (296) 
OPLS3e

>  <r_lp_Energy>  (296) 
22.3001

>  <b_lp_Chiralities_Consistent>  (296) 
1

>  <s_lp_Variant>  (296) 
88:0-2

>  <s_i_glide_gridfile>  (296) 
pfpi4k_grid

>  <i_i_glide_lignum>  (296) 
31

>  <i_i_glide_rotatable_bonds>  (296) 
3

>  <r_i_docking_score>  (296) 
-4.08436

>  <r_i_glide_ligand_efficiency>  (296) 
-0.240257

>  <r_i_glide_ligand_efficiency_sa>  (296) 
-0.617767

>  <r_i_glide_ligand_efficiency_ln>  (296) 
-1.06552

>  <r_i_glide_gscore>  (296) 
-4.08436

>  <r_i_glide_lipo>  (296) 
-0.0219414

>  <r_i_glide_hbond>  (296) 
-0.185172

>  <r_i_glide_metal>  (296) 
-0

>  <r_i_glide_rewards>  (296) 
-1.79804

>  <r_i_glide_evdw>  (296) 
-16.5226

>  <r_i_glide_ecoul>  (296) 
-9.78379

>  <r_i_glide_erotb>  (296) 
0.30833

>  <r_i_glide_esite>  (296) 
-0.0938374

>  <r_i_glide_emodel>  (296) 
-31.4805

>  <r_i_glide_energy>  (296) 
-26.3064

>  <r_i_glide_einternal>  (296) 
6.64682

>  <r_i_glide_intrahb_reward>  (296) 
-0

>  <i_i_glide_confnum>  (296) 
2

>  <i_i_glide_posenum>  (296) 
7

>  <r_i_glide_eff_state_penalty>  (296) 
0

>  <ligand_id>  (296) 
88

>  <original_smiles>  (296) 
COc1ccc(C2=NC(C)(C)CO2)cc1OC

>  <smiles>  (296) 
[H]c1c([H])c(C2=[N+]([H])C(C([H])([H])[H])(C([H])([H])[H])C([H])([H])O2)c([H])c(OC([H])([H])[H])c1OC([H])([H])[H]

$$$$
90:0:0
     RDKit          3D

 40 42  0  0  1  0  0  0  0  0999 V2000
    3.1652   -5.4106    0.9608 C   0  0  0  0  0  0  0  0  0  0  0  0
    3.8123   -4.5850   -0.1683 C   0  0  0  0  0  0  0  0  0  0  0  0
    4.6986   -3.4043    0.3195 C   0  0  1  0  0  0  0  0  0  0  0  0
    5.9601   -3.9160    1.0564 C   0  0  0  0  0  0  0  0  0  0  0  0
    6.0124   -4.0145    2.2736 O   0  0  0  0  0  0  0  0  0  0  0  0
    6.9398   -4.2928    0.2390 O   0  0  0  0  0  0  0  0  0  0  0  0
    8.1431   -4.7827    0.8081 C   0  0  0  0  0  0  0  0  0  0  0  0
    5.1549   -2.3925   -0.8037 C   0  0  2  0  0  0  0  0  0  0  0  0
    4.1352   -1.2241   -0.8773 C   0  0  1  0  0  0  0  0  0  0  0  0
    3.6078   -1.3578   -2.3039 C   0  0  0  0  0  0  0  0  0  0  0  0
    2.7394   -0.6475   -2.7851 O   0  0  0  0  0  0  0  0  0  0  0  0
    4.2134   -2.3206   -2.9768 N   0  0  0  0  0  0  0  0  0  0  0  0
    3.9671   -2.5855   -4.3759 C   0  0  0  0  0  0  0  0  0  0  0  0
    5.1156   -2.9199   -2.2354 C   0  0  0  0  0  0  0  0  0  0  0  0
    5.8672   -3.8073   -2.6396 O   0  0  0  0  0  0  0  0  0  0  0  0
    3.1287   -1.5561    0.2208 C   0  0  2  0  0  0  0  0  0  0  0  0
    2.6135   -0.4703    1.1703 C   0  0  0  0  0  0  0  0  0  0  0  0
    2.7281   -1.1306    2.4727 N   0  0  0  0  0  0  0  0  0  0  0  0
    3.4508   -2.2605    2.3624 C   0  0  0  0  0  0  0  0  0  0  0  0
    3.7416   -3.0216    3.4324 N   0  0  0  0  0  0  0  0  0  0  0  0
    3.8176   -2.4901    1.0929 N   0  0  0  0  0  0  0  0  0  0  0  0
    2.5595   -6.2192    0.5494 H   0  0  0  0  0  0  0  0  0  0  0  0
    2.4982   -4.8071    1.5824 H   0  0  0  0  0  0  0  0  0  0  0  0
    3.9146   -5.8598    1.6150 H   0  0  0  0  0  0  0  0  0  0  0  0
    4.3854   -5.2571   -0.8061 H   0  0  0  0  0  0  0  0  0  0  0  0
    2.9976   -4.2172   -0.7971 H   0  0  0  0  0  0  0  0  0  0  0  0
    8.8501   -5.0416    0.0179 H   0  0  0  0  0  0  0  0  0  0  0  0
    7.9454   -5.6754    1.4091 H   0  0  0  0  0  0  0  0  0  0  0  0
    8.6093   -4.0316    1.4541 H   0  0  0  0  0  0  0  0  0  0  0  0
    4.5957   -0.2462   -0.7335 H   0  0  0  0  0  0  0  0  0  0  0  0
    4.2300   -3.6095   -4.6481 H   0  0  0  0  0  0  0  0  0  0  0  0
    4.5592   -1.8655   -4.9379 H   0  0  0  0  0  0  0  0  0  0  0  0
    2.9269   -2.4303   -4.6462 H   0  0  0  0  0  0  0  0  0  0  0  0
    6.1511   -1.9840   -0.6148 H   0  0  0  0  0  0  0  0  0  0  0  0
    2.3195   -2.1648   -0.1611 H   0  0  0  0  0  0  0  0  0  0  0  0
    3.2637    0.3971    1.1183 H   0  0  0  0  0  0  0  0  0  0  0  0
    1.5979   -0.1342    0.9524 H   0  0  0  0  0  0  0  0  0  0  0  0
    3.4795   -2.7487    4.3741 H   0  0  0  0  0  0  0  0  0  0  0  0
    4.4662   -3.7169    3.2926 H   0  0  0  0  0  0  0  0  0  0  0  0
    2.3127   -0.7655    3.3216 H   0  0  0  0  0  0  0  0  0  0  0  0
  1  2  1  0
  1 22  1  0
  1 23  1  0
  1 24  1  0
  3  2  1  6
  2 25  1  0
  2 26  1  0
  3 21  1  0
  3  4  1  0
  3  8  1  0
  4  5  2  0
  4  6  1  0
  6  7  1  0
  7 27  1  0
  7 28  1  0
  7 29  1  0
  8  9  1  0
  8 34  1  1
  8 14  1  0
  9 10  1  0
  9 16  1  0
  9 30  1  1
 10 11  2  0
 10 12  1  0
 12 14  1  0
 12 13  1  0
 13 31  1  0
 13 32  1  0
 13 33  1  0
 14 15  2  0
 16 21  1  0
 16 17  1  0
 16 35  1  6
 17 18  1  0
 17 36  1  0
 17 37  1  0
 18 19  2  0
 18 40  1  0
 19 20  1  0
 19 21  1  0
 20 38  1  0
 20 39  1  0
M  CHG  1  18   1
M  END
>  <i_m_ct_stereo_status>  (297) 
1

>  <s_m_source_file>  (297) 
/var/tmp/pbs.5076255.sched01/tmpos3i1bch/920fm1no0n.sdf

>  <i_m_source_file_index>  (297) 
34

>  <i_lp_mmshare_version>  (297) 
48012

>  <i_f3d_flags>  (297) 
0

>  <s_epik_input>  (297) 
W0NIM11PQyg9TylbQ0BAXTEoW0NIMl1bQ0gzXSlOKEMoW05IMl0pPU5bQ0gyXTIpW0NAQEhdMmMoYzEzKWMoW09IXSluKFtDSDNdKWMzW09IXQ==

>  <s_epik_cmdline>  (297) 
J2VwaWtfcHl0aG9uJywgJy1waHQnLCAnMi4wJywgJy1waCcsICc3LjAnLCAnLXRuJywgJzgnLCAnLW1hJywgJzIwMCcsICctaW1hZScsICc8aW5maWxlLm1hZT4nLCAnLW9tYWUnLCAnPG91dGZpbGUubWFlPic=

>  <r_lp_tautomer_probability>  (297) 
1

>  <r_epik_Ionization_Penalty>  (297) 
0.0860747

>  <r_epik_Ionization_Penalty_Charging>  (297) 
0.0860747

>  <r_epik_Ionization_Penalty_Neutral>  (297) 
6.9989e-14

>  <r_epik_State_Penalty>  (297) 
0.0766205

>  <r_epik_Charging_Adjusted_Penalty>  (297) 
0.162695

>  <i_epik_Tot_Q>  (297) 
1

>  <i_epik_Tot_abs_Q>  (297) 
1

>  <s_epik_Chemistry_Notes>  (297) 
This compound has an ester and may undergo hydrolysis at high or low pH. This compound has an imine and may undergo hydrolysis.

>  <s_lp_Force_Field>  (297) 
OPLS3e

>  <r_lp_Energy>  (297) 
5.86279

>  <b_lp_Chiralities_Consistent>  (297) 
1

>  <s_lp_Variant>  (297) 
90:0-1

>  <s_i_glide_gridfile>  (297) 
pfpi4k_grid

>  <i_i_glide_lignum>  (297) 
34

>  <i_i_glide_rotatable_bonds>  (297) 
3

>  <r_i_docking_score>  (297) 
-3.2796

>  <r_i_glide_ligand_efficiency>  (297) 
-0.156171

>  <r_i_glide_ligand_efficiency_sa>  (297) 
-0.430865

>  <r_i_glide_ligand_efficiency_ln>  (297) 
-0.810874

>  <r_i_glide_gscore>  (297) 
-3.2796

>  <r_i_glide_lipo>  (297) 
-0.171201

>  <r_i_glide_hbond>  (297) 
0

>  <r_i_glide_metal>  (297) 
-0

>  <r_i_glide_rewards>  (297) 
-2.36984

>  <r_i_glide_evdw>  (297) 
-16.365

>  <r_i_glide_ecoul>  (297) 
-0.290379

>  <r_i_glide_erotb>  (297) 
0.209864

>  <r_i_glide_esite>  (297) 
-0.0866197

>  <r_i_glide_emodel>  (297) 
-24.2082

>  <r_i_glide_energy>  (297) 
-16.6554

>  <r_i_glide_einternal>  (297) 
3.84975

>  <r_i_glide_intrahb_reward>  (297) 
-0.5

>  <i_i_glide_confnum>  (297) 
6

>  <i_i_glide_posenum>  (297) 
9

>  <r_i_glide_eff_state_penalty>  (297) 
0

>  <ligand_id>  (297) 
90

>  <original_smiles>  (297) 
CCC1(C(=O)OC)c2c(c(O)n(C)c2O)C2CN=C(N)N21

>  <smiles>  (297) 
[H]N([H])C1=[N+]([H])C([H])([H])C2([H])N1C(C(=O)OC([H])([H])[H])(C([H])([H])C([H])([H])[H])C1([H])C(=O)N(C([H])([H])[H])C(=O)C12[H]

$$$$
90:0:1
     RDKit          3D

 40 42  0  0  1  0  0  0  0  0999 V2000
    3.3701   -5.5979    0.8785 C   0  0  0  0  0  0  0  0  0  0  0  0
    4.0154   -4.6815   -0.2090 C   0  0  0  0  0  0  0  0  0  0  0  0
    4.9141   -3.4601    0.2586 C   0  0  1  0  0  0  0  0  0  0  0  0
    6.2136   -3.9253    0.9789 C   0  0  0  0  0  0  0  0  0  0  0  0
    7.3076   -3.3774    0.8054 O   0  0  0  0  0  0  0  0  0  0  0  0
    6.0452   -4.9778    1.7722 O   0  0  0  0  0  0  0  0  0  0  0  0
    7.1461   -5.7331    2.2272 C   0  0  0  0  0  0  0  0  0  0  0  0
    5.2912   -2.4262   -0.8870 C   0  0  2  0  0  0  0  0  0  0  0  0
    4.2549   -1.2715   -0.8969 C   0  0  1  0  0  0  0  0  0  0  0  0
    3.6755   -1.3650   -2.3095 C   0  0  0  0  0  0  0  0  0  0  0  0
    2.8286   -0.6076   -2.7589 O   0  0  0  0  0  0  0  0  0  0  0  0
    4.2655   -2.3369   -3.0049 N   0  0  0  0  0  0  0  0  0  0  0  0
    3.9672   -2.5852   -4.4019 C   0  0  0  0  0  0  0  0  0  0  0  0
    5.2100   -2.9597   -2.3073 C   0  0  0  0  0  0  0  0  0  0  0  0
    5.9736   -3.8255   -2.7349 O   0  0  0  0  0  0  0  0  0  0  0  0
    3.2962   -1.6526    0.2320 C   0  0  2  0  0  0  0  0  0  0  0  0
    2.8347   -0.5960    1.2305 C   0  0  0  0  0  0  0  0  0  0  0  0
    3.0354   -1.2871    2.5165 N   0  0  0  0  0  0  0  0  0  0  0  0
    3.7987   -2.3846    2.3606 C   0  0  0  0  0  0  0  0  0  0  0  0
    4.2091   -3.1554    3.3731 N   0  0  0  0  0  0  0  0  0  0  0  0
    4.0684   -2.5647    1.0573 N   0  0  0  0  0  0  0  0  0  0  0  0
    2.6813   -6.3166    0.4157 H   0  0  0  0  0  0  0  0  0  0  0  0
    2.7754   -5.0110    1.5861 H   0  0  0  0  0  0  0  0  0  0  0  0
    4.0862   -6.1862    1.4457 H   0  0  0  0  0  0  0  0  0  0  0  0
    4.5465   -5.3056   -0.9331 H   0  0  0  0  0  0  0  0  0  0  0  0
    3.1794   -4.2753   -0.7750 H   0  0  0  0  0  0  0  0  0  0  0  0
    6.7613   -6.5919    2.7729 H   0  0  0  0  0  0  0  0  0  0  0  0
    7.8011   -5.1674    2.8923 H   0  0  0  0  0  0  0  0  0  0  0  0
    7.7474   -6.1204    1.4016 H   0  0  0  0  0  0  0  0  0  0  0  0
    4.7160   -0.2934   -0.7442 H   0  0  0  0  0  0  0  0  0  0  0  0
    4.2311   -3.6028   -4.7037 H   0  0  0  0  0  0  0  0  0  0  0  0
    4.5224   -1.8530   -4.9867 H   0  0  0  0  0  0  0  0  0  0  0  0
    2.9111   -2.4451   -4.6250 H   0  0  0  0  0  0  0  0  0  0  0  0
    6.2753   -1.9717   -0.7783 H   0  0  0  0  0  0  0  0  0  0  0  0
    2.4388   -2.2188   -0.1519 H   0  0  0  0  0  0  0  0  0  0  0  0
    3.4689    0.2900    1.1805 H   0  0  0  0  0  0  0  0  0  0  0  0
    1.8060   -0.2837    1.0728 H   0  0  0  0  0  0  0  0  0  0  0  0
    3.9247   -2.9396    4.3163 H   0  0  0  0  0  0  0  0  0  0  0  0
    4.8053   -3.9594    3.1922 H   0  0  0  0  0  0  0  0  0  0  0  0
    2.6523   -0.9513    3.3836 H   0  0  0  0  0  0  0  0  0  0  0  0
  1  2  1  0
  1 22  1  0
  1 23  1  0
  1 24  1  0
  3  2  1  6
  2 25  1  0
  2 26  1  0
  3 21  1  0
  3  4  1  0
  3  8  1  0
  4  5  2  0
  4  6  1  0
  6  7  1  0
  7 27  1  0
  7 28  1  0
  7 29  1  0
  8  9  1  0
  8 34  1  1
  8 14  1  0
  9 10  1  0
  9 16  1  0
  9 30  1  1
 10 11  2  0
 10 12  1  0
 12 14  1  0
 12 13  1  0
 13 31  1  0
 13 32  1  0
 13 33  1  0
 14 15  2  0
 16 21  1  0
 16 17  1  0
 16 35  1  6
 17 18  1  0
 17 36  1  0
 17 37  1  0
 18 19  2  0
 18 40  1  0
 19 20  1  0
 19 21  1  0
 20 38  1  0
 20 39  1  0
M  CHG  1  18   1
M  END
>  <i_m_ct_stereo_status>  (298) 
1

>  <s_m_source_file>  (298) 
/var/tmp/pbs.5076255.sched01/tmpos3i1bch/920fm1no0n.sdf

>  <i_m_source_file_index>  (298) 
34

>  <i_lp_mmshare_version>  (298) 
48012

>  <i_f3d_flags>  (298) 
0

>  <s_epik_input>  (298) 
W0NIM11PQyg9TylbQ0BAXTEoW0NIMl1bQ0gzXSlOKEMoW05IMl0pPU5bQ0gyXTIpW0NAQEhdMmMoYzEzKWMoW09IXSluKFtDSDNdKWMzW09IXQ==

>  <s_epik_cmdline>  (298) 
J2VwaWtfcHl0aG9uJywgJy1waHQnLCAnMi4wJywgJy1waCcsICc3LjAnLCAnLXRuJywgJzgnLCAnLW1hJywgJzIwMCcsICctaW1hZScsICc8aW5maWxlLm1hZT4nLCAnLW9tYWUnLCAnPG91dGZpbGUubWFlPic=

>  <r_lp_tautomer_probability>  (298) 
1

>  <r_epik_Ionization_Penalty>  (298) 
0.0860747

>  <r_epik_Ionization_Penalty_Charging>  (298) 
0.0860747

>  <r_epik_Ionization_Penalty_Neutral>  (298) 
6.9989e-14

>  <r_epik_State_Penalty>  (298) 
0.0766205

>  <r_epik_Charging_Adjusted_Penalty>  (298) 
0.162695

>  <i_epik_Tot_Q>  (298) 
1

>  <i_epik_Tot_abs_Q>  (298) 
1

>  <s_epik_Chemistry_Notes>  (298) 
This compound has an ester and may undergo hydrolysis at high or low pH. This compound has an imine and may undergo hydrolysis.

>  <s_lp_Force_Field>  (298) 
OPLS3e

>  <r_lp_Energy>  (298) 
5.86279

>  <b_lp_Chiralities_Consistent>  (298) 
1

>  <s_lp_Variant>  (298) 
90:0-1

>  <s_i_glide_gridfile>  (298) 
pfpi4k_grid

>  <i_i_glide_lignum>  (298) 
34

>  <i_i_glide_rotatable_bonds>  (298) 
3

>  <r_i_docking_score>  (298) 
-3.23657

>  <r_i_glide_ligand_efficiency>  (298) 
-0.154122

>  <r_i_glide_ligand_efficiency_sa>  (298) 
-0.425212

>  <r_i_glide_ligand_efficiency_ln>  (298) 
-0.800235

>  <r_i_glide_gscore>  (298) 
-3.23657

>  <r_i_glide_lipo>  (298) 
-0.0733397

>  <r_i_glide_hbond>  (298) 
0

>  <r_i_glide_metal>  (298) 
-0

>  <r_i_glide_rewards>  (298) 
-2.40301

>  <r_i_glide_evdw>  (298) 
-16.7406

>  <r_i_glide_ecoul>  (298) 
-0.410755

>  <r_i_glide_erotb>  (298) 
0.209864

>  <r_i_glide_esite>  (298) 
-0.0714392

>  <r_i_glide_emodel>  (298) 
-25.8743

>  <r_i_glide_energy>  (298) 
-17.1513

>  <r_i_glide_einternal>  (298) 
2.15207

>  <r_i_glide_intrahb_reward>  (298) 
-0.5

>  <i_i_glide_confnum>  (298) 
3

>  <i_i_glide_posenum>  (298) 
3

>  <r_i_glide_eff_state_penalty>  (298) 
0

>  <ligand_id>  (298) 
90

>  <original_smiles>  (298) 
CCC1(C(=O)OC)c2c(c(O)n(C)c2O)C2CN=C(N)N21

>  <smiles>  (298) 
[H]N([H])C1=[N+]([H])C([H])([H])C2([H])N1C(C(=O)OC([H])([H])[H])(C([H])([H])C([H])([H])[H])C1([H])C(=O)N(C([H])([H])[H])C(=O)C12[H]

$$$$
90:0:2
     RDKit          3D

 40 42  0  0  1  0  0  0  0  0999 V2000
    7.8504   -3.6735   -0.7407 C   0  0  0  0  0  0  0  0  0  0  0  0
    6.5215   -3.0427   -1.2367 C   0  0  0  0  0  0  0  0  0  0  0  0
    5.4546   -2.6060   -0.1459 C   0  0  1  0  0  0  0  0  0  0  0  0
    6.0395   -1.6768    0.9332 C   0  0  0  0  0  0  0  0  0  0  0  0
    7.1741   -1.2212    0.8218 O   0  0  0  0  0  0  0  0  0  0  0  0
    5.1869   -1.3499    1.9210 O   0  0  0  0  0  0  0  0  0  0  0  0
    5.5931   -0.3933    2.8892 C   0  0  0  0  0  0  0  0  0  0  0  0
    4.1681   -1.8651   -0.6960 C   0  0  2  0  0  0  0  0  0  0  0  0
    3.0511   -2.9216   -0.8847 C   0  0  1  0  0  0  0  0  0  0  0  0
    2.7703   -2.7844   -2.3865 C   0  0  0  0  0  0  0  0  0  0  0  0
    1.9298   -3.4418   -2.9773 O   0  0  0  0  0  0  0  0  0  0  0  0
    3.5071   -1.8298   -2.9575 N   0  0  0  0  0  0  0  0  0  0  0  0
    3.3958   -1.4826   -4.3718 C   0  0  0  0  0  0  0  0  0  0  0  0
    4.3009   -1.2363   -2.0808 C   0  0  0  0  0  0  0  0  0  0  0  0
    5.0395   -0.2890   -2.3183 O   0  0  0  0  0  0  0  0  0  0  0  0
    3.6924   -4.2384   -0.4493 C   0  0  2  0  0  0  0  0  0  0  0  0
    2.9386   -5.2271    0.4404 C   0  0  0  0  0  0  0  0  0  0  0  0
    3.9350   -5.5243    1.4793 N   0  0  0  0  0  0  0  0  0  0  0  0
    4.9608   -4.6516    1.4245 C   0  0  0  0  0  0  0  0  0  0  0  0
    5.9639   -4.6364    2.3015 N   0  0  0  0  0  0  0  0  0  0  0  0
    4.8068   -3.8260    0.3767 N   0  0  0  0  0  0  0  0  0  0  0  0
    8.4347   -4.0044   -1.6013 H   0  0  0  0  0  0  0  0  0  0  0  0
    7.6686   -4.5378   -0.0952 H   0  0  0  0  0  0  0  0  0  0  0  0
    8.5012   -2.9761   -0.2107 H   0  0  0  0  0  0  0  0  0  0  0  0
    6.7499   -2.2525   -1.9537 H   0  0  0  0  0  0  0  0  0  0  0  0
    6.0550   -3.8074   -1.8470 H   0  0  0  0  0  0  0  0  0  0  0  0
    4.7781   -0.1269    3.5716 H   0  0  0  0  0  0  0  0  0  0  0  0
    5.9681    0.5205    2.4256 H   0  0  0  0  0  0  0  0  0  0  0  0
    6.4174   -0.8045    3.4632 H   0  0  0  0  0  0  0  0  0  0  0  0
    2.1515   -2.6952   -0.3126 H   0  0  0  0  0  0  0  0  0  0  0  0
    4.3107   -1.0375   -4.7655 H   0  0  0  0  0  0  0  0  0  0  0  0
    2.5770   -0.7785   -4.5362 H   0  0  0  0  0  0  0  0  0  0  0  0
    3.1834   -2.3784   -4.9586 H   0  0  0  0  0  0  0  0  0  0  0  0
    3.7685   -1.0816   -0.0494 H   0  0  0  0  0  0  0  0  0  0  0  0
    4.1169   -4.7748   -1.2979 H   0  0  0  0  0  0  0  0  0  0  0  0
    2.0704   -4.7417    0.8889 H   0  0  0  0  0  0  0  0  0  0  0  0
    2.6007   -6.1124   -0.0966 H   0  0  0  0  0  0  0  0  0  0  0  0
    5.9956   -5.3325    3.0332 H   0  0  0  0  0  0  0  0  0  0  0  0
    6.6947   -3.9373    2.2372 H   0  0  0  0  0  0  0  0  0  0  0  0
    3.8455   -6.2917    2.1307 H   0  0  0  0  0  0  0  0  0  0  0  0
  1  2  1  0
  1 22  1  0
  1 23  1  0
  1 24  1  0
  3  2  1  6
  2 25  1  0
  2 26  1  0
  3 21  1  0
  3  4  1  0
  3  8  1  0
  4  5  2  0
  4  6  1  0
  6  7  1  0
  7 27  1  0
  7 28  1  0
  7 29  1  0
  8  9  1  0
  8 34  1  1
  8 14  1  0
  9 10  1  0
  9 16  1  0
  9 30  1  1
 10 11  2  0
 10 12  1  0
 12 14  1  0
 12 13  1  0
 13 31  1  0
 13 32  1  0
 13 33  1  0
 14 15  2  0
 16 21  1  0
 16 17  1  0
 16 35  1  6
 17 18  1  0
 17 36  1  0
 17 37  1  0
 18 19  2  0
 18 40  1  0
 19 20  1  0
 19 21  1  0
 20 38  1  0
 20 39  1  0
M  CHG  1  18   1
M  END
>  <i_m_ct_stereo_status>  (299) 
1

>  <s_m_source_file>  (299) 
/var/tmp/pbs.5076255.sched01/tmpos3i1bch/920fm1no0n.sdf

>  <i_m_source_file_index>  (299) 
34

>  <i_lp_mmshare_version>  (299) 
48012

>  <i_f3d_flags>  (299) 
0

>  <s_epik_input>  (299) 
W0NIM11PQyg9TylbQ0BAXTEoW0NIMl1bQ0gzXSlOKEMoW05IMl0pPU5bQ0gyXTIpW0NAQEhdMmMoYzEzKWMoW09IXSluKFtDSDNdKWMzW09IXQ==

>  <s_epik_cmdline>  (299) 
J2VwaWtfcHl0aG9uJywgJy1waHQnLCAnMi4wJywgJy1waCcsICc3LjAnLCAnLXRuJywgJzgnLCAnLW1hJywgJzIwMCcsICctaW1hZScsICc8aW5maWxlLm1hZT4nLCAnLW9tYWUnLCAnPG91dGZpbGUubWFlPic=

>  <r_lp_tautomer_probability>  (299) 
1

>  <r_epik_Ionization_Penalty>  (299) 
0.0860747

>  <r_epik_Ionization_Penalty_Charging>  (299) 
0.0860747

>  <r_epik_Ionization_Penalty_Neutral>  (299) 
6.9989e-14

>  <r_epik_State_Penalty>  (299) 
0.0766205

>  <r_epik_Charging_Adjusted_Penalty>  (299) 
0.162695

>  <i_epik_Tot_Q>  (299) 
1

>  <i_epik_Tot_abs_Q>  (299) 
1

>  <s_epik_Chemistry_Notes>  (299) 
This compound has an ester and may undergo hydrolysis at high or low pH. This compound has an imine and may undergo hydrolysis.

>  <s_lp_Force_Field>  (299) 
OPLS3e

>  <r_lp_Energy>  (299) 
5.86279

>  <b_lp_Chiralities_Consistent>  (299) 
1

>  <s_lp_Variant>  (299) 
90:0-1

>  <s_i_glide_gridfile>  (299) 
pfpi4k_grid

>  <i_i_glide_lignum>  (299) 
34

>  <i_i_glide_rotatable_bonds>  (299) 
3

>  <r_i_docking_score>  (299) 
-2.63442

>  <r_i_glide_ligand_efficiency>  (299) 
-0.125448

>  <r_i_glide_ligand_efficiency_sa>  (299) 
-0.346103

>  <r_i_glide_ligand_efficiency_ln>  (299) 
-0.651354

>  <r_i_glide_gscore>  (299) 
-2.63442

>  <r_i_glide_lipo>  (299) 
-0.312902

>  <r_i_glide_hbond>  (299) 
0

>  <r_i_glide_metal>  (299) 
-0

>  <r_i_glide_rewards>  (299) 
-1.6363

>  <r_i_glide_evdw>  (299) 
-18.4964

>  <r_i_glide_ecoul>  (299) 
0.650194

>  <r_i_glide_erotb>  (299) 
0.209864

>  <r_i_glide_esite>  (299) 
-0.0677854

>  <r_i_glide_emodel>  (299) 
-20.8675

>  <r_i_glide_energy>  (299) 
-17.8462

>  <r_i_glide_einternal>  (299) 
0.978347

>  <r_i_glide_intrahb_reward>  (299) 
-0

>  <i_i_glide_confnum>  (299) 
1

>  <i_i_glide_posenum>  (299) 
2

>  <r_i_glide_eff_state_penalty>  (299) 
0

>  <ligand_id>  (299) 
90

>  <original_smiles>  (299) 
CCC1(C(=O)OC)c2c(c(O)n(C)c2O)C2CN=C(N)N21

>  <smiles>  (299) 
[H]N([H])C1=[N+]([H])C([H])([H])C2([H])N1C(C(=O)OC([H])([H])[H])(C([H])([H])C([H])([H])[H])C1([H])C(=O)N(C([H])([H])[H])C(=O)C12[H]

$$$$
90:1:0
     RDKit          3D

 40 42  0  0  1  0  0  0  0  0999 V2000
    3.3053    0.4481    3.9735 C   0  0  0  0  0  0  0  0  0  0  0  0
    2.6764    0.7555    5.3474 C   0  0  0  0  0  0  0  0  0  0  0  0
    1.1918    1.2151    5.3046 C   0  0  1  0  0  0  0  0  0  0  0  0
    0.2717    0.1205    4.7000 C   0  0  0  0  0  0  0  0  0  0  0  0
   -0.6642    0.3804    3.9454 O   0  0  0  0  0  0  0  0  0  0  0  0
    0.5907   -1.1190    5.1182 O   0  0  0  0  0  0  0  0  0  0  0  0
   -0.0691   -2.2449    4.5609 C   0  0  0  0  0  0  0  0  0  0  0  0
    0.7475    1.6926    6.7492 C   0  0  1  0  0  0  0  0  0  0  0  0
    0.9983    3.2347    6.8306 C   0  0  2  0  0  0  0  0  0  0  0  0
   -0.3627    3.8063    7.2096 C   0  0  0  0  0  0  0  0  0  0  0  0
   -0.5631    5.0127    7.3446 O   0  0  0  0  0  0  0  0  0  0  0  0
   -1.2683    2.8396    7.3615 N   0  0  0  0  0  0  0  0  0  0  0  0
   -2.6482    3.0960    7.7870 C   0  0  0  0  0  0  0  0  0  0  0  0
   -0.7508    1.6252    7.1269 C   0  0  0  0  0  0  0  0  0  0  0  0
   -1.3686    0.5641    7.2407 O   0  0  0  0  0  0  0  0  0  0  0  0
    1.4764    3.6156    5.4323 C   0  0  2  0  0  0  0  0  0  0  0  0
    1.0280    4.8369    4.6160 C   0  0  0  0  0  0  0  0  0  0  0  0
    0.9622    4.2415    3.2853 N   0  0  0  0  0  0  0  0  0  0  0  0
    0.9914    2.9020    3.3194 C   0  0  0  0  0  0  0  0  0  0  0  0
    0.8779    2.1458    2.2185 N   0  0  0  0  0  0  0  0  0  0  0  0
    1.1372    2.4973    4.5846 N   0  0  0  0  0  0  0  0  0  0  0  0
    4.3388    0.1257    4.1029 H   0  0  0  0  0  0  0  0  0  0  0  0
    3.3235    1.3272    3.3238 H   0  0  0  0  0  0  0  0  0  0  0  0
    2.7742   -0.3483    3.4501 H   0  0  0  0  0  0  0  0  0  0  0  0
    2.7850   -0.1105    6.0090 H   0  0  0  0  0  0  0  0  0  0  0  0
    3.2807    1.5348    5.8156 H   0  0  0  0  0  0  0  0  0  0  0  0
    0.3446   -3.1550    4.9953 H   0  0  0  0  0  0  0  0  0  0  0  0
    0.0795   -2.2934    3.4799 H   0  0  0  0  0  0  0  0  0  0  0  0
   -1.1380   -2.2135    4.7755 H   0  0  0  0  0  0  0  0  0  0  0  0
    1.7486    3.4831    7.5900 H   0  0  0  0  0  0  0  0  0  0  0  0
   -3.3402    2.3392    7.4114 H   0  0  0  0  0  0  0  0  0  0  0  0
   -2.9965    4.0669    7.4290 H   0  0  0  0  0  0  0  0  0  0  0  0
   -2.7232    3.1090    8.8772 H   0  0  0  0  0  0  0  0  0  0  0  0
    1.3237    1.1751    7.5264 H   0  0  0  0  0  0  0  0  0  0  0  0
    2.5607    3.6677    5.4607 H   0  0  0  0  0  0  0  0  0  0  0  0
    0.0300    5.1763    4.8933 H   0  0  0  0  0  0  0  0  0  0  0  0
    1.7190    5.6827    4.6781 H   0  0  0  0  0  0  0  0  0  0  0  0
    0.6568    2.6702    1.3654 H   0  0  0  0  0  0  0  0  0  0  0  0
    0.7434    1.1463    2.2645 H   0  0  0  0  0  0  0  0  0  0  0  0
    0.8361    4.7477    2.4032 H   0  0  0  0  0  0  0  0  0  0  0  0
  1  2  1  0
  1 22  1  0
  1 23  1  0
  1 24  1  0
  3  2  1  1
  2 25  1  0
  2 26  1  0
  3 21  1  0
  3  4  1  0
  3  8  1  0
  4  5  2  0
  4  6  1  0
  6  7  1  0
  7 27  1  0
  7 28  1  0
  7 29  1  0
  8  9  1  0
  8 34  1  1
  8 14  1  0
  9 10  1  0
  9 16  1  0
  9 30  1  1
 10 11  2  0
 10 12  1  0
 12 14  1  0
 12 13  1  0
 13 31  1  0
 13 32  1  0
 13 33  1  0
 14 15  2  0
 16 21  1  0
 16 17  1  0
 16 35  1  1
 17 18  1  0
 17 36  1  0
 17 37  1  0
 18 19  2  0
 18 40  1  0
 19 20  1  0
 19 21  1  0
 20 38  1  0
 20 39  1  0
M  CHG  1  18   1
M  END
>  <i_m_ct_stereo_status>  (300) 
1

>  <s_m_source_file>  (300) 
/var/tmp/pbs.5076255.sched01/tmpos3i1bch/920fm1no0n.sdf

>  <i_m_source_file_index>  (300) 
35

>  <i_lp_mmshare_version>  (300) 
48012

>  <i_f3d_flags>  (300) 
0

>  <s_epik_input>  (300) 
W0NIM11PQyg9TylbQ0BAXTEoW0NIMl1bQ0gzXSlOKEMoW05IMl0pPU5bQ0gyXTIpW0NAQEhdMmMoYzEzKWMoW09IXSluKFtDSDNdKWMzW09IXQ==

>  <s_epik_cmdline>  (300) 
J2VwaWtfcHl0aG9uJywgJy1waHQnLCAnMi4wJywgJy1waCcsICc3LjAnLCAnLXRuJywgJzgnLCAnLW1hJywgJzIwMCcsICctaW1hZScsICc8aW5maWxlLm1hZT4nLCAnLW9tYWUnLCAnPG91dGZpbGUubWFlPic=

>  <r_lp_tautomer_probability>  (300) 
1

>  <r_epik_Ionization_Penalty>  (300) 
0.0860747

>  <r_epik_Ionization_Penalty_Charging>  (300) 
0.0860747

>  <r_epik_Ionization_Penalty_Neutral>  (300) 
6.9989e-14

>  <r_epik_State_Penalty>  (300) 
0.0766205

>  <r_epik_Charging_Adjusted_Penalty>  (300) 
0.162695

>  <i_epik_Tot_Q>  (300) 
1

>  <i_epik_Tot_abs_Q>  (300) 
1

>  <s_epik_Chemistry_Notes>  (300) 
This compound has an ester and may undergo hydrolysis at high or low pH. This compound has an imine and may undergo hydrolysis.

>  <s_lp_Force_Field>  (300) 
OPLS3e

>  <r_lp_Energy>  (300) 
9.9948

>  <b_lp_Chiralities_Consistent>  (300) 
1

>  <s_lp_Variant>  (300) 
90:0-2

>  <s_i_glide_gridfile>  (300) 
pfpi4k_grid

>  <i_i_glide_lignum>  (300) 
35

>  <i_i_glide_rotatable_bonds>  (300) 
3

>  <r_i_docking_score>  (300) 
-3.77013

>  <r_i_glide_ligand_efficiency>  (300) 
-0.17953

>  <r_i_glide_ligand_efficiency_sa>  (300) 
-0.49531

>  <r_i_glide_ligand_efficiency_ln>  (300) 
-0.932158

>  <r_i_glide_gscore>  (300) 
-3.77013

>  <r_i_glide_lipo>  (300) 
-0.150965

>  <r_i_glide_hbond>  (300) 
-0.469335

>  <r_i_glide_metal>  (300) 
-0

>  <r_i_glide_rewards>  (300) 
-1.4159

>  <r_i_glide_evdw>  (300) 
-11.3553

>  <r_i_glide_ecoul>  (300) 
-7.64955

>  <r_i_glide_erotb>  (300) 
0.209864

>  <r_i_glide_esite>  (300) 
-0.228604

>  <r_i_glide_emodel>  (300) 
-25.392

>  <r_i_glide_energy>  (300) 
-19.0049

>  <r_i_glide_einternal>  (300) 
0.878934

>  <r_i_glide_intrahb_reward>  (300) 
-0

>  <i_i_glide_confnum>  (300) 
3

>  <i_i_glide_posenum>  (300) 
28

>  <r_i_glide_eff_state_penalty>  (300) 
0

>  <ligand_id>  (300) 
90

>  <original_smiles>  (300) 
CCC1(C(=O)OC)c2c(c(O)n(C)c2O)C2CN=C(N)N21

>  <smiles>  (300) 
[H]N([H])C1=[N+]([H])C([H])([H])C2([H])N1C(C(=O)OC([H])([H])[H])(C([H])([H])C([H])([H])[H])C1([H])C(=O)N(C([H])([H])[H])C(=O)C12[H]

$$$$
90:1:1
     RDKit          3D

 40 42  0  0  1  0  0  0  0  0999 V2000
    3.4306   -0.8584    4.4743 C   0  0  0  0  0  0  0  0  0  0  0  0
    2.7455    0.0188    5.5404 C   0  0  0  0  0  0  0  0  0  0  0  0
    1.2512    0.3563    5.2573 C   0  0  1  0  0  0  0  0  0  0  0  0
    0.3783   -0.9268    5.1898 C   0  0  0  0  0  0  0  0  0  0  0  0
   -0.5754   -1.0320    4.4169 O   0  0  0  0  0  0  0  0  0  0  0  0
    0.7480   -1.8604    6.0799 O   0  0  0  0  0  0  0  0  0  0  0  0
    0.1351   -3.1376    6.0611 C   0  0  0  0  0  0  0  0  0  0  0  0
    0.7428    1.4212    6.3167 C   0  0  1  0  0  0  0  0  0  0  0  0
    0.9575    2.8364    5.6983 C   0  0  2  0  0  0  0  0  0  0  0  0
   -0.4284    3.4767    5.7466 C   0  0  0  0  0  0  0  0  0  0  0  0
   -0.6575    4.6180    5.3373 O   0  0  0  0  0  0  0  0  0  0  0  0
   -1.3188    2.6466    6.2958 N   0  0  0  0  0  0  0  0  0  0  0  0
   -2.7159    3.0202    6.5252 C   0  0  0  0  0  0  0  0  0  0  0  0
   -0.7688    1.4737    6.6454 C   0  0  0  0  0  0  0  0  0  0  0  0
   -1.3709    0.5478    7.1966 O   0  0  0  0  0  0  0  0  0  0  0  0
    1.4926    2.5601    4.2909 C   0  0  2  0  0  0  0  0  0  0  0  0
    1.0469    3.2648    3.0117 C   0  0  0  0  0  0  0  0  0  0  0  0
    1.0496    2.1400    2.0770 N   0  0  0  0  0  0  0  0  0  0  0  0
    1.0770    0.9568    2.7088 C   0  0  0  0  0  0  0  0  0  0  0  0
    1.0026   -0.2264    2.0790 N   0  0  0  0  0  0  0  0  0  0  0  0
    1.1945    1.1675    4.0288 N   0  0  0  0  0  0  0  0  0  0  0  0
    4.4662   -1.0515    4.7583 H   0  0  0  0  0  0  0  0  0  0  0  0
    3.4521   -0.3704    3.4962 H   0  0  0  0  0  0  0  0  0  0  0  0
    2.9380   -1.8249    4.3554 H   0  0  0  0  0  0  0  0  0  0  0  0
    2.8469   -0.4476    6.5233 H   0  0  0  0  0  0  0  0  0  0  0  0
    3.3167    0.9433    5.6171 H   0  0  0  0  0  0  0  0  0  0  0  0
    0.5967   -3.7693    6.8224 H   0  0  0  0  0  0  0  0  0  0  0  0
    0.2676   -3.6310    5.0931 H   0  0  0  0  0  0  0  0  0  0  0  0
   -0.9337   -3.0620    6.2761 H   0  0  0  0  0  0  0  0  0  0  0  0
    1.6706    3.4268    6.2793 H   0  0  0  0  0  0  0  0  0  0  0  0
   -3.3716    2.1517    6.5288 H   0  0  0  0  0  0  0  0  0  0  0  0
   -3.0854    3.7011    5.7563 H   0  0  0  0  0  0  0  0  0  0  0  0
   -2.8304    3.5202    7.4877 H   0  0  0  0  0  0  0  0  0  0  0  0
    1.2959    1.3265    7.2542 H   0  0  0  0  0  0  0  0  0  0  0  0
    2.5751    2.6667    4.3246 H   0  0  0  0  0  0  0  0  0  0  0  0
    0.0327    3.6573    3.0660 H   0  0  0  0  0  0  0  0  0  0  0  0
    1.7166    4.0603    2.6932 H   0  0  0  0  0  0  0  0  0  0  0  0
    0.9359   -0.2660    1.0584 H   0  0  0  0  0  0  0  0  0  0  0  0
    0.9390   -1.0864    2.6066 H   0  0  0  0  0  0  0  0  0  0  0  0
    0.9306    2.3018    1.0849 H   0  0  0  0  0  0  0  0  0  0  0  0
  1  2  1  0
  1 22  1  0
  1 23  1  0
  1 24  1  0
  3  2  1  1
  2 25  1  0
  2 26  1  0
  3 21  1  0
  3  4  1  0
  3  8  1  0
  4  5  2  0
  4  6  1  0
  6  7  1  0
  7 27  1  0
  7 28  1  0
  7 29  1  0
  8  9  1  0
  8 34  1  1
  8 14  1  0
  9 10  1  0
  9 16  1  0
  9 30  1  1
 10 11  2  0
 10 12  1  0
 12 14  1  0
 12 13  1  0
 13 31  1  0
 13 32  1  0
 13 33  1  0
 14 15  2  0
 16 21  1  0
 16 17  1  0
 16 35  1  1
 17 18  1  0
 17 36  1  0
 17 37  1  0
 18 19  2  0
 18 40  1  0
 19 20  1  0
 19 21  1  0
 20 38  1  0
 20 39  1  0
M  CHG  1  18   1
M  END
>  <i_m_ct_stereo_status>  (301) 
1

>  <s_m_source_file>  (301) 
/var/tmp/pbs.5076255.sched01/tmpos3i1bch/920fm1no0n.sdf

>  <i_m_source_file_index>  (301) 
35

>  <i_lp_mmshare_version>  (301) 
48012

>  <i_f3d_flags>  (301) 
0

>  <s_epik_input>  (301) 
W0NIM11PQyg9TylbQ0BAXTEoW0NIMl1bQ0gzXSlOKEMoW05IMl0pPU5bQ0gyXTIpW0NAQEhdMmMoYzEzKWMoW09IXSluKFtDSDNdKWMzW09IXQ==

>  <s_epik_cmdline>  (301) 
J2VwaWtfcHl0aG9uJywgJy1waHQnLCAnMi4wJywgJy1waCcsICc3LjAnLCAnLXRuJywgJzgnLCAnLW1hJywgJzIwMCcsICctaW1hZScsICc8aW5maWxlLm1hZT4nLCAnLW9tYWUnLCAnPG91dGZpbGUubWFlPic=

>  <r_lp_tautomer_probability>  (301) 
1

>  <r_epik_Ionization_Penalty>  (301) 
0.0860747

>  <r_epik_Ionization_Penalty_Charging>  (301) 
0.0860747

>  <r_epik_Ionization_Penalty_Neutral>  (301) 
6.9989e-14

>  <r_epik_State_Penalty>  (301) 
0.0766205

>  <r_epik_Charging_Adjusted_Penalty>  (301) 
0.162695

>  <i_epik_Tot_Q>  (301) 
1

>  <i_epik_Tot_abs_Q>  (301) 
1

>  <s_epik_Chemistry_Notes>  (301) 
This compound has an ester and may undergo hydrolysis at high or low pH. This compound has an imine and may undergo hydrolysis.

>  <s_lp_Force_Field>  (301) 
OPLS3e

>  <r_lp_Energy>  (301) 
9.9948

>  <b_lp_Chiralities_Consistent>  (301) 
1

>  <s_lp_Variant>  (301) 
90:0-2

>  <s_i_glide_gridfile>  (301) 
pfpi4k_grid

>  <i_i_glide_lignum>  (301) 
35

>  <i_i_glide_rotatable_bonds>  (301) 
3

>  <r_i_docking_score>  (301) 
-3.46049

>  <r_i_glide_ligand_efficiency>  (301) 
-0.164785

>  <r_i_glide_ligand_efficiency_sa>  (301) 
-0.45463

>  <r_i_glide_ligand_efficiency_ln>  (301) 
-0.855599

>  <r_i_glide_gscore>  (301) 
-3.46049

>  <r_i_glide_lipo>  (301) 
-0.157657

>  <r_i_glide_hbond>  (301) 
-0.376917

>  <r_i_glide_metal>  (301) 
-0

>  <r_i_glide_rewards>  (301) 
-1.43627

>  <r_i_glide_evdw>  (301) 
-11.9532

>  <r_i_glide_ecoul>  (301) 
-5.94523

>  <r_i_glide_erotb>  (301) 
0.209864

>  <r_i_glide_esite>  (301) 
-0.210061

>  <r_i_glide_emodel>  (301) 
-23.9722

>  <r_i_glide_energy>  (301) 
-17.8984

>  <r_i_glide_einternal>  (301) 
0.981412

>  <r_i_glide_intrahb_reward>  (301) 
-0

>  <i_i_glide_confnum>  (301) 
3

>  <i_i_glide_posenum>  (301) 
19

>  <r_i_glide_eff_state_penalty>  (301) 
0

>  <ligand_id>  (301) 
90

>  <original_smiles>  (301) 
CCC1(C(=O)OC)c2c(c(O)n(C)c2O)C2CN=C(N)N21

>  <smiles>  (301) 
[H]N([H])C1=[N+]([H])C([H])([H])C2([H])N1C(C(=O)OC([H])([H])[H])(C([H])([H])C([H])([H])[H])C1([H])C(=O)N(C([H])([H])[H])C(=O)C12[H]

$$$$
90:1:2
     RDKit          3D

 40 42  0  0  1  0  0  0  0  0999 V2000
    5.6223   -6.4947    0.9961 C   0  0  0  0  0  0  0  0  0  0  0  0
    5.3505   -5.2027    0.1960 C   0  0  0  0  0  0  0  0  0  0  0  0
    4.1306   -4.3205    0.6131 C   0  0  1  0  0  0  0  0  0  0  0  0
    2.7944   -5.1181    0.5457 C   0  0  0  0  0  0  0  0  0  0  0  0
    1.8816   -4.8360   -0.2292 O   0  0  0  0  0  0  0  0  0  0  0  0
    2.7360   -6.1357    1.4134 O   0  0  0  0  0  0  0  0  0  0  0  0
    1.5832   -6.9572    1.4583 C   0  0  0  0  0  0  0  0  0  0  0  0
    4.4035   -3.6527    2.0317 C   0  0  1  0  0  0  0  0  0  0  0  0
    5.0682   -2.2660    1.7751 C   0  0  2  0  0  0  0  0  0  0  0  0
    4.1633   -1.2857    2.5076 C   0  0  0  0  0  0  0  0  0  0  0  0
    4.3862   -0.0719    2.5380 O   0  0  0  0  0  0  0  0  0  0  0  0
    3.1507   -1.9227    3.1013 N   0  0  0  0  0  0  0  0  0  0  0  0
    2.1423   -1.2443    3.9201 C   0  0  0  0  0  0  0  0  0  0  0  0
    3.1934   -3.2446    2.9022 C   0  0  0  0  0  0  0  0  0  0  0  0
    2.3980   -4.0606    3.3841 O   0  0  0  0  0  0  0  0  0  0  0  0
    5.0836   -2.1171    0.2485 C   0  0  2  0  0  0  0  0  0  0  0  0
    4.7061   -0.8574   -0.5296 C   0  0  0  0  0  0  0  0  0  0  0  0
    4.0151   -1.4458   -1.6824 N   0  0  0  0  0  0  0  0  0  0  0  0
    3.6758   -2.7217   -1.4507 C   0  0  0  0  0  0  0  0  0  0  0  0
    2.9804   -3.4513   -2.3166 N   0  0  0  0  0  0  0  0  0  0  0  0
    4.1544   -3.1177   -0.2523 N   0  0  0  0  0  0  0  0  0  0  0  0
    6.5571   -6.9594    0.6694 H   0  0  0  0  0  0  0  0  0  0  0  0
    4.8344   -7.2372    0.8538 H   0  0  0  0  0  0  0  0  0  0  0  0
    5.7273   -6.2922    2.0665 H   0  0  0  0  0  0  0  0  0  0  0  0
    6.2687   -4.6168    0.2713 H   0  0  0  0  0  0  0  0  0  0  0  0
    5.2554   -5.4533   -0.8615 H   0  0  0  0  0  0  0  0  0  0  0  0
    1.7541   -7.7678    2.1670 H   0  0  0  0  0  0  0  0  0  0  0  0
    1.3596   -7.4007    0.4846 H   0  0  0  0  0  0  0  0  0  0  0  0
    0.7130   -6.3795    1.7829 H   0  0  0  0  0  0  0  0  0  0  0  0
    6.0796   -2.2217    2.1911 H   0  0  0  0  0  0  0  0  0  0  0  0
    1.1908   -1.7762    3.9191 H   0  0  0  0  0  0  0  0  0  0  0  0
    1.9447   -0.2325    3.5649 H   0  0  0  0  0  0  0  0  0  0  0  0
    2.4778   -1.1673    4.9544 H   0  0  0  0  0  0  0  0  0  0  0  0
    5.0687   -4.2591    2.6532 H   0  0  0  0  0  0  0  0  0  0  0  0
    6.0874   -2.3889   -0.0827 H   0  0  0  0  0  0  0  0  0  0  0  0
    4.0179   -0.2106    0.0153 H   0  0  0  0  0  0  0  0  0  0  0  0
    5.5760   -0.2672   -0.8241 H   0  0  0  0  0  0  0  0  0  0  0  0
    2.6156   -3.0523   -3.1819 H   0  0  0  0  0  0  0  0  0  0  0  0
    2.6974   -4.4130   -2.0819 H   0  0  0  0  0  0  0  0  0  0  0  0
    3.7515   -0.9120   -2.5010 H   0  0  0  0  0  0  0  0  0  0  0  0
  1  2  1  0
  1 22  1  0
  1 23  1  0
  1 24  1  0
  3  2  1  6
  2 25  1  0
  2 26  1  0
  3 21  1  0
  3  4  1  0
  3  8  1  0
  4  5  2  0
  4  6  1  0
  6  7  1  0
  7 27  1  0
  7 28  1  0
  7 29  1  0
  8  9  1  0
  8 34  1  1
  8 14  1  0
  9 10  1  0
  9 16  1  0
  9 30  1  1
 10 11  2  0
 10 12  1  0
 12 14  1  0
 12 13  1  0
 13 31  1  0
 13 32  1  0
 13 33  1  0
 14 15  2  0
 16 21  1  0
 16 17  1  0
 16 35  1  6
 17 18  1  0
 17 36  1  0
 17 37  1  0
 18 19  2  0
 18 40  1  0
 19 20  1  0
 19 21  1  0
 20 38  1  0
 20 39  1  0
M  CHG  1  18   1
M  END
>  <i_m_ct_stereo_status>  (302) 
1

>  <s_m_source_file>  (302) 
/var/tmp/pbs.5076255.sched01/tmpos3i1bch/920fm1no0n.sdf

>  <i_m_source_file_index>  (302) 
35

>  <i_lp_mmshare_version>  (302) 
48012

>  <i_f3d_flags>  (302) 
0

>  <s_epik_input>  (302) 
W0NIM11PQyg9TylbQ0BAXTEoW0NIMl1bQ0gzXSlOKEMoW05IMl0pPU5bQ0gyXTIpW0NAQEhdMmMoYzEzKWMoW09IXSluKFtDSDNdKWMzW09IXQ==

>  <s_epik_cmdline>  (302) 
J2VwaWtfcHl0aG9uJywgJy1waHQnLCAnMi4wJywgJy1waCcsICc3LjAnLCAnLXRuJywgJzgnLCAnLW1hJywgJzIwMCcsICctaW1hZScsICc8aW5maWxlLm1hZT4nLCAnLW9tYWUnLCAnPG91dGZpbGUubWFlPic=

>  <r_lp_tautomer_probability>  (302) 
1

>  <r_epik_Ionization_Penalty>  (302) 
0.0860747

>  <r_epik_Ionization_Penalty_Charging>  (302) 
0.0860747

>  <r_epik_Ionization_Penalty_Neutral>  (302) 
6.9989e-14

>  <r_epik_State_Penalty>  (302) 
0.0766205

>  <r_epik_Charging_Adjusted_Penalty>  (302) 
0.162695

>  <i_epik_Tot_Q>  (302) 
1

>  <i_epik_Tot_abs_Q>  (302) 
1

>  <s_epik_Chemistry_Notes>  (302) 
This compound has an ester and may undergo hydrolysis at high or low pH. This compound has an imine and may undergo hydrolysis.

>  <s_lp_Force_Field>  (302) 
OPLS3e

>  <r_lp_Energy>  (302) 
9.9948

>  <b_lp_Chiralities_Consistent>  (302) 
1

>  <s_lp_Variant>  (302) 
90:0-2

>  <s_i_glide_gridfile>  (302) 
pfpi4k_grid

>  <i_i_glide_lignum>  (302) 
35

>  <i_i_glide_rotatable_bonds>  (302) 
3

>  <r_i_docking_score>  (302) 
-3.26341

>  <r_i_glide_ligand_efficiency>  (302) 
-0.155401

>  <r_i_glide_ligand_efficiency_sa>  (302) 
-0.428738

>  <r_i_glide_ligand_efficiency_ln>  (302) 
-0.806872

>  <r_i_glide_gscore>  (302) 
-3.26341

>  <r_i_glide_lipo>  (302) 
-0.270299

>  <r_i_glide_hbond>  (302) 
-0.0325514

>  <r_i_glide_metal>  (302) 
-0

>  <r_i_glide_rewards>  (302) 
-1.93405

>  <r_i_glide_evdw>  (302) 
-14.443

>  <r_i_glide_ecoul>  (302) 
-2.81455

>  <r_i_glide_erotb>  (302) 
0.209864

>  <r_i_glide_esite>  (302) 
-0.0920476

>  <r_i_glide_emodel>  (302) 
-27.8155

>  <r_i_glide_energy>  (302) 
-17.2575

>  <r_i_glide_einternal>  (302) 
1.25353

>  <r_i_glide_intrahb_reward>  (302) 
-0.5

>  <i_i_glide_confnum>  (302) 
6

>  <i_i_glide_posenum>  (302) 
37

>  <r_i_glide_eff_state_penalty>  (302) 
0

>  <ligand_id>  (302) 
90

>  <original_smiles>  (302) 
CCC1(C(=O)OC)c2c(c(O)n(C)c2O)C2CN=C(N)N21

>  <smiles>  (302) 
[H]N([H])C1=[N+]([H])C([H])([H])C2([H])N1C(C(=O)OC([H])([H])[H])(C([H])([H])C([H])([H])[H])C1([H])C(=O)N(C([H])([H])[H])C(=O)C12[H]

$$$$
90:2:0
     RDKit          3D

 39 41  0  0  1  0  0  0  0  0999 V2000
    5.0175   -0.1238    0.9822 C   0  0  0  0  0  0  0  0  0  0  0  0
    4.9037   -1.6025    1.3835 C   0  0  0  0  0  0  0  0  0  0  0  0
    5.0499   -2.6446    0.2196 C   0  0  1  0  0  0  0  0  0  0  0  0
    6.4788   -2.6009   -0.4024 C   0  0  0  0  0  0  0  0  0  0  0  0
    6.6908   -2.5768   -1.6150 O   0  0  0  0  0  0  0  0  0  0  0  0
    7.4621   -2.6100    0.5033 O   0  0  0  0  0  0  0  0  0  0  0  0
    8.8023   -2.5600    0.0428 C   0  0  0  0  0  0  0  0  0  0  0  0
    4.7875   -4.1351    0.6727 C   0  0  2  0  0  0  0  0  0  0  0  0
    3.4461   -4.5726    0.0482 C   0  0  1  0  0  0  0  0  0  0  0  0
    2.6689   -5.1684    1.2131 C   0  0  0  0  0  0  0  0  0  0  0  0
    1.5535   -5.6837    1.0826 O   0  0  0  0  0  0  0  0  0  0  0  0
    3.3583   -5.0432    2.3510 N   0  0  0  0  0  0  0  0  0  0  0  0
    2.8757   -5.5083    3.6544 C   0  0  0  0  0  0  0  0  0  0  0  0
    4.5558   -4.4605    2.1578 C   0  0  0  0  0  0  0  0  0  0  0  0
    5.3970   -4.2421    3.0292 O   0  0  0  0  0  0  0  0  0  0  0  0
    2.8299   -3.2788   -0.4868 C   0  0  2  0  0  0  0  0  0  0  0  0
    2.0968   -3.3055   -1.8404 C   0  0  0  0  0  0  0  0  0  0  0  0
    2.7290   -2.2695   -2.6362 N   0  0  0  0  0  0  0  0  0  0  0  0
    3.7417   -1.8404   -1.9714 C   0  0  0  0  0  0  0  0  0  0  0  0
    4.5965   -0.8602   -2.4027 N   0  0  0  0  0  0  0  0  0  0  0  0
    3.9571   -2.4425   -0.7476 N   0  0  0  0  0  0  0  0  0  0  0  0
    4.9433    0.5087    1.8691 H   0  0  0  0  0  0  0  0  0  0  0  0
    4.2040    0.1701    0.3178 H   0  0  0  0  0  0  0  0  0  0  0  0
    5.9631    0.0972    0.4863 H   0  0  0  0  0  0  0  0  0  0  0  0
    5.6531   -1.7859    2.1581 H   0  0  0  0  0  0  0  0  0  0  0  0
    3.9395   -1.7295    1.8853 H   0  0  0  0  0  0  0  0  0  0  0  0
    9.4826   -2.5694    0.8908 H   0  0  0  0  0  0  0  0  0  0  0  0
    8.9793   -1.6487   -0.5285 H   0  0  0  0  0  0  0  0  0  0  0  0
    9.0226   -3.4111   -0.6039 H   0  0  0  0  0  0  0  0  0  0  0  0
    3.6220   -5.3254   -0.7153 H   0  0  0  0  0  0  0  0  0  0  0  0
    3.2962   -4.9240    4.4755 H   0  0  0  0  0  0  0  0  0  0  0  0
    3.1450   -6.5533    3.8194 H   0  0  0  0  0  0  0  0  0  0  0  0
    1.7899   -5.4294    3.7340 H   0  0  0  0  0  0  0  0  0  0  0  0
    5.5762   -4.8039    0.3171 H   0  0  0  0  0  0  0  0  0  0  0  0
    2.2156   -2.7817    0.2658 H   0  0  0  0  0  0  0  0  0  0  0  0
    2.1868   -4.2525   -2.3573 H   0  0  0  0  0  0  0  0  0  0  0  0
    1.0322   -3.1075   -1.7306 H   0  0  0  0  0  0  0  0  0  0  0  0
    4.4632   -0.4406   -3.3114 H   0  0  0  0  0  0  0  0  0  0  0  0
    5.5520   -0.8612   -2.0772 H   0  0  0  0  0  0  0  0  0  0  0  0
  1  2  1  0
  1 22  1  0
  1 23  1  0
  1 24  1  0
  3  2  1  1
  2 25  1  0
  2 26  1  0
  3 21  1  0
  3  4  1  0
  3  8  1  0
  4  5  2  0
  4  6  1  0
  6  7  1  0
  7 27  1  0
  7 28  1  0
  7 29  1  0
  8  9  1  0
  8 34  1  6
  8 14  1  0
  9 10  1  0
  9 16  1  0
  9 30  1  6
 10 11  2  0
 10 12  1  0
 12 14  1  0
 12 13  1  0
 13 31  1  0
 13 32  1  0
 13 33  1  0
 14 15  2  0
 16 21  1  0
 16 17  1  0
 16 35  1  1
 17 18  1  0
 17 36  1  0
 17 37  1  0
 18 19  2  0
 19 20  1  0
 19 21  1  0
 20 38  1  0
 20 39  1  0
M  END
>  <i_m_ct_stereo_status>  (303) 
1

>  <s_m_source_file>  (303) 
/var/tmp/pbs.5076255.sched01/tmpos3i1bch/920fm1no0n.sdf

>  <i_m_source_file_index>  (303) 
36

>  <i_lp_mmshare_version>  (303) 
48012

>  <i_f3d_flags>  (303) 
0

>  <s_epik_input>  (303) 
W0NIM11PQyg9TylbQ0BAXTEoW0NIMl1bQ0gzXSlOKEMoW05IMl0pPU5bQ0gyXTIpW0NAQEhdMmMoYzEzKWMoW09IXSluKFtDSDNdKWMzW09IXQ==

>  <s_epik_cmdline>  (303) 
J2VwaWtfcHl0aG9uJywgJy1waHQnLCAnMi4wJywgJy1waCcsICc3LjAnLCAnLXRuJywgJzgnLCAnLW1hJywgJzIwMCcsICctaW1hZScsICc8aW5maWxlLm1hZT4nLCAnLW9tYWUnLCAnPG91dGZpbGUubWFlPic=

>  <r_lp_tautomer_probability>  (303) 
1

>  <r_epik_Ionization_Penalty>  (303) 
1.18551

>  <r_epik_Ionization_Penalty_Charging>  (303) 
0

>  <r_epik_Ionization_Penalty_Neutral>  (303) 
1.18551

>  <r_epik_State_Penalty>  (303) 
1.2498

>  <r_epik_Charging_Adjusted_Penalty>  (303) 
1.2498

>  <i_epik_Tot_Q>  (303) 
0

>  <i_epik_Tot_abs_Q>  (303) 
0

>  <s_epik_Chemistry_Notes>  (303) 
This compound has an ester and may undergo hydrolysis at high or low pH. This compound has an imine and may undergo hydrolysis.

>  <s_lp_Force_Field>  (303) 
OPLS3e

>  <r_lp_Energy>  (303) 
-1.59397

>  <b_lp_Chiralities_Consistent>  (303) 
1

>  <s_lp_Variant>  (303) 
90:0-3

>  <s_i_glide_gridfile>  (303) 
pfpi4k_grid

>  <i_i_glide_lignum>  (303) 
36

>  <i_i_glide_rotatable_bonds>  (303) 
3

>  <r_i_docking_score>  (303) 
-4.01218

>  <r_i_glide_ligand_efficiency>  (303) 
-0.191056

>  <r_i_glide_ligand_efficiency_sa>  (303) 
-0.52711

>  <r_i_glide_ligand_efficiency_ln>  (303) 
-0.992004

>  <r_i_glide_gscore>  (303) 
-4.01218

>  <r_i_glide_lipo>  (303) 
-0.415769

>  <r_i_glide_hbond>  (303) 
-0.209759

>  <r_i_glide_metal>  (303) 
-0

>  <r_i_glide_rewards>  (303) 
-1.9219

>  <r_i_glide_evdw>  (303) 
-23.8837

>  <r_i_glide_ecoul>  (303) 
-2.68701

>  <r_i_glide_erotb>  (303) 
0.211122

>  <r_i_glide_esite>  (303) 
-0.0786349

>  <r_i_glide_emodel>  (303) 
-35.8228

>  <r_i_glide_energy>  (303) 
-26.5707

>  <r_i_glide_einternal>  (303) 
1.85179

>  <r_i_glide_intrahb_reward>  (303) 
-0.5

>  <i_i_glide_confnum>  (303) 
6

>  <i_i_glide_posenum>  (303) 
1

>  <r_i_glide_eff_state_penalty>  (303) 
0

>  <ligand_id>  (303) 
90

>  <original_smiles>  (303) 
CCC1(C(=O)OC)c2c(c(O)n(C)c2O)C2CN=C(N)N21

>  <smiles>  (303) 
[H]N([H])C1=NC([H])([H])C2([H])N1C(C(=O)OC([H])([H])[H])(C([H])([H])C([H])([H])[H])C1([H])C(=O)N(C([H])([H])[H])C(=O)C12[H]

$$$$
90:2:1
     RDKit          3D

 39 41  0  0  1  0  0  0  0  0999 V2000
    3.0917   -4.9315    0.7700 C   0  0  0  0  0  0  0  0  0  0  0  0
    3.8257   -4.3257   -0.4428 C   0  0  0  0  0  0  0  0  0  0  0  0
    5.0761   -3.4413   -0.1518 C   0  0  1  0  0  0  0  0  0  0  0  0
    6.2652   -4.2690    0.4030 C   0  0  0  0  0  0  0  0  0  0  0  0
    6.2018   -5.4841    0.5883 O   0  0  0  0  0  0  0  0  0  0  0  0
    7.3523   -3.5196    0.6293 O   0  0  0  0  0  0  0  0  0  0  0  0
    8.5560   -4.1462    1.0222 C   0  0  0  0  0  0  0  0  0  0  0  0
    5.5947   -2.6818   -1.4363 C   0  0  2  0  0  0  0  0  0  0  0  0
    5.2585   -1.1846   -1.2221 C   0  0  1  0  0  0  0  0  0  0  0  0
    4.5524   -0.8324   -2.5287 C   0  0  0  0  0  0  0  0  0  0  0  0
    4.2133    0.2973   -2.8532 O   0  0  0  0  0  0  0  0  0  0  0  0
    4.4017   -1.8792   -3.3186 N   0  0  0  0  0  0  0  0  0  0  0  0
    3.8071   -1.7390   -4.6340 C   0  0  0  0  0  0  0  0  0  0  0  0
    4.9549   -2.9810   -2.8097 C   0  0  0  0  0  0  0  0  0  0  0  0
    5.0121   -4.0627   -3.3760 O   0  0  0  0  0  0  0  0  0  0  0  0
    4.3132   -1.1588   -0.0225 C   0  0  2  0  0  0  0  0  0  0  0  0
    4.4591   -0.0474    1.0284 C   0  0  0  0  0  0  0  0  0  0  0  0
    4.5733   -0.7479    2.3003 N   0  0  0  0  0  0  0  0  0  0  0  0
    4.7481   -1.9932    2.0398 C   0  0  0  0  0  0  0  0  0  0  0  0
    4.9918   -2.9665    2.9799 N   0  0  0  0  0  0  0  0  0  0  0  0
    4.6971   -2.3219    0.7097 N   0  0  0  0  0  0  0  0  0  0  0  0
    2.2812   -5.5845    0.4412 H   0  0  0  0  0  0  0  0  0  0  0  0
    2.6509   -4.1517    1.3934 H   0  0  0  0  0  0  0  0  0  0  0  0
    3.7517   -5.5311    1.3953 H   0  0  0  0  0  0  0  0  0  0  0  0
    4.1684   -5.1335   -1.0889 H   0  0  0  0  0  0  0  0  0  0  0  0
    3.0788   -3.7702   -1.0178 H   0  0  0  0  0  0  0  0  0  0  0  0
    9.3334   -3.3894    1.1368 H   0  0  0  0  0  0  0  0  0  0  0  0
    8.8843   -4.8625    0.2652 H   0  0  0  0  0  0  0  0  0  0  0  0
    8.4286   -4.6650    1.9740 H   0  0  0  0  0  0  0  0  0  0  0  0
    6.1642   -0.6129   -1.0088 H   0  0  0  0  0  0  0  0  0  0  0  0
    3.3820   -2.6873   -4.9423 H   0  0  0  0  0  0  0  0  0  0  0  0
    4.5761   -1.4004   -5.3173 H   0  0  0  0  0  0  0  0  0  0  0  0
    3.0208   -0.9846   -4.6681 H   0  0  0  0  0  0  0  0  0  0  0  0
    6.6706   -2.7828   -1.5971 H   0  0  0  0  0  0  0  0  0  0  0  0
    3.2656   -1.2517   -0.3208 H   0  0  0  0  0  0  0  0  0  0  0  0
    5.3621    0.5405    0.8776 H   0  0  0  0  0  0  0  0  0  0  0  0
    3.6104    0.6351    1.0248 H   0  0  0  0  0  0  0  0  0  0  0  0
    4.9680   -2.7445    3.9621 H   0  0  0  0  0  0  0  0  0  0  0  0
    5.3216   -3.9026    2.7734 H   0  0  0  0  0  0  0  0  0  0  0  0
  1  2  1  0
  1 22  1  0
  1 23  1  0
  1 24  1  0
  3  2  1  6
  2 25  1  0
  2 26  1  0
  3 21  1  0
  3  4  1  0
  3  8  1  0
  4  5  2  0
  4  6  1  0
  6  7  1  0
  7 27  1  0
  7 28  1  0
  7 29  1  0
  8  9  1  0
  8 34  1  6
  8 14  1  0
  9 10  1  0
  9 16  1  0
  9 30  1  1
 10 11  2  0
 10 12  1  0
 12 14  1  0
 12 13  1  0
 13 31  1  0
 13 32  1  0
 13 33  1  0
 14 15  2  0
 16 21  1  0
 16 17  1  0
 16 35  1  6
 17 18  1  0
 17 36  1  0
 17 37  1  0
 18 19  2  0
 19 20  1  0
 19 21  1  0
 20 38  1  0
 20 39  1  0
M  END
>  <i_m_ct_stereo_status>  (304) 
1

>  <s_m_source_file>  (304) 
/var/tmp/pbs.5076255.sched01/tmpos3i1bch/920fm1no0n.sdf

>  <i_m_source_file_index>  (304) 
36

>  <i_lp_mmshare_version>  (304) 
48012

>  <i_f3d_flags>  (304) 
0

>  <s_epik_input>  (304) 
W0NIM11PQyg9TylbQ0BAXTEoW0NIMl1bQ0gzXSlOKEMoW05IMl0pPU5bQ0gyXTIpW0NAQEhdMmMoYzEzKWMoW09IXSluKFtDSDNdKWMzW09IXQ==

>  <s_epik_cmdline>  (304) 
J2VwaWtfcHl0aG9uJywgJy1waHQnLCAnMi4wJywgJy1waCcsICc3LjAnLCAnLXRuJywgJzgnLCAnLW1hJywgJzIwMCcsICctaW1hZScsICc8aW5maWxlLm1hZT4nLCAnLW9tYWUnLCAnPG91dGZpbGUubWFlPic=

>  <r_lp_tautomer_probability>  (304) 
1

>  <r_epik_Ionization_Penalty>  (304) 
1.18551

>  <r_epik_Ionization_Penalty_Charging>  (304) 
0

>  <r_epik_Ionization_Penalty_Neutral>  (304) 
1.18551

>  <r_epik_State_Penalty>  (304) 
1.2498

>  <r_epik_Charging_Adjusted_Penalty>  (304) 
1.2498

>  <i_epik_Tot_Q>  (304) 
0

>  <i_epik_Tot_abs_Q>  (304) 
0

>  <s_epik_Chemistry_Notes>  (304) 
This compound has an ester and may undergo hydrolysis at high or low pH. This compound has an imine and may undergo hydrolysis.

>  <s_lp_Force_Field>  (304) 
OPLS3e

>  <r_lp_Energy>  (304) 
-1.59397

>  <b_lp_Chiralities_Consistent>  (304) 
1

>  <s_lp_Variant>  (304) 
90:0-3

>  <s_i_glide_gridfile>  (304) 
pfpi4k_grid

>  <i_i_glide_lignum>  (304) 
36

>  <i_i_glide_rotatable_bonds>  (304) 
3

>  <r_i_docking_score>  (304) 
-2.83465

>  <r_i_glide_ligand_efficiency>  (304) 
-0.134983

>  <r_i_glide_ligand_efficiency_sa>  (304) 
-0.372409

>  <r_i_glide_ligand_efficiency_ln>  (304) 
-0.700861

>  <r_i_glide_gscore>  (304) 
-2.83465

>  <r_i_glide_lipo>  (304) 
-0.199835

>  <r_i_glide_hbond>  (304) 
0

>  <r_i_glide_metal>  (304) 
-0

>  <r_i_glide_rewards>  (304) 
-1.91788

>  <r_i_glide_evdw>  (304) 
-22.9324

>  <r_i_glide_ecoul>  (304) 
1.55307

>  <r_i_glide_erotb>  (304) 
0.211122

>  <r_i_glide_esite>  (304) 
-0.0143901

>  <r_i_glide_emodel>  (304) 
-24.8305

>  <r_i_glide_energy>  (304) 
-21.3794

>  <r_i_glide_einternal>  (304) 
0.635492

>  <r_i_glide_intrahb_reward>  (304) 
-0

>  <i_i_glide_confnum>  (304) 
1

>  <i_i_glide_posenum>  (304) 
38

>  <r_i_glide_eff_state_penalty>  (304) 
0

>  <ligand_id>  (304) 
90

>  <original_smiles>  (304) 
CCC1(C(=O)OC)c2c(c(O)n(C)c2O)C2CN=C(N)N21

>  <smiles>  (304) 
[H]N([H])C1=NC([H])([H])C2([H])N1C(C(=O)OC([H])([H])[H])(C([H])([H])C([H])([H])[H])C1([H])C(=O)N(C([H])([H])[H])C(=O)C12[H]

$$$$
90:2:2
     RDKit          3D

 39 41  0  0  1  0  0  0  0  0999 V2000
    7.5112   -2.0321    0.0688 C   0  0  0  0  0  0  0  0  0  0  0  0
    6.4092   -3.1330    0.0937 C   0  0  0  0  0  0  0  0  0  0  0  0
    4.9814   -2.8362    0.7301 C   0  0  1  0  0  0  0  0  0  0  0  0
    5.0407   -2.0712    2.0792 C   0  0  0  0  0  0  0  0  0  0  0  0
    6.0154   -1.4186    2.4330 O   0  0  0  0  0  0  0  0  0  0  0  0
    3.9121   -2.1426    2.8090 O   0  0  0  0  0  0  0  0  0  0  0  0
    3.8885   -1.4992    4.0651 C   0  0  0  0  0  0  0  0  0  0  0  0
    3.9807   -2.0362   -0.2043 C   0  0  2  0  0  0  0  0  0  0  0  0
    2.8716   -3.0235   -0.6353 C   0  0  1  0  0  0  0  0  0  0  0  0
    2.8079   -2.8536   -2.1502 C   0  0  0  0  0  0  0  0  0  0  0  0
    1.9932   -3.4434   -2.8581 O   0  0  0  0  0  0  0  0  0  0  0  0
    3.7342   -1.9930   -2.5777 N   0  0  0  0  0  0  0  0  0  0  0  0
    3.9335   -1.6120   -3.9759 C   0  0  0  0  0  0  0  0  0  0  0  0
    4.4497   -1.4916   -1.5670 C   0  0  0  0  0  0  0  0  0  0  0  0
    5.3431   -0.6657   -1.6965 O   0  0  0  0  0  0  0  0  0  0  0  0
    3.4080   -4.3915   -0.2370 C   0  0  2  0  0  0  0  0  0  0  0  0
    2.4145   -5.4140    0.3425 C   0  0  0  0  0  0  0  0  0  0  0  0
    3.0126   -5.8501    1.5884 N   0  0  0  0  0  0  0  0  0  0  0  0
    4.0080   -5.0757    1.8305 C   0  0  0  0  0  0  0  0  0  0  0  0
    4.7675   -5.1206    2.9773 N   0  0  0  0  0  0  0  0  0  0  0  0
    4.2840   -4.1280    0.8586 N   0  0  0  0  0  0  0  0  0  0  0  0
    8.3731   -2.3483   -0.5339 H   0  0  0  0  0  0  0  0  0  0  0  0
    7.8905   -1.8095    1.0634 H   0  0  0  0  0  0  0  0  0  0  0  0
    7.1385   -1.0812   -0.3014 H   0  0  0  0  0  0  0  0  0  0  0  0
    6.2528   -3.4818   -0.9238 H   0  0  0  0  0  0  0  0  0  0  0  0
    6.8322   -4.0048    0.5876 H   0  0  0  0  0  0  0  0  0  0  0  0
    2.9226   -1.6604    4.5492 H   0  0  0  0  0  0  0  0  0  0  0  0
    4.0594   -0.4269    3.9321 H   0  0  0  0  0  0  0  0  0  0  0  0
    4.6846   -1.8891    4.7081 H   0  0  0  0  0  0  0  0  0  0  0  0
    1.9304   -2.7808   -0.1475 H   0  0  0  0  0  0  0  0  0  0  0  0
    4.9717   -1.3377   -4.1689 H   0  0  0  0  0  0  0  0  0  0  0  0
    3.3142   -0.7512   -4.2281 H   0  0  0  0  0  0  0  0  0  0  0  0
    3.6830   -2.4292   -4.6491 H   0  0  0  0  0  0  0  0  0  0  0  0
    3.5174   -1.2000    0.3293 H   0  0  0  0  0  0  0  0  0  0  0  0
    3.9954   -4.8577   -1.0285 H   0  0  0  0  0  0  0  0  0  0  0  0
    1.4348   -4.9945    0.5551 H   0  0  0  0  0  0  0  0  0  0  0  0
    2.2549   -6.2364   -0.3306 H   0  0  0  0  0  0  0  0  0  0  0  0
    4.5603   -5.8037    3.6954 H   0  0  0  0  0  0  0  0  0  0  0  0
    5.3110   -4.3353    3.3079 H   0  0  0  0  0  0  0  0  0  0  0  0
  1  2  1  0
  1 22  1  0
  1 23  1  0
  1 24  1  0
  3  2  1  6
  2 25  1  0
  2 26  1  0
  3 21  1  0
  3  4  1  0
  3  8  1  0
  4  5  2  0
  4  6  1  0
  6  7  1  0
  7 27  1  0
  7 28  1  0
  7 29  1  0
  8  9  1  0
  8 34  1  1
  8 14  1  0
  9 10  1  0
  9 16  1  0
  9 30  1  1
 10 11  2  0
 10 12  1  0
 12 14  1  0
 12 13  1  0
 13 31  1  0
 13 32  1  0
 13 33  1  0
 14 15  2  0
 16 21  1  0
 16 17  1  0
 16 35  1  6
 17 18  1  0
 17 36  1  0
 17 37  1  0
 18 19  2  0
 19 20  1  0
 19 21  1  0
 20 38  1  0
 20 39  1  0
M  END
>  <i_m_ct_stereo_status>  (305) 
1

>  <s_m_source_file>  (305) 
/var/tmp/pbs.5076255.sched01/tmpos3i1bch/920fm1no0n.sdf

>  <i_m_source_file_index>  (305) 
36

>  <i_lp_mmshare_version>  (305) 
48012

>  <i_f3d_flags>  (305) 
0

>  <s_epik_input>  (305) 
W0NIM11PQyg9TylbQ0BAXTEoW0NIMl1bQ0gzXSlOKEMoW05IMl0pPU5bQ0gyXTIpW0NAQEhdMmMoYzEzKWMoW09IXSluKFtDSDNdKWMzW09IXQ==

>  <s_epik_cmdline>  (305) 
J2VwaWtfcHl0aG9uJywgJy1waHQnLCAnMi4wJywgJy1waCcsICc3LjAnLCAnLXRuJywgJzgnLCAnLW1hJywgJzIwMCcsICctaW1hZScsICc8aW5maWxlLm1hZT4nLCAnLW9tYWUnLCAnPG91dGZpbGUubWFlPic=

>  <r_lp_tautomer_probability>  (305) 
1

>  <r_epik_Ionization_Penalty>  (305) 
1.18551

>  <r_epik_Ionization_Penalty_Charging>  (305) 
0

>  <r_epik_Ionization_Penalty_Neutral>  (305) 
1.18551

>  <r_epik_State_Penalty>  (305) 
1.2498

>  <r_epik_Charging_Adjusted_Penalty>  (305) 
1.2498

>  <i_epik_Tot_Q>  (305) 
0

>  <i_epik_Tot_abs_Q>  (305) 
0

>  <s_epik_Chemistry_Notes>  (305) 
This compound has an ester and may undergo hydrolysis at high or low pH. This compound has an imine and may undergo hydrolysis.

>  <s_lp_Force_Field>  (305) 
OPLS3e

>  <r_lp_Energy>  (305) 
-1.59397

>  <b_lp_Chiralities_Consistent>  (305) 
1

>  <s_lp_Variant>  (305) 
90:0-3

>  <s_i_glide_gridfile>  (305) 
pfpi4k_grid

>  <i_i_glide_lignum>  (305) 
36

>  <i_i_glide_rotatable_bonds>  (305) 
3

>  <r_i_docking_score>  (305) 
-2.45568

>  <r_i_glide_ligand_efficiency>  (305) 
-0.116937

>  <r_i_glide_ligand_efficiency_sa>  (305) 
-0.32262

>  <r_i_glide_ligand_efficiency_ln>  (305) 
-0.607161

>  <r_i_glide_gscore>  (305) 
-2.45568

>  <r_i_glide_lipo>  (305) 
-0.166546

>  <r_i_glide_hbond>  (305) 
-0.00285526

>  <r_i_glide_metal>  (305) 
-0

>  <r_i_glide_rewards>  (305) 
-1.52331

>  <r_i_glide_evdw>  (305) 
-20.867

>  <r_i_glide_ecoul>  (305) 
1.02385

>  <r_i_glide_erotb>  (305) 
0.211122

>  <r_i_glide_esite>  (305) 
-0.0843147

>  <r_i_glide_emodel>  (305) 
-22.2944

>  <r_i_glide_energy>  (305) 
-19.8432

>  <r_i_glide_einternal>  (305) 
0.510779

>  <r_i_glide_intrahb_reward>  (305) 
-0

>  <i_i_glide_confnum>  (305) 
1

>  <i_i_glide_posenum>  (305) 
29

>  <r_i_glide_eff_state_penalty>  (305) 
0

>  <ligand_id>  (305) 
90

>  <original_smiles>  (305) 
CCC1(C(=O)OC)c2c(c(O)n(C)c2O)C2CN=C(N)N21

>  <smiles>  (305) 
[H]N([H])C1=NC([H])([H])C2([H])N1C(C(=O)OC([H])([H])[H])(C([H])([H])C([H])([H])[H])C1([H])C(=O)N(C([H])([H])[H])C(=O)C12[H]

$$$$
90:3:0
     RDKit          3D

 39 41  0  0  1  0  0  0  0  0999 V2000
    2.1321    3.4187    3.8210 C   0  0  0  0  0  0  0  0  0  0  0  0
    1.6314    3.0939    5.2473 C   0  0  0  0  0  0  0  0  0  0  0  0
    0.2257    3.6304    5.6867 C   0  0  1  0  0  0  0  0  0  0  0  0
   -0.8939    3.2769    4.6525 C   0  0  0  0  0  0  0  0  0  0  0  0
   -1.8805    4.0109    4.4801 O   0  0  0  0  0  0  0  0  0  0  0  0
   -0.7078    2.1205    4.0041 O   0  0  0  0  0  0  0  0  0  0  0  0
   -1.5285    1.8474    2.8836 C   0  0  0  0  0  0  0  0  0  0  0  0
   -0.0697    3.1451    7.1715 C   0  0  1  0  0  0  0  0  0  0  0  0
   -0.0726    4.3979    8.0802 C   0  0  2  0  0  0  0  0  0  0  0  0
   -1.5570    4.5411    8.4410 C   0  0  0  0  0  0  0  0  0  0  0  0
   -2.0328    5.5212    9.0289 O   0  0  0  0  0  0  0  0  0  0  0  0
   -2.2363    3.4392    8.1122 N   0  0  0  0  0  0  0  0  0  0  0  0
   -3.6341    3.1902    8.4848 C   0  0  0  0  0  0  0  0  0  0  0  0
   -1.4645    2.5620    7.4538 C   0  0  0  0  0  0  0  0  0  0  0  0
   -1.7964    1.4134    7.1413 O   0  0  0  0  0  0  0  0  0  0  0  0
    0.5835    5.4772    7.2071 C   0  0  2  0  0  0  0  0  0  0  0  0
    0.1953    6.9682    7.2021 C   0  0  0  0  0  0  0  0  0  0  0  0
    0.2440    7.3369    5.7935 N   0  0  0  0  0  0  0  0  0  0  0  0
    0.2375    6.2372    5.0950 C   0  0  0  0  0  0  0  0  0  0  0  0
    0.1531    6.1596    3.7171 N   0  0  0  0  0  0  0  0  0  0  0  0
    0.2566    5.0940    5.8678 N   0  0  0  0  0  0  0  0  0  0  0  0
    3.1472    3.0423    3.6670 H   0  0  0  0  0  0  0  0  0  0  0  0
    2.1777    4.4911    3.6442 H   0  0  0  0  0  0  0  0  0  0  0  0
    1.5075    2.9704    3.0474 H   0  0  0  0  0  0  0  0  0  0  0  0
    1.6470    2.0129    5.3799 H   0  0  0  0  0  0  0  0  0  0  0  0
    2.3708    3.4775    5.9433 H   0  0  0  0  0  0  0  0  0  0  0  0
   -1.2382    0.9118    2.4120 H   0  0  0  0  0  0  0  0  0  0  0  0
   -1.4502    2.6384    2.1332 H   0  0  0  0  0  0  0  0  0  0  0  0
   -2.5692    1.7789    3.1907 H   0  0  0  0  0  0  0  0  0  0  0  0
    0.4954    4.2576    9.0001 H   0  0  0  0  0  0  0  0  0  0  0  0
   -4.1388    2.5502    7.7563 H   0  0  0  0  0  0  0  0  0  0  0  0
   -4.1929    4.1222    8.5423 H   0  0  0  0  0  0  0  0  0  0  0  0
   -3.7106    2.7205    9.4674 H   0  0  0  0  0  0  0  0  0  0  0  0
    0.6822    2.4364    7.4976 H   0  0  0  0  0  0  0  0  0  0  0  0
    1.6701    5.4154    7.3333 H   0  0  0  0  0  0  0  0  0  0  0  0
   -0.8119    7.1536    7.5593 H   0  0  0  0  0  0  0  0  0  0  0  0
    0.8761    7.5733    7.7999 H   0  0  0  0  0  0  0  0  0  0  0  0
    0.2537    7.0065    3.1551 H   0  0  0  0  0  0  0  0  0  0  0  0
    0.0714    5.3187    3.1550 H   0  0  0  0  0  0  0  0  0  0  0  0
  1  2  1  0
  1 22  1  0
  1 23  1  0
  1 24  1  0
  3  2  1  6
  2 25  1  0
  2 26  1  0
  3 21  1  0
  3  4  1  0
  3  8  1  0
  4  5  2  0
  4  6  1  0
  6  7  1  0
  7 27  1  0
  7 28  1  0
  7 29  1  0
  8  9  1  0
  8 34  1  1
  8 14  1  0
  9 10  1  0
  9 16  1  0
  9 30  1  1
 10 11  2  0
 10 12  1  0
 12 14  1  0
 12 13  1  0
 13 31  1  0
 13 32  1  0
 13 33  1  0
 14 15  2  0
 16 21  1  0
 16 17  1  0
 16 35  1  6
 17 18  1  0
 17 36  1  0
 17 37  1  0
 18 19  2  0
 19 20  1  0
 19 21  1  0
 20 38  1  0
 20 39  1  0
M  END
>  <i_m_ct_stereo_status>  (306) 
1

>  <s_m_source_file>  (306) 
/var/tmp/pbs.5076255.sched01/tmpos3i1bch/920fm1no0n.sdf

>  <i_m_source_file_index>  (306) 
37

>  <i_lp_mmshare_version>  (306) 
48012

>  <i_f3d_flags>  (306) 
0

>  <s_epik_input>  (306) 
W0NIM11PQyg9TylbQ0BAXTEoW0NIMl1bQ0gzXSlOKEMoW05IMl0pPU5bQ0gyXTIpW0NAQEhdMmMoYzEzKWMoW09IXSluKFtDSDNdKWMzW09IXQ==

>  <s_epik_cmdline>  (306) 
J2VwaWtfcHl0aG9uJywgJy1waHQnLCAnMi4wJywgJy1waCcsICc3LjAnLCAnLXRuJywgJzgnLCAnLW1hJywgJzIwMCcsICctaW1hZScsICc8aW5maWxlLm1hZT4nLCAnLW9tYWUnLCAnPG91dGZpbGUubWFlPic=

>  <r_lp_tautomer_probability>  (306) 
1

>  <r_epik_Ionization_Penalty>  (306) 
1.18551

>  <r_epik_Ionization_Penalty_Charging>  (306) 
0

>  <r_epik_Ionization_Penalty_Neutral>  (306) 
1.18551

>  <r_epik_State_Penalty>  (306) 
1.2498

>  <r_epik_Charging_Adjusted_Penalty>  (306) 
1.2498

>  <i_epik_Tot_Q>  (306) 
0

>  <i_epik_Tot_abs_Q>  (306) 
0

>  <s_epik_Chemistry_Notes>  (306) 
This compound has an ester and may undergo hydrolysis at high or low pH. This compound has an imine and may undergo hydrolysis.

>  <s_lp_Force_Field>  (306) 
OPLS3e

>  <r_lp_Energy>  (306) 
3.58563

>  <b_lp_Chiralities_Consistent>  (306) 
1

>  <s_lp_Variant>  (306) 
90:0-4

>  <s_i_glide_gridfile>  (306) 
pfpi4k_grid

>  <i_i_glide_lignum>  (306) 
37

>  <i_i_glide_rotatable_bonds>  (306) 
3

>  <r_i_docking_score>  (306) 
-4.01666

>  <r_i_glide_ligand_efficiency>  (306) 
-0.191269

>  <r_i_glide_ligand_efficiency_sa>  (306) 
-0.527698

>  <r_i_glide_ligand_efficiency_ln>  (306) 
-0.993111

>  <r_i_glide_gscore>  (306) 
-4.01666

>  <r_i_glide_lipo>  (306) 
0

>  <r_i_glide_hbond>  (306) 
-0.232477

>  <r_i_glide_metal>  (306) 
-0

>  <r_i_glide_rewards>  (306) 
-1.46691

>  <r_i_glide_evdw>  (306) 
-18.549

>  <r_i_glide_ecoul>  (306) 
-9.70107

>  <r_i_glide_erotb>  (306) 
0.211122

>  <r_i_glide_esite>  (306) 
-0.145787

>  <r_i_glide_emodel>  (306) 
-34.5021

>  <r_i_glide_energy>  (306) 
-28.25

>  <r_i_glide_einternal>  (306) 
3.20904

>  <r_i_glide_intrahb_reward>  (306) 
-0

>  <i_i_glide_confnum>  (306) 
2

>  <i_i_glide_posenum>  (306) 
1

>  <r_i_glide_eff_state_penalty>  (306) 
0

>  <ligand_id>  (306) 
90

>  <original_smiles>  (306) 
CCC1(C(=O)OC)c2c(c(O)n(C)c2O)C2CN=C(N)N21

>  <smiles>  (306) 
[H]N([H])C1=NC([H])([H])C2([H])N1C(C(=O)OC([H])([H])[H])(C([H])([H])C([H])([H])[H])C1([H])C(=O)N(C([H])([H])[H])C(=O)C12[H]

$$$$
90:3:1
     RDKit          3D

 39 41  0  0  1  0  0  0  0  0999 V2000
    8.5901   -3.9327   -0.8064 C   0  0  0  0  0  0  0  0  0  0  0  0
    7.4317   -3.2958   -1.6322 C   0  0  0  0  0  0  0  0  0  0  0  0
    6.0403   -3.0688   -0.9335 C   0  0  1  0  0  0  0  0  0  0  0  0
    5.3339   -4.3755   -0.4583 C   0  0  0  0  0  0  0  0  0  0  0  0
    4.1161   -4.5106   -0.5763 O   0  0  0  0  0  0  0  0  0  0  0  0
    6.1051   -5.2448    0.1937 O   0  0  0  0  0  0  0  0  0  0  0  0
    5.5218   -6.4341    0.6703 C   0  0  0  0  0  0  0  0  0  0  0  0
    6.2193   -2.0172    0.2354 C   0  0  1  0  0  0  0  0  0  0  0  0
    5.4651   -0.7230   -0.1850 C   0  0  2  0  0  0  0  0  0  0  0  0
    4.2841   -0.6919    0.8034 C   0  0  0  0  0  0  0  0  0  0  0  0
    3.3908    0.1690    0.8236 O   0  0  0  0  0  0  0  0  0  0  0  0
    4.4358   -1.6097    1.7514 N   0  0  0  0  0  0  0  0  0  0  0  0
    3.5533   -1.7235    2.9089 C   0  0  0  0  0  0  0  0  0  0  0  0
    5.5252   -2.3660    1.5624 C   0  0  0  0  0  0  0  0  0  0  0  0
    5.9175   -3.2679    2.3112 O   0  0  0  0  0  0  0  0  0  0  0  0
    5.2190   -0.9405   -1.6983 C   0  0  2  0  0  0  0  0  0  0  0  0
    4.0026   -0.4669   -2.5145 C   0  0  0  0  0  0  0  0  0  0  0  0
    3.8412   -1.5263   -3.4974 N   0  0  0  0  0  0  0  0  0  0  0  0
    4.4561   -2.5650   -3.0412 C   0  0  0  0  0  0  0  0  0  0  0  0
    4.4441   -3.8137   -3.6158 N   0  0  0  0  0  0  0  0  0  0  0  0
    5.1395   -2.3519   -1.8554 N   0  0  0  0  0  0  0  0  0  0  0  0
    9.4383   -4.0883   -1.4754 H   0  0  0  0  0  0  0  0  0  0  0  0
    8.3863   -4.9151   -0.3745 H   0  0  0  0  0  0  0  0  0  0  0  0
    8.9114   -3.2882    0.0171 H   0  0  0  0  0  0  0  0  0  0  0  0
    7.8195   -2.3360   -1.9894 H   0  0  0  0  0  0  0  0  0  0  0  0
    7.2790   -3.8292   -2.5628 H   0  0  0  0  0  0  0  0  0  0  0  0
    6.2977   -7.0746    1.0887 H   0  0  0  0  0  0  0  0  0  0  0  0
    5.0190   -6.9779   -0.1333 H   0  0  0  0  0  0  0  0  0  0  0  0
    4.7779   -6.2195    1.4405 H   0  0  0  0  0  0  0  0  0  0  0  0
    6.1061    0.1401    0.0131 H   0  0  0  0  0  0  0  0  0  0  0  0
    3.5458   -2.7296    3.3208 H   0  0  0  0  0  0  0  0  0  0  0  0
    2.5263   -1.4789    2.6440 H   0  0  0  0  0  0  0  0  0  0  0  0
    3.8558   -1.0345    3.6957 H   0  0  0  0  0  0  0  0  0  0  0  0
    7.2712   -1.7880    0.4088 H   0  0  0  0  0  0  0  0  0  0  0  0
    6.0895   -0.6168   -2.2629 H   0  0  0  0  0  0  0  0  0  0  0  0
    3.0855   -0.4468   -1.9362 H   0  0  0  0  0  0  0  0  0  0  0  0
    4.1650    0.5002   -2.9967 H   0  0  0  0  0  0  0  0  0  0  0  0
    3.7527   -3.9725   -4.3287 H   0  0  0  0  0  0  0  0  0  0  0  0
    4.5951   -4.6439   -3.0500 H   0  0  0  0  0  0  0  0  0  0  0  0
  1  2  1  0
  1 22  1  0
  1 23  1  0
  1 24  1  0
  3  2  1  6
  2 25  1  0
  2 26  1  0
  3 21  1  0
  3  4  1  0
  3  8  1  0
  4  5  2  0
  4  6  1  0
  6  7  1  0
  7 27  1  0
  7 28  1  0
  7 29  1  0
  8  9  1  0
  8 34  1  1
  8 14  1  0
  9 10  1  0
  9 16  1  0
  9 30  1  6
 10 11  2  0
 10 12  1  0
 12 14  1  0
 12 13  1  0
 13 31  1  0
 13 32  1  0
 13 33  1  0
 14 15  2  0
 16 21  1  0
 16 17  1  0
 16 35  1  6
 17 18  1  0
 17 36  1  0
 17 37  1  0
 18 19  2  0
 19 20  1  0
 19 21  1  0
 20 38  1  0
 20 39  1  0
M  END
>  <i_m_ct_stereo_status>  (307) 
1

>  <s_m_source_file>  (307) 
/var/tmp/pbs.5076255.sched01/tmpos3i1bch/920fm1no0n.sdf

>  <i_m_source_file_index>  (307) 
37

>  <i_lp_mmshare_version>  (307) 
48012

>  <i_f3d_flags>  (307) 
0

>  <s_epik_input>  (307) 
W0NIM11PQyg9TylbQ0BAXTEoW0NIMl1bQ0gzXSlOKEMoW05IMl0pPU5bQ0gyXTIpW0NAQEhdMmMoYzEzKWMoW09IXSluKFtDSDNdKWMzW09IXQ==

>  <s_epik_cmdline>  (307) 
J2VwaWtfcHl0aG9uJywgJy1waHQnLCAnMi4wJywgJy1waCcsICc3LjAnLCAnLXRuJywgJzgnLCAnLW1hJywgJzIwMCcsICctaW1hZScsICc8aW5maWxlLm1hZT4nLCAnLW9tYWUnLCAnPG91dGZpbGUubWFlPic=

>  <r_lp_tautomer_probability>  (307) 
1

>  <r_epik_Ionization_Penalty>  (307) 
1.18551

>  <r_epik_Ionization_Penalty_Charging>  (307) 
0

>  <r_epik_Ionization_Penalty_Neutral>  (307) 
1.18551

>  <r_epik_State_Penalty>  (307) 
1.2498

>  <r_epik_Charging_Adjusted_Penalty>  (307) 
1.2498

>  <i_epik_Tot_Q>  (307) 
0

>  <i_epik_Tot_abs_Q>  (307) 
0

>  <s_epik_Chemistry_Notes>  (307) 
This compound has an ester and may undergo hydrolysis at high or low pH. This compound has an imine and may undergo hydrolysis.

>  <s_lp_Force_Field>  (307) 
OPLS3e

>  <r_lp_Energy>  (307) 
3.58563

>  <b_lp_Chiralities_Consistent>  (307) 
1

>  <s_lp_Variant>  (307) 
90:0-4

>  <s_i_glide_gridfile>  (307) 
pfpi4k_grid

>  <i_i_glide_lignum>  (307) 
37

>  <i_i_glide_rotatable_bonds>  (307) 
3

>  <r_i_docking_score>  (307) 
-3.27003

>  <r_i_glide_ligand_efficiency>  (307) 
-0.155716

>  <r_i_glide_ligand_efficiency_sa>  (307) 
-0.429607

>  <r_i_glide_ligand_efficiency_ln>  (307) 
-0.808507

>  <r_i_glide_gscore>  (307) 
-3.27003

>  <r_i_glide_lipo>  (307) 
-0.421241

>  <r_i_glide_hbond>  (307) 
-0.0785774

>  <r_i_glide_metal>  (307) 
-0

>  <r_i_glide_rewards>  (307) 
-1.71059

>  <r_i_glide_evdw>  (307) 
-23.0796

>  <r_i_glide_ecoul>  (307) 
-0.742931

>  <r_i_glide_erotb>  (307) 
0.211122

>  <r_i_glide_esite>  (307) 
-0.0053211

>  <r_i_glide_emodel>  (307) 
-27.6377

>  <r_i_glide_energy>  (307) 
-23.8226

>  <r_i_glide_einternal>  (307) 
1.90221

>  <r_i_glide_intrahb_reward>  (307) 
-0

>  <i_i_glide_confnum>  (307) 
2

>  <i_i_glide_posenum>  (307) 
24

>  <r_i_glide_eff_state_penalty>  (307) 
0

>  <ligand_id>  (307) 
90

>  <original_smiles>  (307) 
CCC1(C(=O)OC)c2c(c(O)n(C)c2O)C2CN=C(N)N21

>  <smiles>  (307) 
[H]N([H])C1=NC([H])([H])C2([H])N1C(C(=O)OC([H])([H])[H])(C([H])([H])C([H])([H])[H])C1([H])C(=O)N(C([H])([H])[H])C(=O)C12[H]

$$$$
90:3:2
     RDKit          3D

 39 41  0  0  1  0  0  0  0  0999 V2000
    2.4231   -0.9670    7.2787 C   0  0  0  0  0  0  0  0  0  0  0  0
    2.2474   -0.2744    5.8945 C   0  0  0  0  0  0  0  0  0  0  0  0
    0.8617    0.3463    5.4984 C   0  0  1  0  0  0  0  0  0  0  0  0
   -0.2887   -0.7186    5.3746 C   0  0  0  0  0  0  0  0  0  0  0  0
   -1.1812   -0.6338    4.5333 O   0  0  0  0  0  0  0  0  0  0  0  0
   -0.2384   -1.6970    6.2675 O   0  0  0  0  0  0  0  0  0  0  0  0
   -1.0203   -2.8603    6.0840 C   0  0  0  0  0  0  0  0  0  0  0  0
    0.5482    1.5818    6.4537 C   0  0  1  0  0  0  0  0  0  0  0  0
    0.6168    2.8791    5.5938 C   0  0  2  0  0  0  0  0  0  0  0  0
   -0.8656    3.3007    5.5190 C   0  0  0  0  0  0  0  0  0  0  0  0
   -1.2805    4.2272    4.8173 O   0  0  0  0  0  0  0  0  0  0  0  0
   -1.6010    2.6026    6.3865 N   0  0  0  0  0  0  0  0  0  0  0  0
   -3.0049    2.8806    6.6793 C   0  0  0  0  0  0  0  0  0  0  0  0
   -0.8765    1.6612    6.9994 C   0  0  0  0  0  0  0  0  0  0  0  0
   -1.2808    0.9288    7.9004 O   0  0  0  0  0  0  0  0  0  0  0  0
    1.3400    2.4171    4.3274 C   0  0  2  0  0  0  0  0  0  0  0  0
    1.0400    2.9342    2.9141 C   0  0  0  0  0  0  0  0  0  0  0  0
    1.1701    1.7427    2.0881 N   0  0  0  0  0  0  0  0  0  0  0  0
    1.0990    0.7180    2.8753 C   0  0  0  0  0  0  0  0  0  0  0  0
    1.0927   -0.5792    2.4566 N   0  0  0  0  0  0  0  0  0  0  0  0
    0.9932    1.0384    4.2066 N   0  0  0  0  0  0  0  0  0  0  0  0
    3.4404   -1.3532    7.3883 H   0  0  0  0  0  0  0  0  0  0  0  0
    1.8034   -1.8491    7.4441 H   0  0  0  0  0  0  0  0  0  0  0  0
    2.2369   -0.2783    8.1088 H   0  0  0  0  0  0  0  0  0  0  0  0
    2.9896    0.5249    5.8759 H   0  0  0  0  0  0  0  0  0  0  0  0
    2.5732   -0.9674    5.1200 H   0  0  0  0  0  0  0  0  0  0  0  0
   -0.7911   -3.5789    6.8709 H   0  0  0  0  0  0  0  0  0  0  0  0
   -0.7818   -3.3336    5.1325 H   0  0  0  0  0  0  0  0  0  0  0  0
   -2.0851   -2.6340    6.1094 H   0  0  0  0  0  0  0  0  0  0  0  0
    1.1746    3.6767    6.0845 H   0  0  0  0  0  0  0  0  0  0  0  0
   -3.5187    1.9891    7.0265 H   0  0  0  0  0  0  0  0  0  0  0  0
   -3.5303    3.2343    5.7952 H   0  0  0  0  0  0  0  0  0  0  0  0
   -3.1035    3.6380    7.4542 H   0  0  0  0  0  0  0  0  0  0  0  0
    1.2599    1.6443    7.2772 H   0  0  0  0  0  0  0  0  0  0  0  0
    2.4203    2.4979    4.4877 H   0  0  0  0  0  0  0  0  0  0  0  0
    0.0266    3.3246    2.8335 H   0  0  0  0  0  0  0  0  0  0  0  0
    1.7338    3.7101    2.5897 H   0  0  0  0  0  0  0  0  0  0  0  0
    1.1340   -0.7890    1.4674 H   0  0  0  0  0  0  0  0  0  0  0  0
    0.7689   -1.3538    3.0189 H   0  0  0  0  0  0  0  0  0  0  0  0
  1  2  1  0
  1 22  1  0
  1 23  1  0
  1 24  1  0
  3  2  1  1
  2 25  1  0
  2 26  1  0
  3 21  1  0
  3  4  1  0
  3  8  1  0
  4  5  2  0
  4  6  1  0
  6  7  1  0
  7 27  1  0
  7 28  1  0
  7 29  1  0
  8  9  1  0
  8 34  1  1
  8 14  1  0
  9 10  1  0
  9 16  1  0
  9 30  1  1
 10 11  2  0
 10 12  1  0
 12 14  1  0
 12 13  1  0
 13 31  1  0
 13 32  1  0
 13 33  1  0
 14 15  2  0
 16 21  1  0
 16 17  1  0
 16 35  1  1
 17 18  1  0
 17 36  1  0
 17 37  1  0
 18 19  2  0
 19 20  1  0
 19 21  1  0
 20 38  1  0
 20 39  1  0
M  END
>  <i_m_ct_stereo_status>  (308) 
1

>  <s_m_source_file>  (308) 
/var/tmp/pbs.5076255.sched01/tmpos3i1bch/920fm1no0n.sdf

>  <i_m_source_file_index>  (308) 
37

>  <i_lp_mmshare_version>  (308) 
48012

>  <i_f3d_flags>  (308) 
0

>  <s_epik_input>  (308) 
W0NIM11PQyg9TylbQ0BAXTEoW0NIMl1bQ0gzXSlOKEMoW05IMl0pPU5bQ0gyXTIpW0NAQEhdMmMoYzEzKWMoW09IXSluKFtDSDNdKWMzW09IXQ==

>  <s_epik_cmdline>  (308) 
J2VwaWtfcHl0aG9uJywgJy1waHQnLCAnMi4wJywgJy1waCcsICc3LjAnLCAnLXRuJywgJzgnLCAnLW1hJywgJzIwMCcsICctaW1hZScsICc8aW5maWxlLm1hZT4nLCAnLW9tYWUnLCAnPG91dGZpbGUubWFlPic=

>  <r_lp_tautomer_probability>  (308) 
1

>  <r_epik_Ionization_Penalty>  (308) 
1.18551

>  <r_epik_Ionization_Penalty_Charging>  (308) 
0

>  <r_epik_Ionization_Penalty_Neutral>  (308) 
1.18551

>  <r_epik_State_Penalty>  (308) 
1.2498

>  <r_epik_Charging_Adjusted_Penalty>  (308) 
1.2498

>  <i_epik_Tot_Q>  (308) 
0

>  <i_epik_Tot_abs_Q>  (308) 
0

>  <s_epik_Chemistry_Notes>  (308) 
This compound has an ester and may undergo hydrolysis at high or low pH. This compound has an imine and may undergo hydrolysis.

>  <s_lp_Force_Field>  (308) 
OPLS3e

>  <r_lp_Energy>  (308) 
3.58563

>  <b_lp_Chiralities_Consistent>  (308) 
1

>  <s_lp_Variant>  (308) 
90:0-4

>  <s_i_glide_gridfile>  (308) 
pfpi4k_grid

>  <i_i_glide_lignum>  (308) 
37

>  <i_i_glide_rotatable_bonds>  (308) 
3

>  <r_i_docking_score>  (308) 
-3.22773

>  <r_i_glide_ligand_efficiency>  (308) 
-0.153701

>  <r_i_glide_ligand_efficiency_sa>  (308) 
-0.42405

>  <r_i_glide_ligand_efficiency_ln>  (308) 
-0.798049

>  <r_i_glide_gscore>  (308) 
-3.22773

>  <r_i_glide_lipo>  (308) 
-0.170909

>  <r_i_glide_hbond>  (308) 
-0.163276

>  <r_i_glide_metal>  (308) 
-0

>  <r_i_glide_rewards>  (308) 
-1.46489

>  <r_i_glide_evdw>  (308) 
-18.8631

>  <r_i_glide_ecoul>  (308) 
-3.99897

>  <r_i_glide_erotb>  (308) 
0.211122

>  <r_i_glide_esite>  (308) 
-0.0967665

>  <r_i_glide_emodel>  (308) 
-28.0138

>  <r_i_glide_energy>  (308) 
-22.8621

>  <r_i_glide_einternal>  (308) 
1.74444

>  <r_i_glide_intrahb_reward>  (308) 
-0

>  <i_i_glide_confnum>  (308) 
4

>  <i_i_glide_posenum>  (308) 
27

>  <r_i_glide_eff_state_penalty>  (308) 
0

>  <ligand_id>  (308) 
90

>  <original_smiles>  (308) 
CCC1(C(=O)OC)c2c(c(O)n(C)c2O)C2CN=C(N)N21

>  <smiles>  (308) 
[H]N([H])C1=NC([H])([H])C2([H])N1C(C(=O)OC([H])([H])[H])(C([H])([H])C([H])([H])[H])C1([H])C(=O)N(C([H])([H])[H])C(=O)C12[H]

$$$$
91:0:0
     RDKit          3D

 35 38  0  0  1  0  0  0  0  0999 V2000
    3.6211    0.0406    0.9761 C   0  0  0  0  0  0  0  0  0  0  0  0
    3.4096   -1.1316    1.8983 C   0  0  0  0  0  0  0  0  0  0  0  0
    3.1880   -0.8861    3.2305 C   0  0  0  0  0  0  0  0  0  0  0  0
    2.8229   -2.2857    4.1894 S   0  0  0  0  0  0  0  0  0  0  0  0
    2.9597   -3.3120    2.7732 C   0  0  0  0  0  0  0  0  0  0  0  0
    2.7396   -4.6497    2.8698 N   0  0  0  0  0  0  0  0  0  0  0  0
    2.8879   -5.2704    1.6988 C   0  0  0  0  0  0  0  0  0  0  0  0
    3.2005   -4.7398    0.5153 N   0  0  0  0  0  0  0  0  0  0  0  0
    3.4425   -3.4000    0.4159 C   0  0  0  0  0  0  0  0  0  0  0  0
    3.8286   -2.9124   -0.8475 N   0  0  0  0  0  0  0  0  0  0  0  0
    4.7668   -1.8585   -1.1015 C   0  0  1  0  0  0  0  0  0  0  0  0
    6.1172   -2.3893   -1.4305 C   0  0  0  0  0  0  0  0  0  0  0  0
    6.0801   -3.3120   -2.6597 C   0  0  0  0  0  0  0  0  0  0  0  0
    4.8320   -4.2292   -2.6308 C   0  0  0  0  0  0  0  0  0  0  0  0
    3.5543   -3.4801   -2.1412 C   0  0  2  0  0  0  0  0  0  0  0  0
    3.2700   -2.2173   -2.9866 C   0  0  0  0  0  0  0  0  0  0  0  0
    4.0960   -1.1062   -2.2646 C   0  0  0  0  0  0  0  0  0  0  0  0
    3.3127   -2.5794    1.5931 C   0  0  0  0  0  0  0  0  0  0  0  0
    3.2559    1.0011    1.3410 H   0  0  0  0  0  0  0  0  0  0  0  0
    3.0714   -0.2551    0.0947 H   0  0  0  0  0  0  0  0  0  0  0  0
    4.6900    0.2032    0.7714 H   0  0  0  0  0  0  0  0  0  0  0  0
    3.2105    0.1024    3.6826 H   0  0  0  0  0  0  0  0  0  0  0  0
    2.7253   -6.3453    1.7040 H   0  0  0  0  0  0  0  0  0  0  0  0
    5.0113   -1.3388   -0.1813 H   0  0  0  0  0  0  0  0  0  0  0  0
    6.7912   -1.5476   -1.6042 H   0  0  0  0  0  0  0  0  0  0  0  0
    6.5302   -2.9125   -0.5585 H   0  0  0  0  0  0  0  0  0  0  0  0
    6.0396   -2.6609   -3.5196 H   0  0  0  0  0  0  0  0  0  0  0  0
    7.0301   -3.8521   -2.7236 H   0  0  0  0  0  0  0  0  0  0  0  0
    4.6687   -4.6348   -3.6205 H   0  0  0  0  0  0  0  0  0  0  0  0
    5.0119   -5.0585   -1.9465 H   0  0  0  0  0  0  0  0  0  0  0  0
    2.6663   -4.1418   -2.1012 H   0  0  0  0  0  0  0  0  0  0  0  0
    3.5596   -2.3161   -4.0383 H   0  0  0  0  0  0  0  0  0  0  0  0
    2.1989   -1.9716   -2.9278 H   0  0  0  0  0  0  0  0  0  0  0  0
    3.3750   -0.3533   -1.9652 H   0  0  0  0  0  0  0  0  0  0  0  0
    4.8021   -0.5782   -2.9254 H   0  0  0  0  0  0  0  0  0  0  0  0
  1  2  1  0
  1 19  1  0
  1 20  1  0
  1 21  1  0
  2 18  1  0
  2  3  2  0
  3  4  1  0
  3 22  1  0
  4  5  1  0
  5 18  2  0
  5  6  1  0
  6  7  2  0
  7  8  1  0
  7 23  1  0
  8  9  2  0
  9 10  1  0
  9 18  1  0
 10 15  1  0
 10 11  1  0
 11 17  1  0
 11 12  1  0
 11 24  1  1
 12 13  1  0
 12 25  1  0
 12 26  1  0
 13 14  1  0
 13 27  1  0
 13 28  1  0
 14 15  1  0
 14 29  1  0
 14 30  1  0
 15 16  1  0
 15 31  1  1
 16 17  1  0
 16 32  1  0
 16 33  1  0
 17 34  1  0
 17 35  1  0
M  END
>  <i_m_ct_stereo_status>  (309) 
1

>  <s_m_source_file>  (309) 
/var/tmp/pbs.5076255.sched01/tmpos3i1bch/920fm1no0n.sdf

>  <i_m_source_file_index>  (309) 
38

>  <i_lp_mmshare_version>  (309) 
48012

>  <i_f3d_flags>  (309) 
0

>  <s_epik_input>  (309) 
czFbY0hdYyhbQ0gzXSljKGMxMiljKG5bY0hdbjIpTihbQ0BASF0zNClbQ0BASF0oW0NIMl1bQ0gyXTQpW0NIMl1bQ0gyXVtDSDJdMw==

>  <s_epik_cmdline>  (309) 
J2VwaWtfcHl0aG9uJywgJy1waHQnLCAnMi4wJywgJy1waCcsICc3LjAnLCAnLXRuJywgJzgnLCAnLW1hJywgJzIwMCcsICctaW1hZScsICc8aW5maWxlLm1hZT4nLCAnLW9tYWUnLCAnPG91dGZpbGUubWFlPic=

>  <r_lp_tautomer_probability>  (309) 
1

>  <r_epik_Ionization_Penalty>  (309) 
3.95694e-05

>  <r_epik_Ionization_Penalty_Charging>  (309) 
0

>  <r_epik_Ionization_Penalty_Neutral>  (309) 
3.95694e-05

>  <r_epik_State_Penalty>  (309) 
-0

>  <r_epik_Charging_Adjusted_Penalty>  (309) 
0

>  <i_epik_Tot_Q>  (309) 
0

>  <i_epik_Tot_abs_Q>  (309) 
0

>  <s_lp_Force_Field>  (309) 
OPLS3e

>  <r_lp_Energy>  (309) 
46.8718

>  <b_lp_Chiralities_Consistent>  (309) 
1

>  <s_lp_Variant>  (309) 
91:0-1

>  <s_i_glide_gridfile>  (309) 
pfpi4k_grid

>  <i_i_glide_lignum>  (309) 
38

>  <i_i_glide_rotatable_bonds>  (309) 
1

>  <r_i_docking_score>  (309) 
-2.49958

>  <r_i_glide_ligand_efficiency>  (309) 
-0.138865

>  <r_i_glide_ligand_efficiency_sa>  (309) 
-0.36393

>  <r_i_glide_ligand_efficiency_ln>  (309) 
-0.642504

>  <r_i_glide_gscore>  (309) 
-2.49958

>  <r_i_glide_lipo>  (309) 
-0.335196

>  <r_i_glide_hbond>  (309) 
0

>  <r_i_glide_metal>  (309) 
-0

>  <r_i_glide_rewards>  (309) 
-1.64065

>  <r_i_glide_evdw>  (309) 
-17.8352

>  <r_i_glide_ecoul>  (309) 
0.813788

>  <r_i_glide_erotb>  (309) 
0.262846

>  <r_i_glide_esite>  (309) 
-0.016884

>  <r_i_glide_emodel>  (309) 
-17.177

>  <r_i_glide_energy>  (309) 
-17.0214

>  <r_i_glide_einternal>  (309) 
0.730121

>  <r_i_glide_intrahb_reward>  (309) 
-0

>  <i_i_glide_confnum>  (309) 
6

>  <i_i_glide_posenum>  (309) 
10

>  <r_i_glide_eff_state_penalty>  (309) 
0

>  <ligand_id>  (309) 
91

>  <original_smiles>  (309) 
Cc1csc2ncnc(N3C4CCCC3CC4)c12

>  <smiles>  (309) 
[H]c1nc(N2C3([H])C([H])([H])C([H])([H])C([H])([H])C2([H])C([H])([H])C3([H])[H])c2c(C([H])([H])[H])c([H])sc2n1

$$$$
92:3:0
     RDKit          3D

 59 65  0  0  1  0  0  0  0  0999 V2000
    2.4331   -5.8821    6.1922 C   0  0  0  0  0  0  0  0  0  0  0  0
    2.8079   -6.0828    4.8357 O   0  0  0  0  0  0  0  0  0  0  0  0
    3.6749   -5.1046    4.2773 C   0  0  2  0  0  0  0  0  0  0  0  0
    2.8635   -3.8477    4.0861 C   0  0  0  0  0  0  0  0  0  0  0  0
    3.3778   -2.6327    4.2795 C   0  0  0  0  0  0  0  0  0  0  0  0
    3.4027   -1.8321    3.0156 C   0  0  2  0  0  0  0  0  0  0  0  0
    4.7432   -2.2002    2.4008 C   0  0  2  0  0  0  0  0  0  0  0  0
    4.8665   -0.8463    1.9025 O   0  0  0  0  0  0  0  0  0  0  0  0
    3.9110   -0.3981    2.9209 C   0  0  0  0  0  0  0  0  0  0  0  0
    2.9463    0.6047    2.2843 C   0  0  0  0  0  0  0  0  0  0  0  0
    4.6389    0.2461    4.1109 C   0  0  0  0  0  0  0  0  0  0  0  0
    4.8439   -3.3558    1.3916 C   0  0  1  0  0  0  0  0  0  0  0  0
    6.2892   -3.7320    1.2279 N   0  0  2  0  0  0  0  0  0  0  0  0
    6.8120   -3.4635   -0.1249 C   0  0  0  0  0  0  0  0  0  0  0  0
    6.6582   -5.0994    1.7154 C   0  0  0  0  0  0  0  0  0  0  0  0
    5.9459   -5.4665    3.0368 C   0  0  0  0  0  0  0  0  0  0  0  0
    4.4002   -5.5394    2.9009 C   0  0  1  0  0  0  0  0  0  0  0  0
    3.9023   -6.9535    2.3764 C   0  0  1  0  0  0  0  0  0  0  0  0
    3.5714   -8.2341    3.2349 C   0  0  0  0  0  0  0  0  0  0  0  0
    2.2449   -8.7447    2.5931 C   0  0  1  0  0  0  0  0  0  0  0  0
    1.0221   -9.1888    3.3612 C   0  0  0  0  0  0  0  0  0  0  0  0
   -0.1067   -8.5792    2.9407 C   0  0  0  0  0  0  0  0  0  0  0  0
    0.2463   -7.4914    2.0140 C   0  0  0  0  0  0  0  0  0  0  0  0
   -0.5090   -6.6577    1.5168 O   0  0  0  0  0  0  0  0  0  0  0  0
    1.7018   -7.5528    1.8950 C   0  0  0  0  0  0  0  0  0  0  0  0
    2.6118   -6.6171    1.6688 C   0  0  0  0  0  0  0  0  0  0  0  0
    2.7512   -5.2751    1.0883 C   0  0  2  0  0  0  0  0  0  0  0  0
    3.9536   -5.2362    0.3568 O   0  0  0  0  0  0  0  0  0  0  0  0
    3.9947   -4.6359    1.6741 C   0  0  1  0  0  0  0  0  0  0  0  0
    1.8211   -6.7200    6.5223 H   0  0  0  0  0  0  0  0  0  0  0  0
    1.8415   -4.9772    6.3296 H   0  0  0  0  0  0  0  0  0  0  0  0
    3.2997   -5.8370    6.8519 H   0  0  0  0  0  0  0  0  0  0  0  0
    4.4422   -4.9042    5.0303 H   0  0  0  0  0  0  0  0  0  0  0  0
    2.0946   -3.9605    3.3368 H   0  0  0  0  0  0  0  0  0  0  0  0
    4.2493   -2.5279    4.9142 H   0  0  0  0  0  0  0  0  0  0  0  0
    2.5748   -2.0185    2.3254 H   0  0  0  0  0  0  0  0  0  0  0  0
    5.5027   -2.3290    3.1784 H   0  0  0  0  0  0  0  0  0  0  0  0
    2.1510    0.8773    2.9763 H   0  0  0  0  0  0  0  0  0  0  0  0
    2.4769    0.1957    1.3884 H   0  0  0  0  0  0  0  0  0  0  0  0
    3.4246    1.5335    1.9877 H   0  0  0  0  0  0  0  0  0  0  0  0
    3.9356    0.5078    4.9004 H   0  0  0  0  0  0  0  0  0  0  0  0
    5.1319    1.1700    3.8215 H   0  0  0  0  0  0  0  0  0  0  0  0
    5.4000   -0.3992    4.5468 H   0  0  0  0  0  0  0  0  0  0  0  0
    4.4731   -2.9695    0.4405 H   0  0  0  0  0  0  0  0  0  0  0  0
    6.3231   -4.0900   -0.8690 H   0  0  0  0  0  0  0  0  0  0  0  0
    7.8839   -3.6514   -0.1681 H   0  0  0  0  0  0  0  0  0  0  0  0
    6.6474   -2.4221   -0.3950 H   0  0  0  0  0  0  0  0  0  0  0  0
    6.4463   -5.8524    0.9556 H   0  0  0  0  0  0  0  0  0  0  0  0
    7.7366   -5.1303    1.8690 H   0  0  0  0  0  0  0  0  0  0  0  0
    6.3229   -6.4216    3.4041 H   0  0  0  0  0  0  0  0  0  0  0  0
    6.2157   -4.7179    3.7891 H   0  0  0  0  0  0  0  0  0  0  0  0
    4.5735   -7.2762    1.5810 H   0  0  0  0  0  0  0  0  0  0  0  0
    4.3489   -8.9769    3.0718 H   0  0  0  0  0  0  0  0  0  0  0  0
    3.5553   -8.1187    4.3171 H   0  0  0  0  0  0  0  0  0  0  0  0
    1.0299  -10.0530    4.0027 H   0  0  0  0  0  0  0  0  0  0  0  0
   -1.1153   -8.8612    3.2161 H   0  0  0  0  0  0  0  0  0  0  0  0
    2.4604   -9.4850    1.8208 H   0  0  0  0  0  0  0  0  0  0  0  0
    1.9044   -4.7224    0.6854 H   0  0  0  0  0  0  0  0  0  0  0  0
    6.7836   -3.0961    1.8410 H   0  0  0  0  0  0  0  0  0  0  0  0
  1  2  1  0
  1 30  1  0
  1 31  1  0
  1 32  1  0
  2  3  1  0
  3 17  1  0
  3  4  1  0
  3 33  1  1
  4  5  2  3
  4 34  1  0
  5  6  1  0
  5 35  1  0
  6  9  1  0
  6  7  1  0
  6 36  1  6
  7  8  1  0
  7 12  1  0
  7 37  1  1
  8  9  1  0
  9 10  1  0
  9 11  1  0
 10 38  1  0
 10 39  1  0
 10 40  1  0
 11 41  1  0
 11 42  1  0
 11 43  1  0
 12 29  1  0
 12 13  1  0
 12 44  1  6
 13 14  1  0
 13 15  1  0
 13 59  1  1
 14 45  1  0
 14 46  1  0
 14 47  1  0
 15 16  1  0
 15 48  1  0
 15 49  1  0
 17 16  1  1
 16 50  1  0
 16 51  1  0
 17 29  1  0
 17 18  1  0
 18 19  1  0
 18 52  1  6
 18 26  1  0
 19 53  1  0
 19 54  1  0
 19 20  1  0
 20 57  1  6
 20 25  1  0
 20 21  1  0
 21 22  2  0
 21 55  1  0
 22 23  1  0
 22 56  1  0
 23 25  1  0
 23 24  2  0
 25 26  2  0
 26 27  1  0
 27 29  1  0
 27 28  1  0
 27 58  1  6
 29 28  1  6
M  CHG  1  13   1
M  END
>  <i_m_ct_stereo_status>  (310) 
1

>  <s_m_source_file>  (310) 
/var/tmp/pbs.5076255.sched01/tmpos3i1bch/920fm1no0n.sdf

>  <i_m_source_file_index>  (310) 
42

>  <i_lp_mmshare_version>  (310) 
48012

>  <i_f3d_flags>  (310) 
0

>  <s_epik_input>  (310) 
W0NIM11PW0NAQEhdMS9bQ0hdPVtDSF1cW0NAQEhdKEMoTzIpKFtDSDNdKVtDSDNdKVtDQEhdMltDQEBIXShOKFtDSDNdKVtDSDJdW0NIMl0zKVtDQEBdNChbQ0BdMTM1KVtDQEBIXShPNClDNj1DN0MoW0NIMl1bQ0BIXTU2KT1bQ0hdW0NIXT1DN1tPSF0=

>  <s_epik_cmdline>  (310) 
J2VwaWtfcHl0aG9uJywgJy1waHQnLCAnMi4wJywgJy1waCcsICc3LjAnLCAnLXRuJywgJzgnLCAnLW1hJywgJzIwMCcsICctaW1hZScsICc8aW5maWxlLm1hZT4nLCAnLW9tYWUnLCAnPG91dGZpbGUubWFlPic=

>  <r_lp_tautomer_probability>  (310) 
0.9515

>  <r_epik_Ionization_Penalty>  (310) 
0.439999

>  <r_epik_Ionization_Penalty_Charging>  (310) 
0.439999

>  <r_epik_Ionization_Penalty_Neutral>  (310) 
1.03536e-13

>  <r_epik_State_Penalty>  (310) 
0.488167

>  <r_epik_Charging_Adjusted_Penalty>  (310) 
0.928166

>  <i_epik_Tot_Q>  (310) 
1

>  <i_epik_Tot_abs_Q>  (310) 
1

>  <s_lp_Force_Field>  (310) 
OPLS3e

>  <r_lp_Energy>  (310) 
98.2072

>  <b_lp_Chiralities_Consistent>  (310) 
1

>  <s_lp_Variant>  (310) 
92:0-4

>  <s_i_glide_gridfile>  (310) 
pfpi4k_grid

>  <i_i_glide_lignum>  (310) 
42

>  <i_i_glide_rotatable_bonds>  (310) 
1

>  <r_i_docking_score>  (310) 
-3.15907

>  <r_i_glide_ligand_efficiency>  (310) 
-0.108934

>  <r_i_glide_ligand_efficiency_sa>  (310) 
-0.334678

>  <r_i_glide_ligand_efficiency_ln>  (310) 
-0.723348

>  <r_i_glide_gscore>  (310) 
-3.15907

>  <r_i_glide_lipo>  (310) 
-0.448241

>  <r_i_glide_hbond>  (310) 
-0.245457

>  <r_i_glide_metal>  (310) 
-0

>  <r_i_glide_rewards>  (310) 
-0.705687

>  <r_i_glide_evdw>  (310) 
-21.1062

>  <r_i_glide_ecoul>  (310) 
-4.25028

>  <r_i_glide_erotb>  (310) 
0

>  <r_i_glide_esite>  (310) 
-0.0668393

>  <r_i_glide_emodel>  (310) 
-31.4263

>  <r_i_glide_energy>  (310) 
-25.3564

>  <r_i_glide_einternal>  (310) 
0.00217791

>  <r_i_glide_intrahb_reward>  (310) 
-0

>  <i_i_glide_confnum>  (310) 
1

>  <i_i_glide_posenum>  (310) 
1

>  <r_i_glide_eff_state_penalty>  (310) 
0

>  <ligand_id>  (310) 
92

>  <original_smiles>  (310) 
COC1C=CC2C(OC2(C)C)C2N(C)CCC13C1CC4=CC=C(O)C4=C1C1OC123

>  <smiles>  (310) 
[H]C1=C([H])C2([H])C(=C3C4([H])OC45C4(C([H])(OC([H])([H])[H])C([H])=C([H])C6([H])C([H])(OC6(C([H])([H])[H])C([H])([H])[H])C5([H])[N+]([H])(C([H])([H])[H])C([H])([H])C4([H])[H])C3([H])C2([H])[H])C1=O

$$$$
92:3:1
     RDKit          3D

 59 65  0  0  1  0  0  0  0  0999 V2000
    2.4936   -7.7084    6.4415 C   0  0  0  0  0  0  0  0  0  0  0  0
    2.7024   -7.5792    5.0402 O   0  0  0  0  0  0  0  0  0  0  0  0
    3.6609   -6.6116    4.6365 C   0  0  2  0  0  0  0  0  0  0  0  0
    3.0461   -5.2556    4.8703 C   0  0  0  0  0  0  0  0  0  0  0  0
    3.7617   -4.2112    5.2967 C   0  0  0  0  0  0  0  0  0  0  0  0
    3.7977   -3.1120    4.2808 C   0  0  2  0  0  0  0  0  0  0  0  0
    5.0005   -3.4787    3.4246 C   0  0  2  0  0  0  0  0  0  0  0  0
    5.2959   -2.0701    3.2683 O   0  0  0  0  0  0  0  0  0  0  0  0
    4.5234   -1.7832    4.4805 C   0  0  0  0  0  0  0  0  0  0  0  0
    3.6899   -0.5256    4.2421 C   0  0  0  0  0  0  0  0  0  0  0  0
    5.4501   -1.5746    5.6892 C   0  0  0  0  0  0  0  0  0  0  0  0
    4.8319   -4.3277    2.1523 C   0  0  1  0  0  0  0  0  0  0  0  0
    6.1793   -4.8347    1.7251 N   0  0  2  0  0  0  0  0  0  0  0  0
    6.6157   -4.2864    0.4232 C   0  0  0  0  0  0  0  0  0  0  0  0
    6.3670   -6.3177    1.7974 C   0  0  0  0  0  0  0  0  0  0  0  0
    5.7273   -6.9260    3.0680 C   0  0  0  0  0  0  0  0  0  0  0  0
    4.1848   -6.7573    3.1147 C   0  0  1  0  0  0  0  0  0  0  0  0
    3.4227   -7.9000    2.3223 C   0  0  1  0  0  0  0  0  0  0  0  0
    2.9712   -9.3087    2.8719 C   0  0  0  0  0  0  0  0  0  0  0  0
    1.5288   -9.4460    2.3047 C   0  0  1  0  0  0  0  0  0  0  0  0
    0.3194   -9.9170    3.0784 C   0  0  0  0  0  0  0  0  0  0  0  0
   -0.7365   -9.0776    2.9635 C   0  0  0  0  0  0  0  0  0  0  0  0
   -0.2944   -7.8467    2.2921 C   0  0  0  0  0  0  0  0  0  0  0  0
   -0.9635   -6.8355    2.0738 O   0  0  0  0  0  0  0  0  0  0  0  0
    1.1214   -8.0488    2.0116 C   0  0  0  0  0  0  0  0  0  0  0  0
    2.1454   -7.2197    1.9007 C   0  0  0  0  0  0  0  0  0  0  0  0
    2.4449   -5.8017    1.6511 C   0  0  2  0  0  0  0  0  0  0  0  0
    3.5635   -5.7319    0.8026 O   0  0  0  0  0  0  0  0  0  0  0  0
    3.8218   -5.5168    2.2120 C   0  0  1  0  0  0  0  0  0  0  0  0
    1.7854   -8.5149    6.6284 H   0  0  0  0  0  0  0  0  0  0  0  0
    2.0761   -6.8043    6.8839 H   0  0  0  0  0  0  0  0  0  0  0  0
    3.4148   -7.9615    6.9688 H   0  0  0  0  0  0  0  0  0  0  0  0
    4.5139   -6.7202    5.3104 H   0  0  0  0  0  0  0  0  0  0  0  0
    2.2036   -5.0630    4.2227 H   0  0  0  0  0  0  0  0  0  0  0  0
    4.6904   -4.3944    5.8235 H   0  0  0  0  0  0  0  0  0  0  0  0
    2.8945   -2.9982    3.6780 H   0  0  0  0  0  0  0  0  0  0  0  0
    5.7878   -3.9141    4.0456 H   0  0  0  0  0  0  0  0  0  0  0  0
    3.0098   -0.3459    5.0758 H   0  0  0  0  0  0  0  0  0  0  0  0
    3.0780   -0.6214    3.3440 H   0  0  0  0  0  0  0  0  0  0  0  0
    4.3054    0.3667    4.1221 H   0  0  0  0  0  0  0  0  0  0  0  0
    4.8718   -1.4422    6.6031 H   0  0  0  0  0  0  0  0  0  0  0  0
    6.0619   -0.6779    5.5762 H   0  0  0  0  0  0  0  0  0  0  0  0
    6.1305   -2.4097    5.8547 H   0  0  0  0  0  0  0  0  0  0  0  0
    4.4452   -3.6599    1.3827 H   0  0  0  0  0  0  0  0  0  0  0  0
    5.9734   -4.6258   -0.3884 H   0  0  0  0  0  0  0  0  0  0  0  0
    7.6371   -4.5967    0.1993 H   0  0  0  0  0  0  0  0  0  0  0  0
    6.5980   -3.1981    0.4441 H   0  0  0  0  0  0  0  0  0  0  0  0
    5.9714   -6.8074    0.9078 H   0  0  0  0  0  0  0  0  0  0  0  0
    7.4367   -6.5301    1.8017 H   0  0  0  0  0  0  0  0  0  0  0  0
    5.9778   -7.9860    3.1391 H   0  0  0  0  0  0  0  0  0  0  0  0
    6.1885   -6.4451    3.9372 H   0  0  0  0  0  0  0  0  0  0  0  0
    3.9573   -8.0868    1.3916 H   0  0  0  0  0  0  0  0  0  0  0  0
    3.5946  -10.0807    2.4240 H   0  0  0  0  0  0  0  0  0  0  0  0
    3.0715   -9.4843    3.9403 H   0  0  0  0  0  0  0  0  0  0  0  0
    0.2437  -10.9122    3.4829 H   0  0  0  0  0  0  0  0  0  0  0  0
   -1.7463   -9.2875    3.2853 H   0  0  0  0  0  0  0  0  0  0  0  0
    1.5597   -9.9634    1.3471 H   0  0  0  0  0  0  0  0  0  0  0  0
    1.6675   -5.0542    1.5199 H   0  0  0  0  0  0  0  0  0  0  0  0
    6.8196   -4.4586    2.4040 H   0  0  0  0  0  0  0  0  0  0  0  0
  1  2  1  0
  1 30  1  0
  1 31  1  0
  1 32  1  0
  2  3  1  0
  3 17  1  0
  3  4  1  0
  3 33  1  1
  4  5  2  3
  4 34  1  0
  5  6  1  0
  5 35  1  0
  6  9  1  0
  6  7  1  0
  6 36  1  6
  7  8  1  0
  7 12  1  0
  7 37  1  1
  8  9  1  0
  9 10  1  0
  9 11  1  0
 10 38  1  0
 10 39  1  0
 10 40  1  0
 11 41  1  0
 11 42  1  0
 11 43  1  0
 12 29  1  0
 12 13  1  0
 12 44  1  6
 13 14  1  0
 13 15  1  0
 13 59  1  1
 14 45  1  0
 14 46  1  0
 14 47  1  0
 15 16  1  0
 15 48  1  0
 15 49  1  0
 17 16  1  1
 16 50  1  0
 16 51  1  0
 17 29  1  0
 17 18  1  0
 18 19  1  0
 18 52  1  6
 18 26  1  0
 19 53  1  0
 19 54  1  0
 19 20  1  0
 20 57  1  6
 20 25  1  0
 20 21  1  0
 21 22  2  0
 21 55  1  0
 22 23  1  0
 22 56  1  0
 23 25  1  0
 23 24  2  0
 25 26  2  0
 26 27  1  0
 27 29  1  0
 27 28  1  0
 27 58  1  6
 29 28  1  6
M  CHG  1  13   1
M  END
>  <i_m_ct_stereo_status>  (311) 
1

>  <s_m_source_file>  (311) 
/var/tmp/pbs.5076255.sched01/tmpos3i1bch/920fm1no0n.sdf

>  <i_m_source_file_index>  (311) 
42

>  <i_lp_mmshare_version>  (311) 
48012

>  <i_f3d_flags>  (311) 
0

>  <s_epik_input>  (311) 
W0NIM11PW0NAQEhdMS9bQ0hdPVtDSF1cW0NAQEhdKEMoTzIpKFtDSDNdKVtDSDNdKVtDQEhdMltDQEBIXShOKFtDSDNdKVtDSDJdW0NIMl0zKVtDQEBdNChbQ0BdMTM1KVtDQEBIXShPNClDNj1DN0MoW0NIMl1bQ0BIXTU2KT1bQ0hdW0NIXT1DN1tPSF0=

>  <s_epik_cmdline>  (311) 
J2VwaWtfcHl0aG9uJywgJy1waHQnLCAnMi4wJywgJy1waCcsICc3LjAnLCAnLXRuJywgJzgnLCAnLW1hJywgJzIwMCcsICctaW1hZScsICc8aW5maWxlLm1hZT4nLCAnLW9tYWUnLCAnPG91dGZpbGUubWFlPic=

>  <r_lp_tautomer_probability>  (311) 
0.9515

>  <r_epik_Ionization_Penalty>  (311) 
0.439999

>  <r_epik_Ionization_Penalty_Charging>  (311) 
0.439999

>  <r_epik_Ionization_Penalty_Neutral>  (311) 
1.03536e-13

>  <r_epik_State_Penalty>  (311) 
0.488167

>  <r_epik_Charging_Adjusted_Penalty>  (311) 
0.928166

>  <i_epik_Tot_Q>  (311) 
1

>  <i_epik_Tot_abs_Q>  (311) 
1

>  <s_lp_Force_Field>  (311) 
OPLS3e

>  <r_lp_Energy>  (311) 
98.2072

>  <b_lp_Chiralities_Consistent>  (311) 
1

>  <s_lp_Variant>  (311) 
92:0-4

>  <s_i_glide_gridfile>  (311) 
pfpi4k_grid

>  <i_i_glide_lignum>  (311) 
42

>  <i_i_glide_rotatable_bonds>  (311) 
1

>  <r_i_docking_score>  (311) 
-3.01675

>  <r_i_glide_ligand_efficiency>  (311) 
-0.104026

>  <r_i_glide_ligand_efficiency_sa>  (311) 
-0.3196

>  <r_i_glide_ligand_efficiency_ln>  (311) 
-0.690758

>  <r_i_glide_gscore>  (311) 
-3.01675

>  <r_i_glide_lipo>  (311) 
-0.379444

>  <r_i_glide_hbond>  (311) 
-0.16

>  <r_i_glide_metal>  (311) 
-0

>  <r_i_glide_rewards>  (311) 
-0.705687

>  <r_i_glide_evdw>  (311) 
-19.2072

>  <r_i_glide_ecoul>  (311) 
-4.98411

>  <r_i_glide_erotb>  (311) 
0

>  <r_i_glide_esite>  (311) 
-0.0636394

>  <r_i_glide_emodel>  (311) 
-29.9238

>  <r_i_glide_energy>  (311) 
-24.1913

>  <r_i_glide_einternal>  (311) 
0.00492723

>  <r_i_glide_intrahb_reward>  (311) 
-0

>  <i_i_glide_confnum>  (311) 
2

>  <i_i_glide_posenum>  (311) 
7

>  <r_i_glide_eff_state_penalty>  (311) 
0

>  <ligand_id>  (311) 
92

>  <original_smiles>  (311) 
COC1C=CC2C(OC2(C)C)C2N(C)CCC13C1CC4=CC=C(O)C4=C1C1OC123

>  <smiles>  (311) 
[H]C1=C([H])C2([H])C(=C3C4([H])OC45C4(C([H])(OC([H])([H])[H])C([H])=C([H])C6([H])C([H])(OC6(C([H])([H])[H])C([H])([H])[H])C5([H])[N+]([H])(C([H])([H])[H])C([H])([H])C4([H])[H])C3([H])C2([H])[H])C1=O

$$$$
92:3:2
     RDKit          3D

 59 65  0  0  1  0  0  0  0  0999 V2000
    0.3767   -9.9864    6.6436 C   0  0  0  0  0  0  0  0  0  0  0  0
    1.1453   -9.1821    5.7442 O   0  0  0  0  0  0  0  0  0  0  0  0
    2.5320   -9.4556    5.6908 C   0  0  2  0  0  0  0  0  0  0  0  0
    3.2443   -8.1272    5.8305 C   0  0  0  0  0  0  0  0  0  0  0  0
    4.3820   -7.9974    6.5279 C   0  0  0  0  0  0  0  0  0  0  0  0
    5.5507   -7.5887    5.6636 C   0  0  2  0  0  0  0  0  0  0  0  0
    6.0997   -8.9289    5.1975 C   0  0  2  0  0  0  0  0  0  0  0  0
    7.4454   -8.3772    5.2296 O   0  0  0  0  0  0  0  0  0  0  0  0
    6.9783   -7.3522    6.1691 C   0  0  0  0  0  0  0  0  0  0  0  0
    7.6097   -6.0147    5.7811 C   0  0  0  0  0  0  0  0  0  0  0  0
    7.3543   -7.7098    7.6158 C   0  0  0  0  0  0  0  0  0  0  0  0
    5.6028   -9.5472    3.8722 C   0  0  1  0  0  0  0  0  0  0  0  0
    6.0064  -10.9960    3.8382 N   0  0  2  0  0  0  0  0  0  0  0  0
    7.0020  -11.3047    2.7771 C   0  0  0  0  0  0  0  0  0  0  0  0
    4.8848  -11.9917    3.8511 C   0  0  0  0  0  0  0  0  0  0  0  0
    3.7471  -11.5654    4.8162 C   0  0  0  0  0  0  0  0  0  0  0  0
    3.0363  -10.2579    4.3843 C   0  0  1  0  0  0  0  0  0  0  0  0
    1.9277  -10.4717    3.2775 C   0  0  1  0  0  0  0  0  0  0  0  0
    0.4001  -10.8409    3.5056 C   0  0  0  0  0  0  0  0  0  0  0  0
   -0.3319   -9.8711    2.5415 C   0  0  1  0  0  0  0  0  0  0  0  0
   -1.5291   -9.0244    2.8907 C   0  0  0  0  0  0  0  0  0  0  0  0
   -1.3812   -7.7246    2.5942 C   0  0  0  0  0  0  0  0  0  0  0  0
   -0.0110   -7.4713    2.1410 C   0  0  0  0  0  0  0  0  0  0  0  0
    0.4491   -6.3832    1.7843 O   0  0  0  0  0  0  0  0  0  0  0  0
    0.6563   -8.7812    2.2928 C   0  0  0  0  0  0  0  0  0  0  0  0
    1.9071   -9.1379    2.5644 C   0  0  0  0  0  0  0  0  0  0  0  0
    3.2773   -8.5918    2.5621 C   0  0  2  0  0  0  0  0  0  0  0  0
    4.1418   -9.6126    2.0925 O   0  0  0  0  0  0  0  0  0  0  0  0
    4.0865   -9.4338    3.5325 C   0  0  1  0  0  0  0  0  0  0  0  0
   -0.6742   -9.7257    6.5041 H   0  0  0  0  0  0  0  0  0  0  0  0
    0.6098   -9.8401    7.6987 H   0  0  0  0  0  0  0  0  0  0  0  0
    0.4531  -11.0441    6.3404 H   0  0  0  0  0  0  0  0  0  0  0  0
    2.7853  -10.0055    6.5947 H   0  0  0  0  0  0  0  0  0  0  0  0
    3.1176   -7.4812    4.9756 H   0  0  0  0  0  0  0  0  0  0  0  0
    4.6208   -8.7176    7.3017 H   0  0  0  0  0  0  0  0  0  0  0  0
    5.3070   -6.9393    4.8161 H   0  0  0  0  0  0  0  0  0  0  0  0
    6.0348   -9.6876    5.9954 H   0  0  0  0  0  0  0  0  0  0  0  0
    7.1978   -5.1980    6.3756 H   0  0  0  0  0  0  0  0  0  0  0  0
    7.4212   -5.7786    4.7336 H   0  0  0  0  0  0  0  0  0  0  0  0
    8.6895   -6.0139    5.9221 H   0  0  0  0  0  0  0  0  0  0  0  0
    6.9403   -6.9832    8.3186 H   0  0  0  0  0  0  0  0  0  0  0  0
    8.4347   -7.7007    7.7601 H   0  0  0  0  0  0  0  0  0  0  0  0
    6.9981   -8.6965    7.9214 H   0  0  0  0  0  0  0  0  0  0  0  0
    6.1434   -9.0223    3.0641 H   0  0  0  0  0  0  0  0  0  0  0  0
    6.5724  -11.1552    1.7675 H   0  0  0  0  0  0  0  0  0  0  0  0
    7.3492  -12.3493    2.8583 H   0  0  0  0  0  0  0  0  0  0  0  0
    7.8760  -10.6443    2.8875 H   0  0  0  0  0  0  0  0  0  0  0  0
    4.4901  -12.1482    2.8321 H   0  0  0  0  0  0  0  0  0  0  0  0
    5.2928  -12.9605    4.1700 H   0  0  0  0  0  0  0  0  0  0  0  0
    3.0150  -12.3620    4.8815 H   0  0  0  0  0  0  0  0  0  0  0  0
    4.1888  -11.4692    5.8154 H   0  0  0  0  0  0  0  0  0  0  0  0
    2.3327  -11.1708    2.5474 H   0  0  0  0  0  0  0  0  0  0  0  0
    0.2469  -11.8670    3.1622 H   0  0  0  0  0  0  0  0  0  0  0  0
   -0.0825  -10.7326    4.4578 H   0  0  0  0  0  0  0  0  0  0  0  0
   -2.4604   -9.4670    3.2143 H   0  0  0  0  0  0  0  0  0  0  0  0
   -2.1762   -6.9904    2.5832 H   0  0  0  0  0  0  0  0  0  0  0  0
   -0.5706  -10.3804    1.6284 H   0  0  0  0  0  0  0  0  0  0  0  0
    3.5100   -7.5731    2.2340 H   0  0  0  0  0  0  0  0  0  0  0  0
    6.5078  -11.1490    4.7182 H   0  0  0  0  0  0  0  0  0  0  0  0
  1  2  1  0
  1 30  1  0
  1 31  1  0
  1 32  1  0
  2  3  1  0
  3 17  1  0
  3  4  1  0
  3 33  1  1
  4  5  2  3
  4 34  1  0
  5  6  1  0
  5 35  1  0
  6  9  1  0
  6  7  1  0
  6 36  1  6
  7  8  1  0
  7 12  1  0
  7 37  1  1
  8  9  1  0
  9 10  1  0
  9 11  1  0
 10 38  1  0
 10 39  1  0
 10 40  1  0
 11 41  1  0
 11 42  1  0
 11 43  1  0
 12 29  1  0
 12 13  1  0
 12 44  1  6
 13 14  1  0
 13 15  1  0
 13 59  1  1
 14 45  1  0
 14 46  1  0
 14 47  1  0
 15 16  1  0
 15 48  1  0
 15 49  1  0
 17 16  1  1
 16 50  1  0
 16 51  1  0
 17 29  1  0
 17 18  1  0
 18 19  1  0
 18 52  1  6
 18 26  1  0
 19 53  1  0
 19 54  1  0
 19 20  1  0
 20 57  1  6
 20 25  1  0
 20 21  1  0
 21 22  2  0
 21 55  1  0
 22 23  1  0
 22 56  1  0
 23 25  1  0
 23 24  2  0
 25 26  2  0
 26 27  1  0
 27 29  1  0
 27 28  1  0
 27 58  1  6
 29 28  1  6
M  CHG  1  13   1
M  END
>  <i_m_ct_stereo_status>  (312) 
1

>  <s_m_source_file>  (312) 
/var/tmp/pbs.5076255.sched01/tmpos3i1bch/920fm1no0n.sdf

>  <i_m_source_file_index>  (312) 
42

>  <i_lp_mmshare_version>  (312) 
48012

>  <i_f3d_flags>  (312) 
0

>  <s_epik_input>  (312) 
W0NIM11PW0NAQEhdMS9bQ0hdPVtDSF1cW0NAQEhdKEMoTzIpKFtDSDNdKVtDSDNdKVtDQEhdMltDQEBIXShOKFtDSDNdKVtDSDJdW0NIMl0zKVtDQEBdNChbQ0BdMTM1KVtDQEBIXShPNClDNj1DN0MoW0NIMl1bQ0BIXTU2KT1bQ0hdW0NIXT1DN1tPSF0=

>  <s_epik_cmdline>  (312) 
J2VwaWtfcHl0aG9uJywgJy1waHQnLCAnMi4wJywgJy1waCcsICc3LjAnLCAnLXRuJywgJzgnLCAnLW1hJywgJzIwMCcsICctaW1hZScsICc8aW5maWxlLm1hZT4nLCAnLW9tYWUnLCAnPG91dGZpbGUubWFlPic=

>  <r_lp_tautomer_probability>  (312) 
0.9515

>  <r_epik_Ionization_Penalty>  (312) 
0.439999

>  <r_epik_Ionization_Penalty_Charging>  (312) 
0.439999

>  <r_epik_Ionization_Penalty_Neutral>  (312) 
1.03536e-13

>  <r_epik_State_Penalty>  (312) 
0.488167

>  <r_epik_Charging_Adjusted_Penalty>  (312) 
0.928166

>  <i_epik_Tot_Q>  (312) 
1

>  <i_epik_Tot_abs_Q>  (312) 
1

>  <s_lp_Force_Field>  (312) 
OPLS3e

>  <r_lp_Energy>  (312) 
98.2072

>  <b_lp_Chiralities_Consistent>  (312) 
1

>  <s_lp_Variant>  (312) 
92:0-4

>  <s_i_glide_gridfile>  (312) 
pfpi4k_grid

>  <i_i_glide_lignum>  (312) 
42

>  <i_i_glide_rotatable_bonds>  (312) 
1

>  <r_i_docking_score>  (312) 
-2.70177

>  <r_i_glide_ligand_efficiency>  (312) 
-0.0931646

>  <r_i_glide_ligand_efficiency_sa>  (312) 
-0.286231

>  <r_i_glide_ligand_efficiency_ln>  (312) 
-0.618638

>  <r_i_glide_gscore>  (312) 
-2.70177

>  <r_i_glide_lipo>  (312) 
-0.168463

>  <r_i_glide_hbond>  (312) 
-0.1669

>  <r_i_glide_metal>  (312) 
-0

>  <r_i_glide_rewards>  (312) 
-0.705687

>  <r_i_glide_evdw>  (312) 
-19.482

>  <r_i_glide_ecoul>  (312) 
-4.05042

>  <r_i_glide_erotb>  (312) 
0

>  <r_i_glide_esite>  (312) 
-0.0790593

>  <r_i_glide_emodel>  (312) 
-26.0042

>  <r_i_glide_energy>  (312) 
-23.5325

>  <r_i_glide_einternal>  (312) 
2.45898

>  <r_i_glide_intrahb_reward>  (312) 
-0

>  <i_i_glide_confnum>  (312) 
1

>  <i_i_glide_posenum>  (312) 
5

>  <r_i_glide_eff_state_penalty>  (312) 
0

>  <ligand_id>  (312) 
92

>  <original_smiles>  (312) 
COC1C=CC2C(OC2(C)C)C2N(C)CCC13C1CC4=CC=C(O)C4=C1C1OC123

>  <smiles>  (312) 
[H]C1=C([H])C2([H])C(=C3C4([H])OC45C4(C([H])(OC([H])([H])[H])C([H])=C([H])C6([H])C([H])(OC6(C([H])([H])[H])C([H])([H])[H])C5([H])[N+]([H])(C([H])([H])[H])C([H])([H])C4([H])[H])C3([H])C2([H])[H])C1=O

$$$$
92:4:0
     RDKit          3D

 58 64  0  0  1  0  0  0  0  0999 V2000
    5.8785   -2.5731    6.8073 C   0  0  0  0  0  0  0  0  0  0  0  0
    5.1866   -2.2271    5.6129 O   0  0  0  0  0  0  0  0  0  0  0  0
    3.7758   -2.4590    5.6295 C   0  0  2  0  0  0  0  0  0  0  0  0
    3.4506   -3.9531    5.7472 C   0  0  0  0  0  0  0  0  0  0  0  0
    2.2915   -4.5311    6.1352 C   0  0  0  0  0  0  0  0  0  0  0  0
    0.9422   -3.8611    6.3299 C   0  0  2  0  0  0  0  0  0  0  0  0
    0.9056   -2.3951    6.7382 C   0  0  2  0  0  0  0  0  0  0  0  0
   -0.2924   -2.6810    7.5217 O   0  0  0  0  0  0  0  0  0  0  0  0
    0.0966   -4.0956    7.5780 C   0  0  0  0  0  0  0  0  0  0  0  0
   -1.1504   -4.9631    7.4030 C   0  0  0  0  0  0  0  0  0  0  0  0
    0.7806   -4.4204    8.9161 C   0  0  0  0  0  0  0  0  0  0  0  0
    0.7588   -1.3861    5.5894 C   0  0  1  0  0  0  0  0  0  0  0  0
    1.0624    0.0167    5.9339 N   0  0  0  0  0  0  0  0  0  0  0  0
    0.2659    0.9653    5.1583 C   0  0  0  0  0  0  0  0  0  0  0  0
    2.5031    0.3496    5.8994 C   0  0  0  0  0  0  0  0  0  0  0  0
    3.2889   -0.1507    4.6493 C   0  0  0  0  0  0  0  0  0  0  0  0
    3.0963   -1.6680    4.4459 C   0  0  1  0  0  0  0  0  0  0  0  0
    3.5429   -2.1773    3.0247 C   0  0  1  0  0  0  0  0  0  0  0  0
    4.8830   -2.9323    2.6655 C   0  0  0  0  0  0  0  0  0  0  0  0
    4.3246   -4.1409    1.9370 C   0  0  0  0  0  0  0  0  0  0  0  0
    4.8194   -5.1996    1.2872 C   0  0  0  0  0  0  0  0  0  0  0  0
    3.7064   -6.1666    0.8651 C   0  0  0  0  0  0  0  0  0  0  0  0
    2.4641   -5.4569    1.4394 C   0  0  0  0  0  0  0  0  0  0  0  0
    1.3121   -5.8855    1.3765 O   0  0  0  0  0  0  0  0  0  0  0  0
    2.9344   -4.2143    2.0216 C   0  0  0  0  0  0  0  0  0  0  0  0
    2.4455   -3.1580    2.6564 C   0  0  0  0  0  0  0  0  0  0  0  0
    1.1666   -2.7196    3.2112 C   0  0  2  0  0  0  0  0  0  0  0  0
    0.9407   -1.3100    3.1535 O   0  0  0  0  0  0  0  0  0  0  0  0
    1.5580   -1.8244    4.3511 C   0  0  1  0  0  0  0  0  0  0  0  0
    6.9295   -2.3108    6.7015 H   0  0  0  0  0  0  0  0  0  0  0  0
    5.8305   -3.6405    7.0204 H   0  0  0  0  0  0  0  0  0  0  0  0
    5.4866   -2.0295    7.6663 H   0  0  0  0  0  0  0  0  0  0  0  0
    3.4805   -2.0266    6.5777 H   0  0  0  0  0  0  0  0  0  0  0  0
    4.2813   -4.6127    5.5395 H   0  0  0  0  0  0  0  0  0  0  0  0
    2.2696   -5.6082    6.2047 H   0  0  0  0  0  0  0  0  0  0  0  0
    0.3281   -4.0478    5.4530 H   0  0  0  0  0  0  0  0  0  0  0  0
    1.6818   -2.1234    7.4519 H   0  0  0  0  0  0  0  0  0  0  0  0
   -0.8762   -6.0146    7.3253 H   0  0  0  0  0  0  0  0  0  0  0  0
   -1.6926   -4.7015    6.4940 H   0  0  0  0  0  0  0  0  0  0  0  0
   -1.8437   -4.8611    8.2382 H   0  0  0  0  0  0  0  0  0  0  0  0
    1.1182   -5.4572    8.9411 H   0  0  0  0  0  0  0  0  0  0  0  0
    0.0977   -4.2889    9.7554 H   0  0  0  0  0  0  0  0  0  0  0  0
    1.6531   -3.7943    9.1049 H   0  0  0  0  0  0  0  0  0  0  0  0
   -0.2897   -1.4396    5.2909 H   0  0  0  0  0  0  0  0  0  0  0  0
    0.4134    1.9840    5.5139 H   0  0  0  0  0  0  0  0  0  0  0  0
   -0.7967    0.7490    5.2559 H   0  0  0  0  0  0  0  0  0  0  0  0
    0.5135    0.9447    4.0991 H   0  0  0  0  0  0  0  0  0  0  0  0
    2.6252    1.4329    5.9609 H   0  0  0  0  0  0  0  0  0  0  0  0
    2.9824   -0.0271    6.7988 H   0  0  0  0  0  0  0  0  0  0  0  0
    2.9325    0.3870    3.7682 H   0  0  0  0  0  0  0  0  0  0  0  0
    4.3461    0.0980    4.7348 H   0  0  0  0  0  0  0  0  0  0  0  0
    3.4225   -1.3580    2.3142 H   0  0  0  0  0  0  0  0  0  0  0  0
    5.5249   -2.3383    2.0174 H   0  0  0  0  0  0  0  0  0  0  0  0
    5.4642   -3.2766    3.5170 H   0  0  0  0  0  0  0  0  0  0  0  0
    5.8634   -5.3922    1.0980 H   0  0  0  0  0  0  0  0  0  0  0  0
    3.8496   -7.1569    1.2989 H   0  0  0  0  0  0  0  0  0  0  0  0
    3.6435   -6.2533   -0.2192 H   0  0  0  0  0  0  0  0  0  0  0  0
    0.3182   -3.3937    3.2656 H   0  0  0  0  0  0  0  0  0  0  0  0
  1  2  1  0
  1 30  1  0
  1 31  1  0
  1 32  1  0
  2  3  1  0
  3 17  1  0
  3  4  1  0
  3 33  1  1
  4  5  2  3
  4 34  1  0
  5  6  1  0
  5 35  1  0
  6  9  1  0
  6  7  1  0
  6 36  1  6
  7  8  1  0
  7 12  1  0
  7 37  1  1
  8  9  1  0
  9 10  1  0
  9 11  1  0
 10 38  1  0
 10 39  1  0
 10 40  1  0
 11 41  1  0
 11 42  1  0
 11 43  1  0
 12 29  1  0
 12 13  1  0
 12 44  1  6
 13 14  1  0
 13 15  1  0
 14 45  1  0
 14 46  1  0
 14 47  1  0
 15 16  1  0
 15 48  1  0
 15 49  1  0
 17 16  1  1
 16 50  1  0
 16 51  1  0
 17 29  1  0
 17 18  1  0
 18 19  1  0
 18 52  1  6
 18 26  1  0
 19 53  1  0
 19 54  1  0
 19 20  1  0
 20 25  1  0
 20 21  2  0
 21 22  1  0
 21 55  1  0
 22 23  1  0
 22 56  1  0
 22 57  1  0
 23 25  1  0
 23 24  2  0
 25 26  2  0
 26 27  1  0
 27 29  1  0
 27 28  1  0
 27 58  1  1
 29 28  1  6
M  END
>  <i_m_ct_stereo_status>  (313) 
1

>  <s_m_source_file>  (313) 
/var/tmp/pbs.5076255.sched01/tmpos3i1bch/920fm1no0n.sdf

>  <i_m_source_file_index>  (313) 
43

>  <i_lp_mmshare_version>  (313) 
48012

>  <i_f3d_flags>  (313) 
0

>  <s_epik_input>  (313) 
W0NIM11PW0NAQEhdMS9bQ0hdPVtDSF1cW0NAQEhdKEMoTzIpKFtDSDNdKVtDSDNdKVtDQEhdMltDQEBIXShOKFtDSDNdKVtDSDJdW0NIMl0zKVtDQEBdNChbQ0BdMTM1KVtDQEBIXShPNClDNj1DN0MoW0NIMl1bQ0BIXTU2KT1bQ0hdW0NIXT1DN1tPSF0=

>  <s_epik_cmdline>  (313) 
J2VwaWtfcHl0aG9uJywgJy1waHQnLCAnMi4wJywgJy1waCcsICc3LjAnLCAnLXRuJywgJzgnLCAnLW1hJywgJzIwMCcsICctaW1hZScsICc8aW5maWxlLm1hZT4nLCAnLW9tYWUnLCAnPG91dGZpbGUubWFlPic=

>  <r_lp_tautomer_probability>  (313) 
0.0485

>  <r_epik_Ionization_Penalty>  (313) 
0.315073

>  <r_epik_Ionization_Penalty_Charging>  (313) 
0

>  <r_epik_Ionization_Penalty_Neutral>  (313) 
0.315073

>  <r_epik_State_Penalty>  (313) 
2.22757

>  <r_epik_Charging_Adjusted_Penalty>  (313) 
2.22757

>  <i_epik_Tot_Q>  (313) 
0

>  <i_epik_Tot_abs_Q>  (313) 
0

>  <s_lp_Force_Field>  (313) 
OPLS3e

>  <r_lp_Energy>  (313) 
40.5829

>  <b_lp_Chiralities_Consistent>  (313) 
1

>  <s_lp_Variant>  (313) 
92:0-5

>  <s_i_glide_gridfile>  (313) 
pfpi4k_grid

>  <i_i_glide_lignum>  (313) 
43

>  <i_i_glide_rotatable_bonds>  (313) 
1

>  <r_i_docking_score>  (313) 
-2.63874

>  <r_i_glide_ligand_efficiency>  (313) 
-0.0909911

>  <r_i_glide_ligand_efficiency_sa>  (313) 
-0.279553

>  <r_i_glide_ligand_efficiency_ln>  (313) 
-0.604205

>  <r_i_glide_gscore>  (313) 
-2.63874

>  <r_i_glide_lipo>  (313) 
-0.268856

>  <r_i_glide_hbond>  (313) 
-0.185488

>  <r_i_glide_metal>  (313) 
-0

>  <r_i_glide_rewards>  (313) 
-0.712559

>  <r_i_glide_evdw>  (313) 
-15.208

>  <r_i_glide_ecoul>  (313) 
-4.58112

>  <r_i_glide_erotb>  (313) 
0

>  <r_i_glide_esite>  (313) 
-0.0242709

>  <r_i_glide_emodel>  (313) 
-23.4954

>  <r_i_glide_energy>  (313) 
-19.7891

>  <r_i_glide_einternal>  (313) 
3.74413e-05

>  <r_i_glide_intrahb_reward>  (313) 
-0

>  <i_i_glide_confnum>  (313) 
1

>  <i_i_glide_posenum>  (313) 
22

>  <r_i_glide_eff_state_penalty>  (313) 
0

>  <ligand_id>  (313) 
92

>  <original_smiles>  (313) 
COC1C=CC2C(OC2(C)C)C2N(C)CCC13C1CC4=CC=C(O)C4=C1C1OC123

>  <smiles>  (313) 
[H]C1=C2C(=C3C4([H])OC45C4([H])N(C([H])([H])[H])C([H])([H])C([H])([H])C5(C([H])(OC([H])([H])[H])C([H])=C([H])C5([H])C4([H])OC5(C([H])([H])[H])C([H])([H])[H])C3([H])C2([H])[H])C(=O)C1([H])[H]

$$$$
92:4:1
     RDKit          3D

 58 64  0  0  1  0  0  0  0  0999 V2000
    5.4879    1.0637    5.7567 C   0  0  0  0  0  0  0  0  0  0  0  0
    4.7544    0.9444    4.5420 O   0  0  0  0  0  0  0  0  0  0  0  0
    3.5237    0.2224    4.6353 C   0  0  2  0  0  0  0  0  0  0  0  0
    3.7621   -1.2439    5.0096 C   0  0  0  0  0  0  0  0  0  0  0  0
    2.8854   -2.1323    5.5224 C   0  0  0  0  0  0  0  0  0  0  0  0
    1.3808   -1.9863    5.6350 C   0  0  2  0  0  0  0  0  0  0  0  0
    0.7938   -0.5927    5.7987 C   0  0  2  0  0  0  0  0  0  0  0  0
   -0.2426   -1.1719    6.6501 O   0  0  0  0  0  0  0  0  0  0  0  0
    0.6399   -2.3120    6.9271 C   0  0  0  0  0  0  0  0  0  0  0  0
   -0.2001   -3.5906    6.9341 C   0  0  0  0  0  0  0  0  0  0  0  0
    1.3405   -2.1348    8.2838 C   0  0  0  0  0  0  0  0  0  0  0  0
    0.3281    0.0909    4.5025 C   0  0  1  0  0  0  0  0  0  0  0  0
    0.0813    1.5447    4.6012 N   0  0  0  0  0  0  0  0  0  0  0  0
   -0.9791    1.9919    3.6973 C   0  0  0  0  0  0  0  0  0  0  0  0
    1.3029    2.3712    4.4685 C   0  0  0  0  0  0  0  0  0  0  0  0
    2.2594    1.9970    3.2980 C   0  0  0  0  0  0  0  0  0  0  0  0
    2.6441    0.5033    3.3570 C   0  0  1  0  0  0  0  0  0  0  0  0
    3.2985   -0.0264    2.0320 C   0  0  1  0  0  0  0  0  0  0  0  0
    4.8314   -0.2879    1.7581 C   0  0  0  0  0  0  0  0  0  0  0  0
    4.7787   -1.7207    1.2545 C   0  0  0  0  0  0  0  0  0  0  0  0
    5.6479   -2.6171    0.7813 C   0  0  0  0  0  0  0  0  0  0  0  0
    4.9844   -3.9823    0.5534 C   0  0  0  0  0  0  0  0  0  0  0  0
    3.5503   -3.6941    1.0386 C   0  0  0  0  0  0  0  0  0  0  0  0
    2.6529   -4.5285    1.1107 O   0  0  0  0  0  0  0  0  0  0  0  0
    3.5062   -2.2797    1.3856 C   0  0  0  0  0  0  0  0  0  0  0  0
    2.6490   -1.3889    1.8490 C   0  0  0  0  0  0  0  0  0  0  0  0
    1.2812   -1.3672    2.3613 C   0  0  2  0  0  0  0  0  0  0  0  0
    0.5546   -0.1723    2.0973 O   0  0  0  0  0  0  0  0  0  0  0  0
    1.2747   -0.2210    3.3370 C   0  0  1  0  0  0  0  0  0  0  0  0
    6.3738    1.6735    5.5905 H   0  0  0  0  0  0  0  0  0  0  0  0
    5.8315    0.0997    6.1293 H   0  0  0  0  0  0  0  0  0  0  0  0
    4.8964    1.5476    6.5343 H   0  0  0  0  0  0  0  0  0  0  0  0
    3.0572    0.6657    5.5053 H   0  0  0  0  0  0  0  0  0  0  0  0
    4.7812   -1.5820    4.8852 H   0  0  0  0  0  0  0  0  0  0  0  0
    3.2513   -3.1160    5.7657 H   0  0  0  0  0  0  0  0  0  0  0  0
    0.8988   -2.5258    4.8210 H   0  0  0  0  0  0  0  0  0  0  0  0
    1.3874    0.0598    6.4379 H   0  0  0  0  0  0  0  0  0  0  0  0
    0.4342   -4.4703    7.0217 H   0  0  0  0  0  0  0  0  0  0  0  0
   -0.7675   -3.6955    6.0111 H   0  0  0  0  0  0  0  0  0  0  0  0
   -0.9123   -3.6181    7.7590 H   0  0  0  0  0  0  0  0  0  0  0  0
    2.0335   -2.9529    8.4682 H   0  0  0  0  0  0  0  0  0  0  0  0
    0.6310   -2.1301    9.1114 H   0  0  0  0  0  0  0  0  0  0  0  0
    1.9135   -1.2103    8.3413 H   0  0  0  0  0  0  0  0  0  0  0  0
   -0.6157   -0.3913    4.2438 H   0  0  0  0  0  0  0  0  0  0  0  0
   -1.2262    3.0381    3.8745 H   0  0  0  0  0  0  0  0  0  0  0  0
   -1.8914    1.4171    3.8611 H   0  0  0  0  0  0  0  0  0  0  0  0
   -0.7026    1.8910    2.6476 H   0  0  0  0  0  0  0  0  0  0  0  0
    1.0158    3.4131    4.3406 H   0  0  0  0  0  0  0  0  0  0  0  0
    1.8572    2.3504    5.4042 H   0  0  0  0  0  0  0  0  0  0  0  0
    1.7641    2.2140    2.3489 H   0  0  0  0  0  0  0  0  0  0  0  0
    3.1498    2.6289    3.3075 H   0  0  0  0  0  0  0  0  0  0  0  0
    2.9110    0.5505    1.1979 H   0  0  0  0  0  0  0  0  0  0  0  0
    5.2332    0.3751    0.9900 H   0  0  0  0  0  0  0  0  0  0  0  0
    5.4735   -0.2525    2.6360 H   0  0  0  0  0  0  0  0  0  0  0  0
    6.6918   -2.4429    0.6049 H   0  0  0  0  0  0  0  0  0  0  0  0
    5.4653   -4.7647    1.1460 H   0  0  0  0  0  0  0  0  0  0  0  0
    4.9950   -4.2622   -0.5024 H   0  0  0  0  0  0  0  0  0  0  0  0
    0.7467   -2.2926    2.5255 H   0  0  0  0  0  0  0  0  0  0  0  0
  1  2  1  0
  1 30  1  0
  1 31  1  0
  1 32  1  0
  2  3  1  0
  3 17  1  0
  3  4  1  0
  3 33  1  1
  4  5  2  3
  4 34  1  0
  5  6  1  0
  5 35  1  0
  6  9  1  0
  6  7  1  0
  6 36  1  6
  7  8  1  0
  7 12  1  0
  7 37  1  1
  8  9  1  0
  9 10  1  0
  9 11  1  0
 10 38  1  0
 10 39  1  0
 10 40  1  0
 11 41  1  0
 11 42  1  0
 11 43  1  0
 12 29  1  0
 12 13  1  0
 12 44  1  6
 13 14  1  0
 13 15  1  0
 14 45  1  0
 14 46  1  0
 14 47  1  0
 15 16  1  0
 15 48  1  0
 15 49  1  0
 17 16  1  6
 16 50  1  0
 16 51  1  0
 17 29  1  0
 17 18  1  0
 18 19  1  0
 18 52  1  6
 18 26  1  0
 19 53  1  0
 19 54  1  0
 19 20  1  0
 20 25  1  0
 20 21  2  0
 21 22  1  0
 21 55  1  0
 22 23  1  0
 22 56  1  0
 22 57  1  0
 23 25  1  0
 23 24  2  0
 25 26  2  0
 26 27  1  0
 27 29  1  0
 27 28  1  0
 27 58  1  1
 29 28  1  6
M  END
>  <i_m_ct_stereo_status>  (314) 
1

>  <s_m_source_file>  (314) 
/var/tmp/pbs.5076255.sched01/tmpos3i1bch/920fm1no0n.sdf

>  <i_m_source_file_index>  (314) 
43

>  <i_lp_mmshare_version>  (314) 
48012

>  <i_f3d_flags>  (314) 
0

>  <s_epik_input>  (314) 
W0NIM11PW0NAQEhdMS9bQ0hdPVtDSF1cW0NAQEhdKEMoTzIpKFtDSDNdKVtDSDNdKVtDQEhdMltDQEBIXShOKFtDSDNdKVtDSDJdW0NIMl0zKVtDQEBdNChbQ0BdMTM1KVtDQEBIXShPNClDNj1DN0MoW0NIMl1bQ0BIXTU2KT1bQ0hdW0NIXT1DN1tPSF0=

>  <s_epik_cmdline>  (314) 
J2VwaWtfcHl0aG9uJywgJy1waHQnLCAnMi4wJywgJy1waCcsICc3LjAnLCAnLXRuJywgJzgnLCAnLW1hJywgJzIwMCcsICctaW1hZScsICc8aW5maWxlLm1hZT4nLCAnLW9tYWUnLCAnPG91dGZpbGUubWFlPic=

>  <r_lp_tautomer_probability>  (314) 
0.0485

>  <r_epik_Ionization_Penalty>  (314) 
0.315073

>  <r_epik_Ionization_Penalty_Charging>  (314) 
0

>  <r_epik_Ionization_Penalty_Neutral>  (314) 
0.315073

>  <r_epik_State_Penalty>  (314) 
2.22757

>  <r_epik_Charging_Adjusted_Penalty>  (314) 
2.22757

>  <i_epik_Tot_Q>  (314) 
0

>  <i_epik_Tot_abs_Q>  (314) 
0

>  <s_lp_Force_Field>  (314) 
OPLS3e

>  <r_lp_Energy>  (314) 
40.5829

>  <b_lp_Chiralities_Consistent>  (314) 
1

>  <s_lp_Variant>  (314) 
92:0-5

>  <s_i_glide_gridfile>  (314) 
pfpi4k_grid

>  <i_i_glide_lignum>  (314) 
43

>  <i_i_glide_rotatable_bonds>  (314) 
1

>  <r_i_docking_score>  (314) 
-2.36243

>  <r_i_glide_ligand_efficiency>  (314) 
-0.0814632

>  <r_i_glide_ligand_efficiency_sa>  (314) 
-0.250281

>  <r_i_glide_ligand_efficiency_ln>  (314) 
-0.540937

>  <r_i_glide_gscore>  (314) 
-2.36243

>  <r_i_glide_lipo>  (314) 
-0.330758

>  <r_i_glide_hbond>  (314) 
0

>  <r_i_glide_metal>  (314) 
-0

>  <r_i_glide_rewards>  (314) 
-0.712559

>  <r_i_glide_evdw>  (314) 
-20.1327

>  <r_i_glide_ecoul>  (314) 
-2.08298

>  <r_i_glide_erotb>  (314) 
0

>  <r_i_glide_esite>  (314) 
-3.18569e-05

>  <r_i_glide_emodel>  (314) 
-25.465

>  <r_i_glide_energy>  (314) 
-22.2157

>  <r_i_glide_einternal>  (314) 
0.00436491

>  <r_i_glide_intrahb_reward>  (314) 
-0

>  <i_i_glide_confnum>  (314) 
2

>  <i_i_glide_posenum>  (314) 
4

>  <r_i_glide_eff_state_penalty>  (314) 
0

>  <ligand_id>  (314) 
92

>  <original_smiles>  (314) 
COC1C=CC2C(OC2(C)C)C2N(C)CCC13C1CC4=CC=C(O)C4=C1C1OC123

>  <smiles>  (314) 
[H]C1=C2C(=C3C4([H])OC45C4([H])N(C([H])([H])[H])C([H])([H])C([H])([H])C5(C([H])(OC([H])([H])[H])C([H])=C([H])C5([H])C4([H])OC5(C([H])([H])[H])C([H])([H])[H])C3([H])C2([H])[H])C(=O)C1([H])[H]

$$$$
92:4:2
     RDKit          3D

 58 64  0  0  1  0  0  0  0  0999 V2000
    1.9621   -2.9942    2.8479 C   0  0  0  0  0  0  0  0  0  0  0  0
    1.6673   -4.0514    3.7557 O   0  0  0  0  0  0  0  0  0  0  0  0
    2.6041   -5.1330    3.7615 C   0  0  2  0  0  0  0  0  0  0  0  0
    2.5946   -5.8853    2.4263 C   0  0  0  0  0  0  0  0  0  0  0  0
    3.5344   -6.7105    1.9218 C   0  0  0  0  0  0  0  0  0  0  0  0
    4.7245   -7.2985    2.6486 C   0  0  2  0  0  0  0  0  0  0  0  0
    5.3429   -6.5024    3.7877 C   0  0  2  0  0  0  0  0  0  0  0  0
    6.6437   -7.0118    3.3815 O   0  0  0  0  0  0  0  0  0  0  0  0
    6.1187   -7.2643    2.0373 C   0  0  0  0  0  0  0  0  0  0  0  0
    6.6818   -8.5980    1.5365 C   0  0  0  0  0  0  0  0  0  0  0  0
    6.5275   -6.1253    1.0859 C   0  0  0  0  0  0  0  0  0  0  0  0
    4.8684   -6.8731    5.2027 C   0  0  1  0  0  0  0  0  0  0  0  0
    5.1948   -5.8976    6.2657 N   0  0  0  0  0  0  0  0  0  0  0  0
    5.4025   -6.5375    7.5629 C   0  0  0  0  0  0  0  0  0  0  0  0
    4.2529   -4.7613    6.3481 C   0  0  0  0  0  0  0  0  0  0  0  0
    2.7397   -5.1281    6.3091 C   0  0  0  0  0  0  0  0  0  0  0  0
    2.4159   -5.9913    5.0728 C   0  0  1  0  0  0  0  0  0  0  0  0
    1.0134   -6.6917    5.1502 C   0  0  1  0  0  0  0  0  0  0  0  0
   -0.3172   -6.2517    4.4268 C   0  0  0  0  0  0  0  0  0  0  0  0
   -0.6947   -7.5547    3.7346 C   0  0  0  0  0  0  0  0  0  0  0  0
   -1.7014   -7.9927    2.9821 C   0  0  0  0  0  0  0  0  0  0  0  0
   -1.4404   -9.4127    2.4646 C   0  0  0  0  0  0  0  0  0  0  0  0
   -0.0417   -9.6831    3.0526 C   0  0  0  0  0  0  0  0  0  0  0  0
    0.6186  -10.6987    2.8583 O   0  0  0  0  0  0  0  0  0  0  0  0
    0.3017   -8.5202    3.8563 C   0  0  0  0  0  0  0  0  0  0  0  0
    1.2936   -8.0860    4.6075 C   0  0  0  0  0  0  0  0  0  0  0  0
    2.6439   -8.5023    4.9636 C   0  0  2  0  0  0  0  0  0  0  0  0
    3.0704   -8.1368    6.2739 O   0  0  0  0  0  0  0  0  0  0  0  0
    3.3718   -7.2069    5.2110 C   0  0  1  0  0  0  0  0  0  0  0  0
    1.2219   -2.2039    2.9580 H   0  0  0  0  0  0  0  0  0  0  0  0
    1.9316   -3.3199    1.8083 H   0  0  0  0  0  0  0  0  0  0  0  0
    2.9435   -2.5608    3.0426 H   0  0  0  0  0  0  0  0  0  0  0  0
    3.5548   -4.6149    3.7936 H   0  0  0  0  0  0  0  0  0  0  0  0
    1.7426   -5.6784    1.7972 H   0  0  0  0  0  0  0  0  0  0  0  0
    3.3791   -7.1154    0.9365 H   0  0  0  0  0  0  0  0  0  0  0  0
    4.5116   -8.3211    2.9527 H   0  0  0  0  0  0  0  0  0  0  0  0
    5.3692   -5.4286    3.6071 H   0  0  0  0  0  0  0  0  0  0  0  0
    6.2218   -8.8964    0.5981 H   0  0  0  0  0  0  0  0  0  0  0  0
    6.4882   -9.4016    2.2457 H   0  0  0  0  0  0  0  0  0  0  0  0
    7.7606   -8.5516    1.3827 H   0  0  0  0  0  0  0  0  0  0  0  0
    6.0908   -6.2501    0.0985 H   0  0  0  0  0  0  0  0  0  0  0  0
    7.6101   -6.0844    0.9534 H   0  0  0  0  0  0  0  0  0  0  0  0
    6.2059   -5.1476    1.4430 H   0  0  0  0  0  0  0  0  0  0  0  0
    5.3758   -7.8105    5.4407 H   0  0  0  0  0  0  0  0  0  0  0  0
    5.7635   -5.8229    8.3009 H   0  0  0  0  0  0  0  0  0  0  0  0
    6.1551   -7.3222    7.4869 H   0  0  0  0  0  0  0  0  0  0  0  0
    4.4904   -6.9887    7.9537 H   0  0  0  0  0  0  0  0  0  0  0  0
    4.4361   -4.2162    7.2720 H   0  0  0  0  0  0  0  0  0  0  0  0
    4.4713   -4.0478    5.5588 H   0  0  0  0  0  0  0  0  0  0  0  0
    2.4834   -5.6807    7.2153 H   0  0  0  0  0  0  0  0  0  0  0  0
    2.1239   -4.2271    6.3317 H   0  0  0  0  0  0  0  0  0  0  0  0
    0.7717   -6.8720    6.1927 H   0  0  0  0  0  0  0  0  0  0  0  0
   -1.0865   -5.9444    5.1329 H   0  0  0  0  0  0  0  0  0  0  0  0
   -0.1850   -5.4807    3.6744 H   0  0  0  0  0  0  0  0  0  0  0  0
   -2.5856   -7.4452    2.7292 H   0  0  0  0  0  0  0  0  0  0  0  0
   -1.4442   -9.4536    1.3742 H   0  0  0  0  0  0  0  0  0  0  0  0
   -2.1744  -10.1062    2.8655 H   0  0  0  0  0  0  0  0  0  0  0  0
    3.0918   -9.3563    4.4698 H   0  0  0  0  0  0  0  0  0  0  0  0
  1  2  1  0
  1 30  1  0
  1 31  1  0
  1 32  1  0
  2  3  1  0
  3 17  1  0
  3  4  1  0
  3 33  1  1
  4  5  2  3
  4 34  1  0
  5  6  1  0
  5 35  1  0
  6  9  1  0
  6  7  1  0
  6 36  1  1
  7  8  1  0
  7 12  1  0
  7 37  1  6
  8  9  1  0
  9 10  1  0
  9 11  1  0
 10 38  1  0
 10 39  1  0
 10 40  1  0
 11 41  1  0
 11 42  1  0
 11 43  1  0
 12 29  1  0
 12 13  1  0
 12 44  1  1
 13 14  1  0
 13 15  1  0
 14 45  1  0
 14 46  1  0
 14 47  1  0
 15 16  1  0
 15 48  1  0
 15 49  1  0
 17 16  1  1
 16 50  1  0
 16 51  1  0
 17 29  1  0
 17 18  1  0
 18 19  1  0
 18 52  1  1
 18 26  1  0
 19 53  1  0
 19 54  1  0
 19 20  1  0
 20 25  1  0
 20 21  2  0
 21 22  1  0
 21 55  1  0
 22 23  1  0
 22 56  1  0
 22 57  1  0
 23 25  1  0
 23 24  2  0
 25 26  2  0
 26 27  1  0
 27 29  1  0
 27 28  1  0
 27 58  1  6
 29 28  1  1
M  END
>  <i_m_ct_stereo_status>  (315) 
1

>  <s_m_source_file>  (315) 
/var/tmp/pbs.5076255.sched01/tmpos3i1bch/920fm1no0n.sdf

>  <i_m_source_file_index>  (315) 
43

>  <i_lp_mmshare_version>  (315) 
48012

>  <i_f3d_flags>  (315) 
0

>  <s_epik_input>  (315) 
W0NIM11PW0NAQEhdMS9bQ0hdPVtDSF1cW0NAQEhdKEMoTzIpKFtDSDNdKVtDSDNdKVtDQEhdMltDQEBIXShOKFtDSDNdKVtDSDJdW0NIMl0zKVtDQEBdNChbQ0BdMTM1KVtDQEBIXShPNClDNj1DN0MoW0NIMl1bQ0BIXTU2KT1bQ0hdW0NIXT1DN1tPSF0=

>  <s_epik_cmdline>  (315) 
J2VwaWtfcHl0aG9uJywgJy1waHQnLCAnMi4wJywgJy1waCcsICc3LjAnLCAnLXRuJywgJzgnLCAnLW1hJywgJzIwMCcsICctaW1hZScsICc8aW5maWxlLm1hZT4nLCAnLW9tYWUnLCAnPG91dGZpbGUubWFlPic=

>  <r_lp_tautomer_probability>  (315) 
0.0485

>  <r_epik_Ionization_Penalty>  (315) 
0.315073

>  <r_epik_Ionization_Penalty_Charging>  (315) 
0

>  <r_epik_Ionization_Penalty_Neutral>  (315) 
0.315073

>  <r_epik_State_Penalty>  (315) 
2.22757

>  <r_epik_Charging_Adjusted_Penalty>  (315) 
2.22757

>  <i_epik_Tot_Q>  (315) 
0

>  <i_epik_Tot_abs_Q>  (315) 
0

>  <s_lp_Force_Field>  (315) 
OPLS3e

>  <r_lp_Energy>  (315) 
40.5829

>  <b_lp_Chiralities_Consistent>  (315) 
1

>  <s_lp_Variant>  (315) 
92:0-5

>  <s_i_glide_gridfile>  (315) 
pfpi4k_grid

>  <i_i_glide_lignum>  (315) 
43

>  <i_i_glide_rotatable_bonds>  (315) 
1

>  <r_i_docking_score>  (315) 
-2.22376

>  <r_i_glide_ligand_efficiency>  (315) 
-0.0766814

>  <r_i_glide_ligand_efficiency_sa>  (315) 
-0.235589

>  <r_i_glide_ligand_efficiency_ln>  (315) 
-0.509185

>  <r_i_glide_gscore>  (315) 
-2.22376

>  <r_i_glide_lipo>  (315) 
-0.532144

>  <r_i_glide_hbond>  (315) 
0

>  <r_i_glide_metal>  (315) 
-0

>  <r_i_glide_rewards>  (315) 
-0.712559

>  <r_i_glide_evdw>  (315) 
-21.1887

>  <r_i_glide_ecoul>  (315) 
0.706683

>  <r_i_glide_erotb>  (315) 
0

>  <r_i_glide_esite>  (315) 
-0.0256246

>  <r_i_glide_emodel>  (315) 
-23.5377

>  <r_i_glide_energy>  (315) 
-20.482

>  <r_i_glide_einternal>  (315) 
0.0003523

>  <r_i_glide_intrahb_reward>  (315) 
-0

>  <i_i_glide_confnum>  (315) 
2

>  <i_i_glide_posenum>  (315) 
16

>  <r_i_glide_eff_state_penalty>  (315) 
0

>  <ligand_id>  (315) 
92

>  <original_smiles>  (315) 
COC1C=CC2C(OC2(C)C)C2N(C)CCC13C1CC4=CC=C(O)C4=C1C1OC123

>  <smiles>  (315) 
[H]C1=C2C(=C3C4([H])OC45C4([H])N(C([H])([H])[H])C([H])([H])C([H])([H])C5(C([H])(OC([H])([H])[H])C([H])=C([H])C5([H])C4([H])OC5(C([H])([H])[H])C([H])([H])[H])C3([H])C2([H])[H])C(=O)C1([H])[H]

$$$$
92:5:0
     RDKit          3D

 58 64  0  0  1  0  0  0  0  0999 V2000
    6.3810   -5.4626    5.2146 C   0  0  0  0  0  0  0  0  0  0  0  0
    6.0608   -5.7951    3.8579 O   0  0  0  0  0  0  0  0  0  0  0  0
    5.5018   -4.7720    3.0440 C   0  0  2  0  0  0  0  0  0  0  0  0
    4.2081   -4.2236    3.6356 C   0  0  0  0  0  0  0  0  0  0  0  0
    4.0276   -2.9156    3.9088 C   0  0  0  0  0  0  0  0  0  0  0  0
    3.7007   -2.0888    2.6724 C   0  0  2  0  0  0  0  0  0  0  0  0
    4.8933   -1.8221    1.7404 C   0  0  2  0  0  0  0  0  0  0  0  0
    4.4005   -0.4659    1.4244 O   0  0  0  0  0  0  0  0  0  0  0  0
    3.5392   -0.5475    2.6281 C   0  0  0  0  0  0  0  0  0  0  0  0
    2.1086   -0.0856    2.3489 C   0  0  0  0  0  0  0  0  0  0  0  0
    4.1497    0.2082    3.8114 C   0  0  0  0  0  0  0  0  0  0  0  0
    5.1019   -2.7692    0.5069 C   0  0  1  0  0  0  0  0  0  0  0  0
    6.4991   -2.8166    0.0162 N   0  0  0  0  0  0  0  0  0  0  0  0
    6.5734   -2.9202   -1.4369 C   0  0  0  0  0  0  0  0  0  0  0  0
    7.3662   -3.8037    0.7019 C   0  0  0  0  0  0  0  0  0  0  0  0
    6.7761   -5.2349    0.8672 C   0  0  0  0  0  0  0  0  0  0  0  0
    5.3895   -5.2285    1.5387 C   0  0  1  0  0  0  0  0  0  0  0  0
    4.5722   -6.5578    1.3215 C   0  0  1  0  0  0  0  0  0  0  0  0
    4.3753   -7.7499    2.3395 C   0  0  0  0  0  0  0  0  0  0  0  0
    2.8864   -7.9390    2.2592 C   0  0  0  0  0  0  0  0  0  0  0  0
    1.9763   -8.8051    2.7516 C   0  0  0  0  0  0  0  0  0  0  0  0
    0.5530   -8.3524    2.3893 C   0  0  0  0  0  0  0  0  0  0  0  0
    0.8226   -7.0446    1.6221 C   0  0  0  0  0  0  0  0  0  0  0  0
   -0.0402   -6.2732    1.1743 O   0  0  0  0  0  0  0  0  0  0  0  0
    2.2557   -6.9177    1.5418 C   0  0  0  0  0  0  0  0  0  0  0  0
    3.1542   -6.0727    1.0464 C   0  0  0  0  0  0  0  0  0  0  0  0
    3.2003   -4.7663    0.3657 C   0  0  2  0  0  0  0  0  0  0  0  0
    4.2231   -4.6970   -0.6420 O   0  0  0  0  0  0  0  0  0  0  0  0
    4.5801   -4.2187    0.6667 C   0  0  1  0  0  0  0  0  0  0  0  0
    6.8969   -6.2868    5.7195 H   0  0  0  0  0  0  0  0  0  0  0  0
    5.4857   -5.2490    5.8029 H   0  0  0  0  0  0  0  0  0  0  0  0
    7.0440   -4.5993    5.2754 H   0  0  0  0  0  0  0  0  0  0  0  0
    6.2097   -3.9384    3.1177 H   0  0  0  0  0  0  0  0  0  0  0  0
    3.3180   -4.7900    3.3739 H   0  0  0  0  0  0  0  0  0  0  0  0
    3.0247   -2.6329    4.1440 H   0  0  0  0  0  0  0  0  0  0  0  0
    2.8577   -2.5814    2.1173 H   0  0  0  0  0  0  0  0  0  0  0  0
    5.8539   -1.7406    2.3012 H   0  0  0  0  0  0  0  0  0  0  0  0
    1.4550   -0.2470    3.2177 H   0  0  0  0  0  0  0  0  0  0  0  0
    1.6585   -0.6181    1.4984 H   0  0  0  0  0  0  0  0  0  0  0  0
    2.1088    0.9715    2.1272 H   0  0  0  0  0  0  0  0  0  0  0  0
    3.5748    0.0726    4.7273 H   0  0  0  0  0  0  0  0  0  0  0  0
    4.1399    1.2587    3.5944 H   0  0  0  0  0  0  0  0  0  0  0  0
    5.1768   -0.0793    4.0211 H   0  0  0  0  0  0  0  0  0  0  0  0
    4.4754   -2.3323   -0.2964 H   0  0  0  0  0  0  0  0  0  0  0  0
    7.6003   -2.7867   -1.7765 H   0  0  0  0  0  0  0  0  0  0  0  0
    5.9644   -2.1430   -1.9041 H   0  0  0  0  0  0  0  0  0  0  0  0
    6.2148   -3.8849   -1.7869 H   0  0  0  0  0  0  0  0  0  0  0  0
    8.3263   -3.8650    0.1756 H   0  0  0  0  0  0  0  0  0  0  0  0
    7.6113   -3.3969    1.6803 H   0  0  0  0  0  0  0  0  0  0  0  0
    6.6813   -5.6880   -0.1127 H   0  0  0  0  0  0  0  0  0  0  0  0
    7.4560   -5.8588    1.4276 H   0  0  0  0  0  0  0  0  0  0  0  0
    4.9050   -6.9965    0.3773 H   0  0  0  0  0  0  0  0  0  0  0  0
    4.9179   -8.6369    2.0285 H   0  0  0  0  0  0  0  0  0  0  0  0
    4.6314   -7.5362    3.3701 H   0  0  0  0  0  0  0  0  0  0  0  0
    2.1712   -9.6683    3.3536 H   0  0  0  0  0  0  0  0  0  0  0  0
   -0.0488   -8.1777    3.2702 H   0  0  0  0  0  0  0  0  0  0  0  0
    0.0490   -9.0790    1.7668 H   0  0  0  0  0  0  0  0  0  0  0  0
    2.2965   -4.1451    0.2423 H   0  0  0  0  0  0  0  0  0  0  0  0
  1  2  1  0
  1 30  1  0
  1 31  1  0
  1 32  1  0
  2  3  1  0
  3 17  1  0
  3  4  1  0
  3 33  1  6
  4  5  2  3
  4 34  1  0
  5  6  1  0
  5 35  1  0
  6  9  1  0
  6  7  1  0
  6 36  1  6
  7  8  1  0
  7 12  1  0
  7 37  1  1
  8  9  1  0
  9 10  1  0
  9 11  1  0
 10 38  1  0
 10 39  1  0
 10 40  1  0
 11 41  1  0
 11 42  1  0
 11 43  1  0
 12 29  1  0
 12 13  1  0
 12 44  1  6
 13 14  1  0
 13 15  1  0
 14 45  1  0
 14 46  1  0
 14 47  1  0
 15 16  1  0
 15 48  1  0
 15 49  1  0
 17 16  1  6
 16 50  1  0
 16 51  1  0
 17 29  1  0
 17 18  1  0
 18 19  1  0
 18 52  1  6
 18 26  1  0
 19 53  1  0
 19 54  1  0
 19 20  1  0
 20 25  1  0
 20 21  2  0
 21 22  1  0
 21 55  1  0
 22 23  1  0
 22 56  1  0
 22 57  1  0
 23 25  1  0
 23 24  2  0
 25 26  2  0
 26 27  1  0
 27 29  1  0
 27 28  1  0
 27 58  1  6
 29 28  1  6
M  END
>  <i_m_ct_stereo_status>  (316) 
1

>  <s_m_source_file>  (316) 
/var/tmp/pbs.5076255.sched01/tmpos3i1bch/920fm1no0n.sdf

>  <i_m_source_file_index>  (316) 
44

>  <i_lp_mmshare_version>  (316) 
48012

>  <i_f3d_flags>  (316) 
0

>  <s_epik_input>  (316) 
W0NIM11PW0NAQEhdMS9bQ0hdPVtDSF1cW0NAQEhdKEMoTzIpKFtDSDNdKVtDSDNdKVtDQEhdMltDQEBIXShOKFtDSDNdKVtDSDJdW0NIMl0zKVtDQEBdNChbQ0BdMTM1KVtDQEBIXShPNClDNj1DN0MoW0NIMl1bQ0BIXTU2KT1bQ0hdW0NIXT1DN1tPSF0=

>  <s_epik_cmdline>  (316) 
J2VwaWtfcHl0aG9uJywgJy1waHQnLCAnMi4wJywgJy1waCcsICc3LjAnLCAnLXRuJywgJzgnLCAnLW1hJywgJzIwMCcsICctaW1hZScsICc8aW5maWxlLm1hZT4nLCAnLW9tYWUnLCAnPG91dGZpbGUubWFlPic=

>  <r_lp_tautomer_probability>  (316) 
0.0485

>  <r_epik_Ionization_Penalty>  (316) 
0.315073

>  <r_epik_Ionization_Penalty_Charging>  (316) 
0

>  <r_epik_Ionization_Penalty_Neutral>  (316) 
0.315073

>  <r_epik_State_Penalty>  (316) 
2.22757

>  <r_epik_Charging_Adjusted_Penalty>  (316) 
2.22757

>  <i_epik_Tot_Q>  (316) 
0

>  <i_epik_Tot_abs_Q>  (316) 
0

>  <s_lp_Force_Field>  (316) 
OPLS3e

>  <r_lp_Energy>  (316) 
78.2567

>  <b_lp_Chiralities_Consistent>  (316) 
1

>  <s_lp_Variant>  (316) 
92:0-6

>  <s_i_glide_gridfile>  (316) 
pfpi4k_grid

>  <i_i_glide_lignum>  (316) 
44

>  <i_i_glide_rotatable_bonds>  (316) 
1

>  <r_i_docking_score>  (316) 
-1.05413

>  <r_i_glide_ligand_efficiency>  (316) 
-0.0363493

>  <r_i_glide_ligand_efficiency_sa>  (316) 
-0.111677

>  <r_i_glide_ligand_efficiency_ln>  (316) 
-0.241369

>  <r_i_glide_gscore>  (316) 
-1.05413

>  <r_i_glide_lipo>  (316) 
-0.513286

>  <r_i_glide_hbond>  (316) 
-0.248385

>  <r_i_glide_metal>  (316) 
-0

>  <r_i_glide_rewards>  (316) 
-0.712559

>  <r_i_glide_evdw>  (316) 
-21.3328

>  <r_i_glide_ecoul>  (316) 
-4.35987

>  <r_i_glide_erotb>  (316) 
0

>  <r_i_glide_esite>  (316) 
-0.0695549

>  <r_i_glide_emodel>  (316) 
-18.5799

>  <r_i_glide_energy>  (316) 
-25.6926

>  <r_i_glide_einternal>  (316) 
0.0904851

>  <r_i_glide_intrahb_reward>  (316) 
-0

>  <i_i_glide_confnum>  (316) 
2

>  <i_i_glide_posenum>  (316) 
25

>  <r_i_glide_eff_state_penalty>  (316) 
0

>  <ligand_id>  (316) 
92

>  <original_smiles>  (316) 
COC1C=CC2C(OC2(C)C)C2N(C)CCC13C1CC4=CC=C(O)C4=C1C1OC123

>  <smiles>  (316) 
[H]C1=C2C(=C3C4([H])OC45C4([H])N(C([H])([H])[H])C([H])([H])C([H])([H])C5(C([H])(OC([H])([H])[H])C([H])=C([H])C5([H])C4([H])OC5(C([H])([H])[H])C([H])([H])[H])C3([H])C2([H])[H])C(=O)C1([H])[H]

$$$$
92:5:1
     RDKit          3D

 58 64  0  0  1  0  0  0  0  0999 V2000
    6.7963   -7.1393    4.7661 C   0  0  0  0  0  0  0  0  0  0  0  0
    5.9791   -7.1806    3.5911 O   0  0  0  0  0  0  0  0  0  0  0  0
    5.3974   -5.9560    3.1670 C   0  0  2  0  0  0  0  0  0  0  0  0
    4.2957   -5.5166    4.1376 C   0  0  0  0  0  0  0  0  0  0  0  0
    4.2911   -4.3044    4.7259 C   0  0  0  0  0  0  0  0  0  0  0  0
    3.8143   -3.1879    3.7994 C   0  0  2  0  0  0  0  0  0  0  0  0
    4.8250   -2.7768    2.7184 C   0  0  2  0  0  0  0  0  0  0  0  0
    4.4278   -1.3604    2.8181 O   0  0  0  0  0  0  0  0  0  0  0  0
    3.8156   -1.6769    4.1301 C   0  0  0  0  0  0  0  0  0  0  0  0
    2.4116   -1.0808    4.2713 C   0  0  0  0  0  0  0  0  0  0  0  0
    4.7153   -1.2583    5.2914 C   0  0  0  0  0  0  0  0  0  0  0  0
    4.6993   -3.4084    1.2895 C   0  0  1  0  0  0  0  0  0  0  0  0
    5.9657   -3.4101    0.5212 N   0  0  0  0  0  0  0  0  0  0  0  0
    5.7496   -3.1802   -0.9005 C   0  0  0  0  0  0  0  0  0  0  0  0
    6.8406   -4.5788    0.7805 C   0  0  0  0  0  0  0  0  0  0  0  0
    6.1461   -5.9720    0.7247 C   0  0  0  0  0  0  0  0  0  0  0  0
    4.9278   -6.0497    1.6607 C   0  0  1  0  0  0  0  0  0  0  0  0
    3.9447   -7.2447    1.3350 C   0  0  1  0  0  0  0  0  0  0  0  0
    3.8201   -8.6330    2.0794 C   0  0  0  0  0  0  0  0  0  0  0  0
    2.3319   -8.7077    2.2745 C   0  0  0  0  0  0  0  0  0  0  0  0
    1.4468   -9.6128    2.7450 C   0  0  0  0  0  0  0  0  0  0  0  0
    0.0347   -9.0086    2.7971 C   0  0  0  0  0  0  0  0  0  0  0  0
    0.2856   -7.5668    2.2904 C   0  0  0  0  0  0  0  0  0  0  0  0
   -0.5632   -6.6694    2.2105 O   0  0  0  0  0  0  0  0  0  0  0  0
    1.6849   -7.5124    1.9506 C   0  0  0  0  0  0  0  0  0  0  0  0
    2.5622   -6.6311    1.4813 C   0  0  0  0  0  0  0  0  0  0  0  0
    2.6205   -5.2084    1.1182 C   0  0  2  0  0  0  0  0  0  0  0  0
    3.4109   -4.9582   -0.0490 O   0  0  0  0  0  0  0  0  0  0  0  0
    4.0746   -4.8220    1.2261 C   0  0  1  0  0  0  0  0  0  0  0  0
    7.2816   -8.1028    4.9563 H   0  0  0  0  0  0  0  0  0  0  0  0
    6.2164   -6.8972    5.6574 H   0  0  0  0  0  0  0  0  0  0  0  0
    7.5973   -6.4052    4.6667 H   0  0  0  0  0  0  0  0  0  0  0  0
    6.2133   -5.2297    3.2613 H   0  0  0  0  0  0  0  0  0  0  0  0
    3.3147   -5.9645    3.9557 H   0  0  0  0  0  0  0  0  0  0  0  0
    3.3995   -4.0485    5.2415 H   0  0  0  0  0  0  0  0  0  0  0  0
    2.8355   -3.4848    3.3268 H   0  0  0  0  0  0  0  0  0  0  0  0
    5.8764   -2.8814    3.0641 H   0  0  0  0  0  0  0  0  0  0  0  0
    1.9303   -1.4057    5.2033 H   0  0  0  0  0  0  0  0  0  0  0  0
    1.7542   -1.3698    3.4405 H   0  0  0  0  0  0  0  0  0  0  0  0
    2.4848   -0.0035    4.2924 H   0  0  0  0  0  0  0  0  0  0  0  0
    4.3179   -1.5715    6.2569 H   0  0  0  0  0  0  0  0  0  0  0  0
    4.7773   -0.1874    5.3137 H   0  0  0  0  0  0  0  0  0  0  0  0
    5.7306   -1.6486    5.2132 H   0  0  0  0  0  0  0  0  0  0  0  0
    3.9836   -2.7567    0.7466 H   0  0  0  0  0  0  0  0  0  0  0  0
    6.6975   -3.0225   -1.4153 H   0  0  0  0  0  0  0  0  0  0  0  0
    5.1467   -2.2828   -1.0479 H   0  0  0  0  0  0  0  0  0  0  0  0
    5.2307   -4.0129   -1.3773 H   0  0  0  0  0  0  0  0  0  0  0  0
    7.6724   -4.5730    0.0677 H   0  0  0  0  0  0  0  0  0  0  0  0
    7.3133   -4.4414    1.7473 H   0  0  0  0  0  0  0  0  0  0  0  0
    5.8164   -6.1540   -0.2915 H   0  0  0  0  0  0  0  0  0  0  0  0
    6.8500   -6.7573    0.9709 H   0  0  0  0  0  0  0  0  0  0  0  0
    4.0507   -7.4623    0.2693 H   0  0  0  0  0  0  0  0  0  0  0  0
    4.1986   -9.4475    1.4710 H   0  0  0  0  0  0  0  0  0  0  0  0
    4.2949   -8.6872    3.0522 H   0  0  0  0  0  0  0  0  0  0  0  0
    1.6681  -10.6024    3.0858 H   0  0  0  0  0  0  0  0  0  0  0  0
   -0.3645   -9.0214    3.8010 H   0  0  0  0  0  0  0  0  0  0  0  0
   -0.6422   -9.5421    2.1476 H   0  0  0  0  0  0  0  0  0  0  0  0
    1.8178   -4.5076    1.3527 H   0  0  0  0  0  0  0  0  0  0  0  0
  1  2  1  0
  1 30  1  0
  1 31  1  0
  1 32  1  0
  2  3  1  0
  3 17  1  0
  3  4  1  0
  3 33  1  6
  4  5  2  3
  4 34  1  0
  5  6  1  0
  5 35  1  0
  6  9  1  0
  6  7  1  0
  6 36  1  6
  7  8  1  0
  7 12  1  0
  7 37  1  1
  8  9  1  0
  9 10  1  0
  9 11  1  0
 10 38  1  0
 10 39  1  0
 10 40  1  0
 11 41  1  0
 11 42  1  0
 11 43  1  0
 12 29  1  0
 12 13  1  0
 12 44  1  6
 13 14  1  0
 13 15  1  0
 14 45  1  0
 14 46  1  0
 14 47  1  0
 15 16  1  0
 15 48  1  0
 15 49  1  0
 17 16  1  6
 16 50  1  0
 16 51  1  0
 17 29  1  0
 17 18  1  0
 18 19  1  0
 18 52  1  6
 18 26  1  0
 19 53  1  0
 19 54  1  0
 19 20  1  0
 20 25  1  0
 20 21  2  0
 21 22  1  0
 21 55  1  0
 22 23  1  0
 22 56  1  0
 22 57  1  0
 23 25  1  0
 23 24  2  0
 25 26  2  0
 26 27  1  0
 27 29  1  0
 27 28  1  0
 27 58  1  1
 29 28  1  6
M  END
>  <i_m_ct_stereo_status>  (317) 
1

>  <s_m_source_file>  (317) 
/var/tmp/pbs.5076255.sched01/tmpos3i1bch/920fm1no0n.sdf

>  <i_m_source_file_index>  (317) 
44

>  <i_lp_mmshare_version>  (317) 
48012

>  <i_f3d_flags>  (317) 
0

>  <s_epik_input>  (317) 
W0NIM11PW0NAQEhdMS9bQ0hdPVtDSF1cW0NAQEhdKEMoTzIpKFtDSDNdKVtDSDNdKVtDQEhdMltDQEBIXShOKFtDSDNdKVtDSDJdW0NIMl0zKVtDQEBdNChbQ0BdMTM1KVtDQEBIXShPNClDNj1DN0MoW0NIMl1bQ0BIXTU2KT1bQ0hdW0NIXT1DN1tPSF0=

>  <s_epik_cmdline>  (317) 
J2VwaWtfcHl0aG9uJywgJy1waHQnLCAnMi4wJywgJy1waCcsICc3LjAnLCAnLXRuJywgJzgnLCAnLW1hJywgJzIwMCcsICctaW1hZScsICc8aW5maWxlLm1hZT4nLCAnLW9tYWUnLCAnPG91dGZpbGUubWFlPic=

>  <r_lp_tautomer_probability>  (317) 
0.0485

>  <r_epik_Ionization_Penalty>  (317) 
0.315073

>  <r_epik_Ionization_Penalty_Charging>  (317) 
0

>  <r_epik_Ionization_Penalty_Neutral>  (317) 
0.315073

>  <r_epik_State_Penalty>  (317) 
2.22757

>  <r_epik_Charging_Adjusted_Penalty>  (317) 
2.22757

>  <i_epik_Tot_Q>  (317) 
0

>  <i_epik_Tot_abs_Q>  (317) 
0

>  <s_lp_Force_Field>  (317) 
OPLS3e

>  <r_lp_Energy>  (317) 
78.2567

>  <b_lp_Chiralities_Consistent>  (317) 
1

>  <s_lp_Variant>  (317) 
92:0-6

>  <s_i_glide_gridfile>  (317) 
pfpi4k_grid

>  <i_i_glide_lignum>  (317) 
44

>  <i_i_glide_rotatable_bonds>  (317) 
1

>  <r_i_docking_score>  (317) 
-0.858779

>  <r_i_glide_ligand_efficiency>  (317) 
-0.0296131

>  <r_i_glide_ligand_efficiency_sa>  (317) 
-0.0909807

>  <r_i_glide_ligand_efficiency_ln>  (317) 
-0.196639

>  <r_i_glide_gscore>  (317) 
-0.858779

>  <r_i_glide_lipo>  (317) 
-0.561153

>  <r_i_glide_hbond>  (317) 
-0.16

>  <r_i_glide_metal>  (317) 
-0

>  <r_i_glide_rewards>  (317) 
-0.712559

>  <r_i_glide_evdw>  (317) 
-21.0235

>  <r_i_glide_ecoul>  (317) 
-3.02839

>  <r_i_glide_erotb>  (317) 
0

>  <r_i_glide_esite>  (317) 
-0.0557076

>  <r_i_glide_emodel>  (317) 
-16.7606

>  <r_i_glide_energy>  (317) 
-24.0519

>  <r_i_glide_einternal>  (317) 
0.087704

>  <r_i_glide_intrahb_reward>  (317) 
-0

>  <i_i_glide_confnum>  (317) 
1

>  <i_i_glide_posenum>  (317) 
18

>  <r_i_glide_eff_state_penalty>  (317) 
0

>  <ligand_id>  (317) 
92

>  <original_smiles>  (317) 
COC1C=CC2C(OC2(C)C)C2N(C)CCC13C1CC4=CC=C(O)C4=C1C1OC123

>  <smiles>  (317) 
[H]C1=C2C(=C3C4([H])OC45C4([H])N(C([H])([H])[H])C([H])([H])C([H])([H])C5(C([H])(OC([H])([H])[H])C([H])=C([H])C5([H])C4([H])OC5(C([H])([H])[H])C([H])([H])[H])C3([H])C2([H])[H])C(=O)C1([H])[H]

$$$$
92:5:2
     RDKit          3D

 58 64  0  0  1  0  0  0  0  0999 V2000
    5.4245   -9.1467    6.1164 C   0  0  0  0  0  0  0  0  0  0  0  0
    5.0381   -8.9923    4.7434 O   0  0  0  0  0  0  0  0  0  0  0  0
    4.9337   -7.6601    4.2470 C   0  0  2  0  0  0  0  0  0  0  0  0
    3.8285   -6.8893    4.9689 C   0  0  0  0  0  0  0  0  0  0  0  0
    4.0507   -5.7121    5.5878 C   0  0  0  0  0  0  0  0  0  0  0  0
    4.1073   -4.5328    4.6095 C   0  0  2  0  0  0  0  0  0  0  0  0
    5.4139   -4.4612    3.7936 C   0  0  2  0  0  0  0  0  0  0  0  0
    5.4114   -2.9830    3.8626 O   0  0  0  0  0  0  0  0  0  0  0  0
    4.4752   -3.0792    5.0070 C   0  0  0  0  0  0  0  0  0  0  0  0
    3.3074   -2.1011    4.8723 C   0  0  0  0  0  0  0  0  0  0  0  0
    5.1959   -2.9017    6.3479 C   0  0  0  0  0  0  0  0  0  0  0  0
    5.4093   -5.0704    2.3522 C   0  0  1  0  0  0  0  0  0  0  0  0
    6.7556   -5.4555    1.8769 N   0  0  0  0  0  0  0  0  0  0  0  0
    6.9222   -5.1996    0.4540 C   0  0  0  0  0  0  0  0  0  0  0  0
    7.1874   -6.8199    2.2647 C   0  0  0  0  0  0  0  0  0  0  0  0
    6.1559   -7.9554    2.0160 C   0  0  0  0  0  0  0  0  0  0  0  0
    4.7942   -7.6564    2.6686 C   0  0  1  0  0  0  0  0  0  0  0  0
    3.6067   -8.5270    2.1022 C   0  0  1  0  0  0  0  0  0  0  0  0
    2.9433   -9.7990    2.7548 C   0  0  0  0  0  0  0  0  0  0  0  0
    1.4786   -9.4466    2.6368 C   0  0  0  0  0  0  0  0  0  0  0  0
    0.3048  -10.0365    2.8829 C   0  0  0  0  0  0  0  0  0  0  0  0
   -0.8544   -9.0542    2.6516 C   0  0  0  0  0  0  0  0  0  0  0  0
   -0.1053   -7.7648    2.2717 C   0  0  0  0  0  0  0  0  0  0  0  0
   -0.6073   -6.6606    2.0568 O   0  0  0  0  0  0  0  0  0  0  0  0
    1.2951   -8.1221    2.2216 C   0  0  0  0  0  0  0  0  0  0  0  0
    2.4553   -7.5385    1.9737 C   0  0  0  0  0  0  0  0  0  0  0  0
    2.9847   -6.1948    1.6709 C   0  0  2  0  0  0  0  0  0  0  0  0
    4.0488   -6.2236    0.7144 O   0  0  0  0  0  0  0  0  0  0  0  0
    4.4315   -6.2482    2.1031 C   0  0  1  0  0  0  0  0  0  0  0  0
    5.5816  -10.1993    6.3734 H   0  0  0  0  0  0  0  0  0  0  0  0
    4.6592   -8.7698    6.7991 H   0  0  0  0  0  0  0  0  0  0  0  0
    6.3606   -8.6298    6.3309 H   0  0  0  0  0  0  0  0  0  0  0  0
    5.8813   -7.2048    4.5413 H   0  0  0  0  0  0  0  0  0  0  0  0
    2.8348   -7.0262    4.5577 H   0  0  0  0  0  0  0  0  0  0  0  0
    3.1944   -5.2027    5.9361 H   0  0  0  0  0  0  0  0  0  0  0  0
    3.2263   -4.5405    3.9146 H   0  0  0  0  0  0  0  0  0  0  0  0
    6.2843   -4.8508    4.3569 H   0  0  0  0  0  0  0  0  0  0  0  0
    2.5624   -2.2492    5.6649 H   0  0  0  0  0  0  0  0  0  0  0  0
    2.7879   -2.2116    3.9111 H   0  0  0  0  0  0  0  0  0  0  0  0
    3.6729   -1.0878    4.9467 H   0  0  0  0  0  0  0  0  0  0  0  0
    4.5325   -3.0650    7.1967 H   0  0  0  0  0  0  0  0  0  0  0  0
    5.5526   -1.8924    6.4241 H   0  0  0  0  0  0  0  0  0  0  0  0
    6.0490   -3.5647    6.4682 H   0  0  0  0  0  0  0  0  0  0  0  0
    5.0372   -4.2554    1.7008 H   0  0  0  0  0  0  0  0  0  0  0  0
    7.9626   -5.3369    0.1576 H   0  0  0  0  0  0  0  0  0  0  0  0
    6.6464   -4.1703    0.2131 H   0  0  0  0  0  0  0  0  0  0  0  0
    6.2959   -5.8524   -0.1513 H   0  0  0  0  0  0  0  0  0  0  0  0
    8.1169   -7.0607    1.7423 H   0  0  0  0  0  0  0  0  0  0  0  0
    7.4658   -6.7927    3.3160 H   0  0  0  0  0  0  0  0  0  0  0  0
    6.0220   -8.0773    0.9477 H   0  0  0  0  0  0  0  0  0  0  0  0
    6.5390   -8.8997    2.3801 H   0  0  0  0  0  0  0  0  0  0  0  0
    3.8597   -8.7958    1.0730 H   0  0  0  0  0  0  0  0  0  0  0  0
    3.1894  -10.7058    2.2100 H   0  0  0  0  0  0  0  0  0  0  0  0
    3.1626   -9.9586    3.8046 H   0  0  0  0  0  0  0  0  0  0  0  0
    0.1511  -11.0442    3.2261 H   0  0  0  0  0  0  0  0  0  0  0  0
   -1.4468   -8.9281    3.5494 H   0  0  0  0  0  0  0  0  0  0  0  0
   -1.5071   -9.3898    1.8523 H   0  0  0  0  0  0  0  0  0  0  0  0
    2.3486   -5.2962    1.7342 H   0  0  0  0  0  0  0  0  0  0  0  0
  1  2  1  0
  1 30  1  0
  1 31  1  0
  1 32  1  0
  2  3  1  0
  3 17  1  0
  3  4  1  0
  3 33  1  6
  4  5  2  3
  4 34  1  0
  5  6  1  0
  5 35  1  0
  6  9  1  0
  6  7  1  0
  6 36  1  6
  7  8  1  0
  7 12  1  0
  7 37  1  1
  8  9  1  0
  9 10  1  0
  9 11  1  0
 10 38  1  0
 10 39  1  0
 10 40  1  0
 11 41  1  0
 11 42  1  0
 11 43  1  0
 12 29  1  0
 12 13  1  0
 12 44  1  6
 13 14  1  0
 13 15  1  0
 14 45  1  0
 14 46  1  0
 14 47  1  0
 15 16  1  0
 15 48  1  0
 15 49  1  0
 17 16  1  6
 16 50  1  0
 16 51  1  0
 17 29  1  0
 17 18  1  0
 18 19  1  0
 18 52  1  6
 18 26  1  0
 19 53  1  0
 19 54  1  0
 19 20  1  0
 20 25  1  0
 20 21  2  0
 21 22  1  0
 21 55  1  0
 22 23  1  0
 22 56  1  0
 22 57  1  0
 23 25  1  0
 23 24  2  0
 25 26  2  0
 26 27  1  0
 27 29  1  0
 27 28  1  0
 27 58  1  1
 29 28  1  6
M  END
>  <i_m_ct_stereo_status>  (318) 
1

>  <s_m_source_file>  (318) 
/var/tmp/pbs.5076255.sched01/tmpos3i1bch/920fm1no0n.sdf

>  <i_m_source_file_index>  (318) 
44

>  <i_lp_mmshare_version>  (318) 
48012

>  <i_f3d_flags>  (318) 
0

>  <s_epik_input>  (318) 
W0NIM11PW0NAQEhdMS9bQ0hdPVtDSF1cW0NAQEhdKEMoTzIpKFtDSDNdKVtDSDNdKVtDQEhdMltDQEBIXShOKFtDSDNdKVtDSDJdW0NIMl0zKVtDQEBdNChbQ0BdMTM1KVtDQEBIXShPNClDNj1DN0MoW0NIMl1bQ0BIXTU2KT1bQ0hdW0NIXT1DN1tPSF0=

>  <s_epik_cmdline>  (318) 
J2VwaWtfcHl0aG9uJywgJy1waHQnLCAnMi4wJywgJy1waCcsICc3LjAnLCAnLXRuJywgJzgnLCAnLW1hJywgJzIwMCcsICctaW1hZScsICc8aW5maWxlLm1hZT4nLCAnLW9tYWUnLCAnPG91dGZpbGUubWFlPic=

>  <r_lp_tautomer_probability>  (318) 
0.0485

>  <r_epik_Ionization_Penalty>  (318) 
0.315073

>  <r_epik_Ionization_Penalty_Charging>  (318) 
0

>  <r_epik_Ionization_Penalty_Neutral>  (318) 
0.315073

>  <r_epik_State_Penalty>  (318) 
2.22757

>  <r_epik_Charging_Adjusted_Penalty>  (318) 
2.22757

>  <i_epik_Tot_Q>  (318) 
0

>  <i_epik_Tot_abs_Q>  (318) 
0

>  <s_lp_Force_Field>  (318) 
OPLS3e

>  <r_lp_Energy>  (318) 
78.2567

>  <b_lp_Chiralities_Consistent>  (318) 
1

>  <s_lp_Variant>  (318) 
92:0-6

>  <s_i_glide_gridfile>  (318) 
pfpi4k_grid

>  <i_i_glide_lignum>  (318) 
44

>  <i_i_glide_rotatable_bonds>  (318) 
1

>  <r_i_docking_score>  (318) 
-0.492999

>  <r_i_glide_ligand_efficiency>  (318) 
-0.017

>  <r_i_glide_ligand_efficiency_sa>  (318) 
-0.0522293

>  <r_i_glide_ligand_efficiency_ln>  (318) 
-0.112884

>  <r_i_glide_gscore>  (318) 
-0.492999

>  <r_i_glide_lipo>  (318) 
-0.381743

>  <r_i_glide_hbond>  (318) 
-0.16

>  <r_i_glide_metal>  (318) 
-0

>  <r_i_glide_rewards>  (318) 
-0.712559

>  <r_i_glide_evdw>  (318) 
-20.415

>  <r_i_glide_ecoul>  (318) 
-4.07504

>  <r_i_glide_erotb>  (318) 
0

>  <r_i_glide_esite>  (318) 
-0.0624358

>  <r_i_glide_emodel>  (318) 
-15.8805

>  <r_i_glide_energy>  (318) 
-24.49

>  <r_i_glide_einternal>  (318) 
0.00361298

>  <r_i_glide_intrahb_reward>  (318) 
-0

>  <i_i_glide_confnum>  (318) 
2

>  <i_i_glide_posenum>  (318) 
1

>  <r_i_glide_eff_state_penalty>  (318) 
0

>  <ligand_id>  (318) 
92

>  <original_smiles>  (318) 
COC1C=CC2C(OC2(C)C)C2N(C)CCC13C1CC4=CC=C(O)C4=C1C1OC123

>  <smiles>  (318) 
[H]C1=C2C(=C3C4([H])OC45C4([H])N(C([H])([H])[H])C([H])([H])C([H])([H])C5(C([H])(OC([H])([H])[H])C([H])=C([H])C5([H])C4([H])OC5(C([H])([H])[H])C([H])([H])[H])C3([H])C2([H])[H])C(=O)C1([H])[H]

$$$$
92:6:0
     RDKit          3D

 59 65  0  0  1  0  0  0  0  0999 V2000
    4.4565  -12.9723    3.0726 C   0  0  0  0  0  0  0  0  0  0  0  0
    5.0208  -11.6664    3.1041 O   0  0  0  0  0  0  0  0  0  0  0  0
    4.1646  -10.6440    3.6027 C   0  0  2  0  0  0  0  0  0  0  0  0
    3.5967   -9.7833    2.4751 C   0  0  0  0  0  0  0  0  0  0  0  0
    2.5185   -8.9699    2.5128 C   0  0  0  0  0  0  0  0  0  0  0  0
    1.7198   -8.5283    3.7304 C   0  0  2  0  0  0  0  0  0  0  0  0
    1.6743   -9.4409    4.9510 C   0  0  2  0  0  0  0  0  0  0  0  0
    0.3215   -8.9705    5.1946 O   0  0  0  0  0  0  0  0  0  0  0  0
    0.1989   -8.6138    3.7756 C   0  0  0  0  0  0  0  0  0  0  0  0
   -0.5684   -7.2965    3.6728 C   0  0  0  0  0  0  0  0  0  0  0  0
   -0.5293   -9.7069    2.9751 C   0  0  0  0  0  0  0  0  0  0  0  0
    2.7208   -9.1425    6.0350 C   0  0  1  0  0  0  0  0  0  0  0  0
    2.9121  -10.2534    7.0235 N   0  0  2  0  0  0  0  0  0  0  0  0
    3.2829   -9.7711    8.3780 C   0  0  0  0  0  0  0  0  0  0  0  0
    3.7947  -11.3720    6.5776 C   0  0  0  0  0  0  0  0  0  0  0  0
    5.1306  -10.9048    5.9393 C   0  0  0  0  0  0  0  0  0  0  0  0
    4.8933   -9.9062    4.7854 C   0  0  1  0  0  0  0  0  0  0  0  0
    6.1932   -9.1504    4.3391 C   0  0  1  0  0  0  0  0  0  0  0  0
    7.0964   -9.4718    3.0880 C   0  0  0  0  0  0  0  0  0  0  0  0
    7.1560   -8.1042    2.4412 C   0  0  0  0  0  0  0  0  0  0  0  0
    7.7680   -7.5476    1.3938 C   0  0  0  0  0  0  0  0  0  0  0  0
    7.3175   -6.0985    1.1736 C   0  0  0  0  0  0  0  0  0  0  0  0
    6.2805   -5.9456    2.3055 C   0  0  0  0  0  0  0  0  0  0  0  0
    5.5985   -4.9454    2.4936 O   0  0  0  0  0  0  0  0  0  0  0  0
    6.2973   -7.1895    3.0539 C   0  0  0  0  0  0  0  0  0  0  0  0
    5.7033   -7.7356    4.1019 C   0  0  0  0  0  0  0  0  0  0  0  0
    4.6204   -7.4107    5.0337 C   0  0  2  0  0  0  0  0  0  0  0  0
    4.7961   -7.9119    6.3611 O   0  0  0  0  0  0  0  0  0  0  0  0
    4.0795   -8.7621    5.4419 C   0  0  1  0  0  0  0  0  0  0  0  0
    5.1859  -13.6836    2.6881 H   0  0  0  0  0  0  0  0  0  0  0  0
    3.5642  -13.0272    2.4512 H   0  0  0  0  0  0  0  0  0  0  0  0
    4.1846  -13.2932    4.0772 H   0  0  0  0  0  0  0  0  0  0  0  0
    3.2936  -11.1633    3.9659 H   0  0  0  0  0  0  0  0  0  0  0  0
    4.1065   -9.8840    1.5261 H   0  0  0  0  0  0  0  0  0  0  0  0
    2.2375   -8.4629    1.6012 H   0  0  0  0  0  0  0  0  0  0  0  0
    2.0208   -7.5180    4.0047 H   0  0  0  0  0  0  0  0  0  0  0  0
    1.5866  -10.5009    4.7155 H   0  0  0  0  0  0  0  0  0  0  0  0
   -0.5723   -6.9325    2.6467 H   0  0  0  0  0  0  0  0  0  0  0  0
   -0.1118   -6.5255    4.2930 H   0  0  0  0  0  0  0  0  0  0  0  0
   -1.6045   -7.4015    3.9940 H   0  0  0  0  0  0  0  0  0  0  0  0
   -0.5723   -9.4516    1.9185 H   0  0  0  0  0  0  0  0  0  0  0  0
   -1.5642   -9.8301    3.2844 H   0  0  0  0  0  0  0  0  0  0  0  0
   -0.0448  -10.6803    3.0544 H   0  0  0  0  0  0  0  0  0  0  0  0
    2.3691   -8.2667    6.5787 H   0  0  0  0  0  0  0  0  0  0  0  0
    4.2924   -9.3552    8.3897 H   0  0  0  0  0  0  0  0  0  0  0  0
    3.2543  -10.5949    9.0945 H   0  0  0  0  0  0  0  0  0  0  0  0
    2.5929   -9.0049    8.7298 H   0  0  0  0  0  0  0  0  0  0  0  0
    4.0092  -12.0281    7.4270 H   0  0  0  0  0  0  0  0  0  0  0  0
    3.2321  -12.0080    5.8924 H   0  0  0  0  0  0  0  0  0  0  0  0
    5.7369  -10.4236    6.7167 H   0  0  0  0  0  0  0  0  0  0  0  0
    5.7106  -11.7607    5.5982 H   0  0  0  0  0  0  0  0  0  0  0  0
    6.8494   -9.0637    5.2056 H   0  0  0  0  0  0  0  0  0  0  0  0
    8.0883   -9.8175    3.3766 H   0  0  0  0  0  0  0  0  0  0  0  0
    6.6726  -10.1744    2.3749 H   0  0  0  0  0  0  0  0  0  0  0  0
    8.4770   -8.0342    0.7408 H   0  0  0  0  0  0  0  0  0  0  0  0
    6.8655   -5.9609    0.1906 H   0  0  0  0  0  0  0  0  0  0  0  0
    8.1464   -5.4026    1.2999 H   0  0  0  0  0  0  0  0  0  0  0  0
    4.0004   -6.5300    4.8853 H   0  0  0  0  0  0  0  0  0  0  0  0
    2.0147  -10.7286    7.1640 H   0  0  0  0  0  0  0  0  0  0  0  0
  1  2  1  0
  1 30  1  0
  1 31  1  0
  1 32  1  0
  2  3  1  0
  3 17  1  0
  3  4  1  0
  3 33  1  1
  4  5  2  3
  4 34  1  0
  5  6  1  0
  5 35  1  0
  6  9  1  0
  6  7  1  0
  6 36  1  1
  7  8  1  0
  7 12  1  0
  7 37  1  6
  8  9  1  0
  9 10  1  0
  9 11  1  0
 10 38  1  0
 10 39  1  0
 10 40  1  0
 11 41  1  0
 11 42  1  0
 11 43  1  0
 12 29  1  0
 12 13  1  0
 12 44  1  1
 13 14  1  0
 13 15  1  0
 13 59  1  1
 14 45  1  0
 14 46  1  0
 14 47  1  0
 15 16  1  0
 15 48  1  0
 15 49  1  0
 17 16  1  1
 16 50  1  0
 16 51  1  0
 17 29  1  0
 17 18  1  0
 18 19  1  0
 18 52  1  1
 18 26  1  0
 19 53  1  0
 19 54  1  0
 19 20  1  0
 20 25  1  0
 20 21  2  0
 21 22  1  0
 21 55  1  0
 22 23  1  0
 22 56  1  0
 22 57  1  0
 23 25  1  0
 23 24  2  0
 25 26  2  0
 26 27  1  0
 27 29  1  0
 27 28  1  0
 27 58  1  1
 29 28  1  1
M  CHG  1  13   1
M  END
>  <i_m_ct_stereo_status>  (319) 
1

>  <s_m_source_file>  (319) 
/var/tmp/pbs.5076255.sched01/tmpos3i1bch/920fm1no0n.sdf

>  <i_m_source_file_index>  (319) 
45

>  <i_lp_mmshare_version>  (319) 
48012

>  <i_f3d_flags>  (319) 
0

>  <s_epik_input>  (319) 
W0NIM11PW0NAQEhdMS9bQ0hdPVtDSF1cW0NAQEhdKEMoTzIpKFtDSDNdKVtDSDNdKVtDQEhdMltDQEBIXShOKFtDSDNdKVtDSDJdW0NIMl0zKVtDQEBdNChbQ0BdMTM1KVtDQEBIXShPNClDNj1DN0MoW0NIMl1bQ0BIXTU2KT1bQ0hdW0NIXT1DN1tPSF0=

>  <s_epik_cmdline>  (319) 
J2VwaWtfcHl0aG9uJywgJy1waHQnLCAnMi4wJywgJy1waCcsICc3LjAnLCAnLXRuJywgJzgnLCAnLW1hJywgJzIwMCcsICctaW1hZScsICc8aW5maWxlLm1hZT4nLCAnLW9tYWUnLCAnPG91dGZpbGUubWFlPic=

>  <r_lp_tautomer_probability>  (319) 
0.0485

>  <r_epik_Ionization_Penalty>  (319) 
0.52474

>  <r_epik_Ionization_Penalty_Charging>  (319) 
0.52474

>  <r_epik_Ionization_Penalty_Neutral>  (319) 
1.00511e-13

>  <r_epik_State_Penalty>  (319) 
2.41064

>  <r_epik_Charging_Adjusted_Penalty>  (319) 
2.93538

>  <i_epik_Tot_Q>  (319) 
1

>  <i_epik_Tot_abs_Q>  (319) 
1

>  <s_lp_Force_Field>  (319) 
OPLS3e

>  <r_lp_Energy>  (319) 
48.0039

>  <b_lp_Chiralities_Consistent>  (319) 
1

>  <s_lp_Variant>  (319) 
92:0-7

>  <s_i_glide_gridfile>  (319) 
pfpi4k_grid

>  <i_i_glide_lignum>  (319) 
45

>  <i_i_glide_rotatable_bonds>  (319) 
1

>  <r_i_docking_score>  (319) 
-2.9647

>  <r_i_glide_ligand_efficiency>  (319) 
-0.102231

>  <r_i_glide_ligand_efficiency_sa>  (319) 
-0.314086

>  <r_i_glide_ligand_efficiency_ln>  (319) 
-0.678841

>  <r_i_glide_gscore>  (319) 
-2.9647

>  <r_i_glide_lipo>  (319) 
-0.173507

>  <r_i_glide_hbond>  (319) 
-0.166423

>  <r_i_glide_metal>  (319) 
-0

>  <r_i_glide_rewards>  (319) 
-0.745199

>  <r_i_glide_evdw>  (319) 
-19.9985

>  <r_i_glide_ecoul>  (319) 
-5.19766

>  <r_i_glide_erotb>  (319) 
0

>  <r_i_glide_esite>  (319) 
-0.1

>  <r_i_glide_emodel>  (319) 
-30.1311

>  <r_i_glide_energy>  (319) 
-25.1961

>  <r_i_glide_einternal>  (319) 
2.45389

>  <r_i_glide_intrahb_reward>  (319) 
-0

>  <i_i_glide_confnum>  (319) 
2

>  <i_i_glide_posenum>  (319) 
22

>  <r_i_glide_eff_state_penalty>  (319) 
0

>  <ligand_id>  (319) 
92

>  <original_smiles>  (319) 
COC1C=CC2C(OC2(C)C)C2N(C)CCC13C1CC4=CC=C(O)C4=C1C1OC123

>  <smiles>  (319) 
[H]C1=C2C(=C3C4([H])OC45C4(C([H])(OC([H])([H])[H])C([H])=C([H])C6([H])C([H])(OC6(C([H])([H])[H])C([H])([H])[H])C5([H])[N+]([H])(C([H])([H])[H])C([H])([H])C4([H])[H])C3([H])C2([H])[H])C(=O)C1([H])[H]

$$$$
92:6:1
     RDKit          3D

 59 65  0  0  1  0  0  0  0  0999 V2000
    6.3178  -12.4373    2.6513 C   0  0  0  0  0  0  0  0  0  0  0  0
    6.6500  -11.3380    3.4924 O   0  0  0  0  0  0  0  0  0  0  0  0
    5.5404  -10.5983    4.0009 C   0  0  2  0  0  0  0  0  0  0  0  0
    4.7548   -9.9060    2.8857 C   0  0  0  0  0  0  0  0  0  0  0  0
    3.4852   -9.4482    2.9239 C   0  0  0  0  0  0  0  0  0  0  0  0
    2.5930   -9.2775    4.1414 C   0  0  2  0  0  0  0  0  0  0  0  0
    2.8044  -10.1821    5.3493 C   0  0  2  0  0  0  0  0  0  0  0  0
    1.3727  -10.1228    5.5838 O   0  0  0  0  0  0  0  0  0  0  0  0
    1.1636   -9.7982    4.1689 C   0  0  0  0  0  0  0  0  0  0  0  0
    0.0463   -8.7600    4.0719 C   0  0  0  0  0  0  0  0  0  0  0  0
    0.7877  -11.0503    3.3664 C   0  0  0  0  0  0  0  0  0  0  0  0
    3.7083   -9.6113    6.4518 C   0  0  1  0  0  0  0  0  0  0  0  0
    4.1841  -10.6408    7.4321 N   0  0  2  0  0  0  0  0  0  0  0  0
    4.4085  -10.0760    8.7913 C   0  0  0  0  0  0  0  0  0  0  0  0
    5.3661  -11.4475    6.9810 C   0  0  0  0  0  0  0  0  0  0  0  0
    6.5161  -10.6028    6.3599 C   0  0  0  0  0  0  0  0  0  0  0  0
    6.0159   -9.7037    5.2092 C   0  0  1  0  0  0  0  0  0  0  0  0
    7.0494   -8.5933    4.7875 C   0  0  1  0  0  0  0  0  0  0  0  0
    8.0154   -8.6268    3.5419 C   0  0  0  0  0  0  0  0  0  0  0  0
    7.6777   -7.2936    2.9050 C   0  0  0  0  0  0  0  0  0  0  0  0
    8.1067   -6.5763    1.8639 C   0  0  0  0  0  0  0  0  0  0  0  0
    7.2575   -5.3179    1.6538 C   0  0  0  0  0  0  0  0  0  0  0  0
    6.2143   -5.4838    2.7763 C   0  0  0  0  0  0  0  0  0  0  0  0
    5.2695   -4.7207    2.9704 O   0  0  0  0  0  0  0  0  0  0  0  0
    6.5868   -6.6733    3.5151 C   0  0  0  0  0  0  0  0  0  0  0  0
    6.1712   -7.3797    4.5585 C   0  0  0  0  0  0  0  0  0  0  0  0
    5.0360   -7.3928    5.4802 C   0  0  2  0  0  0  0  0  0  0  0  0
    5.3422   -7.8379    6.8022 O   0  0  0  0  0  0  0  0  0  0  0  0
    4.9049   -8.8447    5.8701 C   0  0  1  0  0  0  0  0  0  0  0  0
    7.2301  -12.9569    2.3645 H   0  0  0  0  0  0  0  0  0  0  0  0
    5.8248  -12.1220    1.7333 H   0  0  0  0  0  0  0  0  0  0  0  0
    5.6763  -13.1548    3.1633 H   0  0  0  0  0  0  0  0  0  0  0  0
    4.8839  -11.3797    4.3563 H   0  0  0  0  0  0  0  0  0  0  0  0
    5.2699   -9.8379    1.9379 H   0  0  0  0  0  0  0  0  0  0  0  0
    3.0713   -9.0394    2.0145 H   0  0  0  0  0  0  0  0  0  0  0  0
    2.5853   -8.2278    4.4293 H   0  0  0  0  0  0  0  0  0  0  0  0
    3.0329  -11.2178    5.0998 H   0  0  0  0  0  0  0  0  0  0  0  0
   -0.0635   -8.4007    3.0493 H   0  0  0  0  0  0  0  0  0  0  0  0
    0.2562   -7.8989    4.7051 H   0  0  0  0  0  0  0  0  0  0  0  0
   -0.9168   -9.1628    4.3853 H   0  0  0  0  0  0  0  0  0  0  0  0
    0.6555  -10.8134    2.3108 H   0  0  0  0  0  0  0  0  0  0  0  0
   -0.1568  -11.4525    3.7213 H   0  0  0  0  0  0  0  0  0  0  0  0
    1.5303  -11.8470    3.4308 H   0  0  0  0  0  0  0  0  0  0  0  0
    3.1122   -8.8761    6.9971 H   0  0  0  0  0  0  0  0  0  0  0  0
    5.2545   -9.3880    8.8079 H   0  0  0  0  0  0  0  0  0  0  0  0
    4.6202  -10.8713    9.5054 H   0  0  0  0  0  0  0  0  0  0  0  0
    3.5286   -9.5397    9.1474 H   0  0  0  0  0  0  0  0  0  0  0  0
    5.7645  -12.0087    7.8272 H   0  0  0  0  0  0  0  0  0  0  0  0
    5.0260  -12.2079    6.2808 H   0  0  0  0  0  0  0  0  0  0  0  0
    6.9578   -9.9740    7.1428 H   0  0  0  0  0  0  0  0  0  0  0  0
    7.3235  -11.2485    6.0149 H   0  0  0  0  0  0  0  0  0  0  0  0
    7.6473   -8.3329    5.6618 H   0  0  0  0  0  0  0  0  0  0  0  0
    9.0639   -8.6742    3.8313 H   0  0  0  0  0  0  0  0  0  0  0  0
    7.8139   -9.4169    2.8264 H   0  0  0  0  0  0  0  0  0  0  0  0
    8.9270   -6.8335    1.2111 H   0  0  0  0  0  0  0  0  0  0  0  0
    6.7963   -5.3063    0.6659 H   0  0  0  0  0  0  0  0  0  0  0  0
    7.8521   -4.4143    1.7882 H   0  0  0  0  0  0  0  0  0  0  0  0
    4.1887   -6.7262    5.3355 H   0  0  0  0  0  0  0  0  0  0  0  0
    3.4055  -11.2860    7.5420 H   0  0  0  0  0  0  0  0  0  0  0  0
  1  2  1  0
  1 30  1  0
  1 31  1  0
  1 32  1  0
  2  3  1  0
  3 17  1  0
  3  4  1  0
  3 33  1  1
  4  5  2  3
  4 34  1  0
  5  6  1  0
  5 35  1  0
  6  9  1  0
  6  7  1  0
  6 36  1  1
  7  8  1  0
  7 12  1  0
  7 37  1  6
  8  9  1  0
  9 10  1  0
  9 11  1  0
 10 38  1  0
 10 39  1  0
 10 40  1  0
 11 41  1  0
 11 42  1  0
 11 43  1  0
 12 29  1  0
 12 13  1  0
 12 44  1  1
 13 14  1  0
 13 15  1  0
 13 59  1  1
 14 45  1  0
 14 46  1  0
 14 47  1  0
 15 16  1  0
 15 48  1  0
 15 49  1  0
 17 16  1  1
 16 50  1  0
 16 51  1  0
 17 29  1  0
 17 18  1  0
 18 19  1  0
 18 52  1  1
 18 26  1  0
 19 53  1  0
 19 54  1  0
 19 20  1  0
 20 25  1  0
 20 21  2  0
 21 22  1  0
 21 55  1  0
 22 23  1  0
 22 56  1  0
 22 57  1  0
 23 25  1  0
 23 24  2  0
 25 26  2  0
 26 27  1  0
 27 29  1  0
 27 28  1  0
 27 58  1  1
 29 28  1  1
M  CHG  1  13   1
M  END
>  <i_m_ct_stereo_status>  (320) 
1

>  <s_m_source_file>  (320) 
/var/tmp/pbs.5076255.sched01/tmpos3i1bch/920fm1no0n.sdf

>  <i_m_source_file_index>  (320) 
45

>  <i_lp_mmshare_version>  (320) 
48012

>  <i_f3d_flags>  (320) 
0

>  <s_epik_input>  (320) 
W0NIM11PW0NAQEhdMS9bQ0hdPVtDSF1cW0NAQEhdKEMoTzIpKFtDSDNdKVtDSDNdKVtDQEhdMltDQEBIXShOKFtDSDNdKVtDSDJdW0NIMl0zKVtDQEBdNChbQ0BdMTM1KVtDQEBIXShPNClDNj1DN0MoW0NIMl1bQ0BIXTU2KT1bQ0hdW0NIXT1DN1tPSF0=

>  <s_epik_cmdline>  (320) 
J2VwaWtfcHl0aG9uJywgJy1waHQnLCAnMi4wJywgJy1waCcsICc3LjAnLCAnLXRuJywgJzgnLCAnLW1hJywgJzIwMCcsICctaW1hZScsICc8aW5maWxlLm1hZT4nLCAnLW9tYWUnLCAnPG91dGZpbGUubWFlPic=

>  <r_lp_tautomer_probability>  (320) 
0.0485

>  <r_epik_Ionization_Penalty>  (320) 
0.52474

>  <r_epik_Ionization_Penalty_Charging>  (320) 
0.52474

>  <r_epik_Ionization_Penalty_Neutral>  (320) 
1.00511e-13

>  <r_epik_State_Penalty>  (320) 
2.41064

>  <r_epik_Charging_Adjusted_Penalty>  (320) 
2.93538

>  <i_epik_Tot_Q>  (320) 
1

>  <i_epik_Tot_abs_Q>  (320) 
1

>  <s_lp_Force_Field>  (320) 
OPLS3e

>  <r_lp_Energy>  (320) 
48.0039

>  <b_lp_Chiralities_Consistent>  (320) 
1

>  <s_lp_Variant>  (320) 
92:0-7

>  <s_i_glide_gridfile>  (320) 
pfpi4k_grid

>  <i_i_glide_lignum>  (320) 
45

>  <i_i_glide_rotatable_bonds>  (320) 
1

>  <r_i_docking_score>  (320) 
-2.36793

>  <r_i_glide_ligand_efficiency>  (320) 
-0.0816526

>  <r_i_glide_ligand_efficiency_sa>  (320) 
-0.250863

>  <r_i_glide_ligand_efficiency_ln>  (320) 
-0.542195

>  <r_i_glide_gscore>  (320) 
-2.36793

>  <r_i_glide_lipo>  (320) 
-0.222984

>  <r_i_glide_hbond>  (320) 
-0.0521604

>  <r_i_glide_metal>  (320) 
-0

>  <r_i_glide_rewards>  (320) 
-0.735117

>  <r_i_glide_evdw>  (320) 
-16.5422

>  <r_i_glide_ecoul>  (320) 
-3.17819

>  <r_i_glide_erotb>  (320) 
0

>  <r_i_glide_esite>  (320) 
-0.0538239

>  <r_i_glide_emodel>  (320) 
-24.7572

>  <r_i_glide_energy>  (320) 
-19.7204

>  <r_i_glide_einternal>  (320) 
0.000831255

>  <r_i_glide_intrahb_reward>  (320) 
-0

>  <i_i_glide_confnum>  (320) 
2

>  <i_i_glide_posenum>  (320) 
3

>  <r_i_glide_eff_state_penalty>  (320) 
0

>  <ligand_id>  (320) 
92

>  <original_smiles>  (320) 
COC1C=CC2C(OC2(C)C)C2N(C)CCC13C1CC4=CC=C(O)C4=C1C1OC123

>  <smiles>  (320) 
[H]C1=C2C(=C3C4([H])OC45C4(C([H])(OC([H])([H])[H])C([H])=C([H])C6([H])C([H])(OC6(C([H])([H])[H])C([H])([H])[H])C5([H])[N+]([H])(C([H])([H])[H])C([H])([H])C4([H])[H])C3([H])C2([H])[H])C(=O)C1([H])[H]

$$$$
92:6:2
     RDKit          3D

 59 65  0  0  1  0  0  0  0  0999 V2000
    4.7553   -6.0543    0.4739 C   0  0  0  0  0  0  0  0  0  0  0  0
    5.1704   -6.5926    1.7240 O   0  0  0  0  0  0  0  0  0  0  0  0
    4.1578   -7.2524    2.4803 C   0  0  2  0  0  0  0  0  0  0  0  0
    3.0736   -6.2826    2.9508 C   0  0  0  0  0  0  0  0  0  0  0  0
    1.8153   -6.5719    3.3482 C   0  0  0  0  0  0  0  0  0  0  0  0
    1.2252   -7.9386    3.6562 C   0  0  2  0  0  0  0  0  0  0  0  0
    1.7985   -9.1691    2.9613 C   0  0  2  0  0  0  0  0  0  0  0  0
    0.4610   -9.7367    2.9578 O   0  0  0  0  0  0  0  0  0  0  0  0
   -0.1078   -8.3890    3.0737 C   0  0  0  0  0  0  0  0  0  0  0  0
   -1.2964   -8.4319    4.0351 C   0  0  0  0  0  0  0  0  0  0  0  0
   -0.5599   -7.8662    1.7017 C   0  0  0  0  0  0  0  0  0  0  0  0
    2.8869   -9.9257    3.7446 C   0  0  1  0  0  0  0  0  0  0  0  0
    3.6801  -10.8795    2.9044 N   0  0  2  0  0  0  0  0  0  0  0  0
    4.1611  -12.0551    3.6743 C   0  0  0  0  0  0  0  0  0  0  0  0
    4.7804  -10.2605    2.0970 C   0  0  0  0  0  0  0  0  0  0  0  0
    5.6692   -9.2657    2.8886 C   0  0  0  0  0  0  0  0  0  0  0  0
    4.8292   -8.1689    3.5728 C   0  0  1  0  0  0  0  0  0  0  0  0
    5.6348   -7.3589    4.6533 C   0  0  1  0  0  0  0  0  0  0  0  0
    6.2804   -5.9310    4.4759 C   0  0  0  0  0  0  0  0  0  0  0  0
    5.6942   -5.2249    5.6797 C   0  0  0  0  0  0  0  0  0  0  0  0
    5.8044   -4.0205    6.2489 C   0  0  0  0  0  0  0  0  0  0  0  0
    4.8272   -3.8601    7.4197 C   0  0  0  0  0  0  0  0  0  0  0  0
    4.0977   -5.2178    7.3800 C   0  0  0  0  0  0  0  0  0  0  0  0
    3.1580   -5.5291    8.1086 O   0  0  0  0  0  0  0  0  0  0  0  0
    4.7323   -5.9952    6.3345 C   0  0  0  0  0  0  0  0  0  0  0  0
    4.6320   -7.1932    5.7762 C   0  0  0  0  0  0  0  0  0  0  0  0
    3.7545   -8.3617    5.8491 C   0  0  2  0  0  0  0  0  0  0  0  0
    4.4072   -9.6127    5.6231 O   0  0  0  0  0  0  0  0  0  0  0  0
    3.8403   -8.9627    4.4690 C   0  0  1  0  0  0  0  0  0  0  0  0
    5.6157   -5.6186   -0.0317 H   0  0  0  0  0  0  0  0  0  0  0  0
    4.0111   -5.2664    0.5883 H   0  0  0  0  0  0  0  0  0  0  0  0
    4.3486   -6.8265   -0.1788 H   0  0  0  0  0  0  0  0  0  0  0  0
    3.6747   -7.8648    1.7344 H   0  0  0  0  0  0  0  0  0  0  0  0
    3.3487   -5.2380    2.9123 H   0  0  0  0  0  0  0  0  0  0  0  0
    1.1712   -5.7462    3.6114 H   0  0  0  0  0  0  0  0  0  0  0  0
    1.1985   -8.0732    4.7357 H   0  0  0  0  0  0  0  0  0  0  0  0
    2.0576   -9.0128    1.9160 H   0  0  0  0  0  0  0  0  0  0  0  0
   -1.6755   -7.4305    4.2398 H   0  0  0  0  0  0  0  0  0  0  0  0
   -1.0128   -8.8729    4.9915 H   0  0  0  0  0  0  0  0  0  0  0  0
   -2.1216   -9.0283    3.6451 H   0  0  0  0  0  0  0  0  0  0  0  0
   -0.9385   -6.8481    1.7734 H   0  0  0  0  0  0  0  0  0  0  0  0
   -1.3662   -8.4778    1.2953 H   0  0  0  0  0  0  0  0  0  0  0  0
    0.2462   -7.8578    0.9670 H   0  0  0  0  0  0  0  0  0  0  0  0
    2.3755  -10.4948    4.5256 H   0  0  0  0  0  0  0  0  0  0  0  0
    4.9263  -11.7751    4.3996 H   0  0  0  0  0  0  0  0  0  0  0  0
    4.5955  -12.7972    3.0016 H   0  0  0  0  0  0  0  0  0  0  0  0
    3.3456  -12.5432    4.2147 H   0  0  0  0  0  0  0  0  0  0  0  0
    5.4239  -11.0447    1.6953 H   0  0  0  0  0  0  0  0  0  0  0  0
    4.3459   -9.7868    1.2179 H   0  0  0  0  0  0  0  0  0  0  0  0
    6.2254   -9.8274    3.6457 H   0  0  0  0  0  0  0  0  0  0  0  0
    6.4230   -8.8256    2.2353 H   0  0  0  0  0  0  0  0  0  0  0  0
    6.4004   -8.0142    5.0717 H   0  0  0  0  0  0  0  0  0  0  0  0
    7.3679   -5.9644    4.5232 H   0  0  0  0  0  0  0  0  0  0  0  0
    5.9839   -5.3976    3.5777 H   0  0  0  0  0  0  0  0  0  0  0  0
    6.4623   -3.2267    5.9311 H   0  0  0  0  0  0  0  0  0  0  0  0
    4.1406   -3.0276    7.2582 H   0  0  0  0  0  0  0  0  0  0  0  0
    5.3549   -3.7215    8.3635 H   0  0  0  0  0  0  0  0  0  0  0  0
    2.8432   -8.3488    6.4435 H   0  0  0  0  0  0  0  0  0  0  0  0
    3.0418  -11.2805    2.2316 H   0  0  0  0  0  0  0  0  0  0  0  0
  1  2  1  0
  1 30  1  0
  1 31  1  0
  1 32  1  0
  2  3  1  0
  3 17  1  0
  3  4  1  0
  3 33  1  6
  4  5  2  3
  4 34  1  0
  5  6  1  0
  5 35  1  0
  6  9  1  0
  6  7  1  0
  6 36  1  1
  7  8  1  0
  7 12  1  0
  7 37  1  6
  8  9  1  0
  9 10  1  0
  9 11  1  0
 10 38  1  0
 10 39  1  0
 10 40  1  0
 11 41  1  0
 11 42  1  0
 11 43  1  0
 12 29  1  0
 12 13  1  0
 12 44  1  1
 13 14  1  0
 13 15  1  0
 13 59  1  6
 14 45  1  0
 14 46  1  0
 14 47  1  0
 15 16  1  0
 15 48  1  0
 15 49  1  0
 17 16  1  6
 16 50  1  0
 16 51  1  0
 17 29  1  0
 17 18  1  0
 18 19  1  0
 18 52  1  1
 18 26  1  0
 19 53  1  0
 19 54  1  0
 19 20  1  0
 20 25  1  0
 20 21  2  0
 21 22  1  0
 21 55  1  0
 22 23  1  0
 22 56  1  0
 22 57  1  0
 23 25  1  0
 23 24  2  0
 25 26  2  0
 26 27  1  0
 27 29  1  0
 27 28  1  0
 27 58  1  1
 29 28  1  1
M  CHG  1  13   1
M  END
>  <i_m_ct_stereo_status>  (321) 
1

>  <s_m_source_file>  (321) 
/var/tmp/pbs.5076255.sched01/tmpos3i1bch/920fm1no0n.sdf

>  <i_m_source_file_index>  (321) 
45

>  <i_lp_mmshare_version>  (321) 
48012

>  <i_f3d_flags>  (321) 
0

>  <s_epik_input>  (321) 
W0NIM11PW0NAQEhdMS9bQ0hdPVtDSF1cW0NAQEhdKEMoTzIpKFtDSDNdKVtDSDNdKVtDQEhdMltDQEBIXShOKFtDSDNdKVtDSDJdW0NIMl0zKVtDQEBdNChbQ0BdMTM1KVtDQEBIXShPNClDNj1DN0MoW0NIMl1bQ0BIXTU2KT1bQ0hdW0NIXT1DN1tPSF0=

>  <s_epik_cmdline>  (321) 
J2VwaWtfcHl0aG9uJywgJy1waHQnLCAnMi4wJywgJy1waCcsICc3LjAnLCAnLXRuJywgJzgnLCAnLW1hJywgJzIwMCcsICctaW1hZScsICc8aW5maWxlLm1hZT4nLCAnLW9tYWUnLCAnPG91dGZpbGUubWFlPic=

>  <r_lp_tautomer_probability>  (321) 
0.0485

>  <r_epik_Ionization_Penalty>  (321) 
0.52474

>  <r_epik_Ionization_Penalty_Charging>  (321) 
0.52474

>  <r_epik_Ionization_Penalty_Neutral>  (321) 
1.00511e-13

>  <r_epik_State_Penalty>  (321) 
2.41064

>  <r_epik_Charging_Adjusted_Penalty>  (321) 
2.93538

>  <i_epik_Tot_Q>  (321) 
1

>  <i_epik_Tot_abs_Q>  (321) 
1

>  <s_lp_Force_Field>  (321) 
OPLS3e

>  <r_lp_Energy>  (321) 
48.0039

>  <b_lp_Chiralities_Consistent>  (321) 
1

>  <s_lp_Variant>  (321) 
92:0-7

>  <s_i_glide_gridfile>  (321) 
pfpi4k_grid

>  <i_i_glide_lignum>  (321) 
45

>  <i_i_glide_rotatable_bonds>  (321) 
1

>  <r_i_docking_score>  (321) 
-2.24362

>  <r_i_glide_ligand_efficiency>  (321) 
-0.0773662

>  <r_i_glide_ligand_efficiency_sa>  (321) 
-0.237694

>  <r_i_glide_ligand_efficiency_ln>  (321) 
-0.513732

>  <r_i_glide_gscore>  (321) 
-2.24362

>  <r_i_glide_lipo>  (321) 
-0.13924

>  <r_i_glide_hbond>  (321) 
-0.0146342

>  <r_i_glide_metal>  (321) 
-0

>  <r_i_glide_rewards>  (321) 
-0.705687

>  <r_i_glide_evdw>  (321) 
-18.3319

>  <r_i_glide_ecoul>  (321) 
-2.65219

>  <r_i_glide_erotb>  (321) 
0

>  <r_i_glide_esite>  (321) 
-0.0696361

>  <r_i_glide_emodel>  (321) 
-25.7442

>  <r_i_glide_energy>  (321) 
-20.9841

>  <r_i_glide_einternal>  (321) 
0.0212986

>  <r_i_glide_intrahb_reward>  (321) 
-0

>  <i_i_glide_confnum>  (321) 
1

>  <i_i_glide_posenum>  (321) 
5

>  <r_i_glide_eff_state_penalty>  (321) 
0

>  <ligand_id>  (321) 
92

>  <original_smiles>  (321) 
COC1C=CC2C(OC2(C)C)C2N(C)CCC13C1CC4=CC=C(O)C4=C1C1OC123

>  <smiles>  (321) 
[H]C1=C2C(=C3C4([H])OC45C4(C([H])(OC([H])([H])[H])C([H])=C([H])C6([H])C([H])(OC6(C([H])([H])[H])C([H])([H])[H])C5([H])[N+]([H])(C([H])([H])[H])C([H])([H])C4([H])[H])C3([H])C2([H])[H])C(=O)C1([H])[H]

$$$$
92:7:0
     RDKit          3D

 59 65  0  0  1  0  0  0  0  0999 V2000
    5.8089   -5.9687    5.2622 C   0  0  0  0  0  0  0  0  0  0  0  0
    4.7478   -5.8305    6.2152 O   0  0  0  0  0  0  0  0  0  0  0  0
    3.5329   -6.5244    5.9337 C   0  0  2  0  0  0  0  0  0  0  0  0
    2.8701   -5.9721    4.6709 C   0  0  0  0  0  0  0  0  0  0  0  0
    2.5250   -6.7728    3.6222 C   0  0  0  0  0  0  0  0  0  0  0  0
    1.2536   -7.5934    3.8836 C   0  0  2  0  0  0  0  0  0  0  0  0
    1.4509   -8.7497    4.8691 C   0  0  2  0  0  0  0  0  0  0  0  0
    0.5630   -9.5961    4.0592 O   0  0  0  0  0  0  0  0  0  0  0  0
    0.7826   -8.7115    2.9136 C   0  0  0  0  0  0  0  0  0  0  0  0
   -0.5292   -8.3637    2.1996 C   0  0  0  0  0  0  0  0  0  0  0  0
    1.8108   -9.2751    1.9363 C   0  0  0  0  0  0  0  0  0  0  0  0
    0.9904   -8.5199    6.3425 C   0  0  1  0  0  0  0  0  0  0  0  0
    1.6671   -9.4537    7.2836 N   0  0  2  0  0  0  0  0  0  0  0  0
    0.8074   -9.8283    8.4282 C   0  0  0  0  0  0  0  0  0  0  0  0
    3.0331   -9.0454    7.7235 C   0  0  0  0  0  0  0  0  0  0  0  0
    3.1291   -7.5648    8.2393 C   0  0  0  0  0  0  0  0  0  0  0  0
    2.5938   -6.5549    7.2079 C   0  0  1  0  0  0  0  0  0  0  0  0
    2.2811   -5.1304    7.8275 C   0  0  1  0  0  0  0  0  0  0  0  0
    3.1758   -3.8310    7.7822 C   0  0  0  0  0  0  0  0  0  0  0  0
    2.1420   -2.8180    7.3564 C   0  0  0  0  0  0  0  0  0  0  0  0
    2.0975   -1.4908    7.1785 C   0  0  0  0  0  0  0  0  0  0  0  0
    0.7460   -1.0538    6.5975 C   0  0  0  0  0  0  0  0  0  0  0  0
    0.0278   -2.4189    6.4503 C   0  0  0  0  0  0  0  0  0  0  0  0
   -1.0997   -2.5707    5.9872 O   0  0  0  0  0  0  0  0  0  0  0  0
    0.9390   -3.4035    6.9805 C   0  0  0  0  0  0  0  0  0  0  0  0
    0.9822   -4.7218    7.1692 C   0  0  0  0  0  0  0  0  0  0  0  0
    0.1731   -5.8987    6.8772 C   0  0  2  0  0  0  0  0  0  0  0  0
    0.1919   -6.8696    7.9377 O   0  0  0  0  0  0  0  0  0  0  0  0
    1.1565   -7.0598    6.8794 C   0  0  1  0  0  0  0  0  0  0  0  0
    6.7311   -5.4944    5.6183 H   0  0  0  0  0  0  0  0  0  0  0  0
    5.5636   -5.4981    4.3090 H   0  0  0  0  0  0  0  0  0  0  0  0
    6.0505   -7.0165    5.0779 H   0  0  0  0  0  0  0  0  0  0  0  0
    3.8726   -7.5326    5.6989 H   0  0  0  0  0  0  0  0  0  0  0  0
    2.2086   -5.1304    4.8431 H   0  0  0  0  0  0  0  0  0  0  0  0
    2.0326   -6.2920    2.8351 H   0  0  0  0  0  0  0  0  0  0  0  0
    0.3915   -6.9518    4.2163 H   0  0  0  0  0  0  0  0  0  0  0  0
    2.4633   -9.1669    4.8464 H   0  0  0  0  0  0  0  0  0  0  0  0
   -0.3798   -7.6154    1.4072 H   0  0  0  0  0  0  0  0  0  0  0  0
   -1.2827   -7.9618    2.8897 H   0  0  0  0  0  0  0  0  0  0  0  0
   -0.9413   -9.2481    1.7368 H   0  0  0  0  0  0  0  0  0  0  0  0
    2.0479   -8.5799    1.1279 H   0  0  0  0  0  0  0  0  0  0  0  0
    1.4101  -10.1532    1.4764 H   0  0  0  0  0  0  0  0  0  0  0  0
    2.7496   -9.5581    2.4066 H   0  0  0  0  0  0  0  0  0  0  0  0
   -0.1037   -8.7118    6.3627 H   0  0  0  0  0  0  0  0  0  0  0  0
    0.6563   -8.9795    9.1263 H   0  0  0  0  0  0  0  0  0  0  0  0
    1.2700  -10.6523    8.9962 H   0  0  0  0  0  0  0  0  0  0  0  0
   -0.1810  -10.1687    8.0588 H   0  0  0  0  0  0  0  0  0  0  0  0
    3.3718   -9.7109    8.5352 H   0  0  0  0  0  0  0  0  0  0  0  0
    3.7471   -9.2145    6.9012 H   0  0  0  0  0  0  0  0  0  0  0  0
    2.5435   -7.4821    9.1558 H   0  0  0  0  0  0  0  0  0  0  0  0
    4.1601   -7.3108    8.5044 H   0  0  0  0  0  0  0  0  0  0  0  0
    2.0213   -5.2923    8.8826 H   0  0  0  0  0  0  0  0  0  0  0  0
    3.6045   -3.5982    8.7519 H   0  0  0  0  0  0  0  0  0  0  0  0
    3.9668   -3.8312    7.0440 H   0  0  0  0  0  0  0  0  0  0  0  0
    2.8976   -0.7803    7.3682 H   0  0  0  0  0  0  0  0  0  0  0  0
    0.8615   -0.5516    5.6400 H   0  0  0  0  0  0  0  0  0  0  0  0
    0.2121   -0.4007    7.2800 H   0  0  0  0  0  0  0  0  0  0  0  0
   -0.7138   -5.8611    6.2266 H   0  0  0  0  0  0  0  0  0  0  0  0
    1.7742  -10.3289    6.7786 H   0  0  0  0  0  0  0  0  0  0  0  0
  1  2  1  0
  1 30  1  0
  1 31  1  0
  1 32  1  0
  2  3  1  0
  3 17  1  0
  3  4  1  0
  3 33  1  6
  4  5  2  3
  4 34  1  0
  5  6  1  0
  5 35  1  0
  6  9  1  0
  6  7  1  0
  6 36  1  1
  7  8  1  0
  7 12  1  0
  7 37  1  1
  8  9  1  0
  9 10  1  0
  9 11  1  0
 10 38  1  0
 10 39  1  0
 10 40  1  0
 11 41  1  0
 11 42  1  0
 11 43  1  0
 12 29  1  0
 12 13  1  0
 12 44  1  6
 13 14  1  0
 13 15  1  0
 13 59  1  6
 14 45  1  0
 14 46  1  0
 14 47  1  0
 15 16  1  0
 15 48  1  0
 15 49  1  0
 17 16  1  1
 16 50  1  0
 16 51  1  0
 17 29  1  0
 17 18  1  0
 18 19  1  0
 18 52  1  1
 18 26  1  0
 19 53  1  0
 19 54  1  0
 19 20  1  0
 20 25  1  0
 20 21  2  0
 21 22  1  0
 21 55  1  0
 22 23  1  0
 22 56  1  0
 22 57  1  0
 23 25  1  0
 23 24  2  0
 25 26  2  0
 26 27  1  0
 27 29  1  0
 27 28  1  0
 27 58  1  6
 29 28  1  1
M  CHG  1  13   1
M  END
>  <i_m_ct_stereo_status>  (322) 
1

>  <s_m_source_file>  (322) 
/var/tmp/pbs.5076255.sched01/tmpos3i1bch/920fm1no0n.sdf

>  <i_m_source_file_index>  (322) 
46

>  <i_lp_mmshare_version>  (322) 
48012

>  <i_f3d_flags>  (322) 
0

>  <s_epik_input>  (322) 
W0NIM11PW0NAQEhdMS9bQ0hdPVtDSF1cW0NAQEhdKEMoTzIpKFtDSDNdKVtDSDNdKVtDQEhdMltDQEBIXShOKFtDSDNdKVtDSDJdW0NIMl0zKVtDQEBdNChbQ0BdMTM1KVtDQEBIXShPNClDNj1DN0MoW0NIMl1bQ0BIXTU2KT1bQ0hdW0NIXT1DN1tPSF0=

>  <s_epik_cmdline>  (322) 
J2VwaWtfcHl0aG9uJywgJy1waHQnLCAnMi4wJywgJy1waCcsICc3LjAnLCAnLXRuJywgJzgnLCAnLW1hJywgJzIwMCcsICctaW1hZScsICc8aW5maWxlLm1hZT4nLCAnLW9tYWUnLCAnPG91dGZpbGUubWFlPic=

>  <r_lp_tautomer_probability>  (322) 
0.0485

>  <r_epik_Ionization_Penalty>  (322) 
0.52474

>  <r_epik_Ionization_Penalty_Charging>  (322) 
0.52474

>  <r_epik_Ionization_Penalty_Neutral>  (322) 
1.00511e-13

>  <r_epik_State_Penalty>  (322) 
2.41064

>  <r_epik_Charging_Adjusted_Penalty>  (322) 
2.93538

>  <i_epik_Tot_Q>  (322) 
1

>  <i_epik_Tot_abs_Q>  (322) 
1

>  <s_lp_Force_Field>  (322) 
OPLS3e

>  <r_lp_Energy>  (322) 
85.5668

>  <b_lp_Chiralities_Consistent>  (322) 
1

>  <s_lp_Variant>  (322) 
92:0-8

>  <s_i_glide_gridfile>  (322) 
pfpi4k_grid

>  <i_i_glide_lignum>  (322) 
46

>  <i_i_glide_rotatable_bonds>  (322) 
1

>  <r_i_docking_score>  (322) 
-0.447163

>  <r_i_glide_ligand_efficiency>  (322) 
-0.0154194

>  <r_i_glide_ligand_efficiency_sa>  (322) 
-0.0473733

>  <r_i_glide_ligand_efficiency_ln>  (322) 
-0.102389

>  <r_i_glide_gscore>  (322) 
-0.447163

>  <r_i_glide_lipo>  (322) 
-0.0690609

>  <r_i_glide_hbond>  (322) 
-0.0462587

>  <r_i_glide_metal>  (322) 
-0

>  <r_i_glide_rewards>  (322) 
-0.705687

>  <r_i_glide_evdw>  (322) 
-14.4238

>  <r_i_glide_ecoul>  (322) 
-3.67342

>  <r_i_glide_erotb>  (322) 
0

>  <r_i_glide_esite>  (322) 
-0.116826

>  <r_i_glide_emodel>  (322) 
-10.7336

>  <r_i_glide_energy>  (322) 
-18.0972

>  <r_i_glide_einternal>  (322) 
0.000225188

>  <r_i_glide_intrahb_reward>  (322) 
-0

>  <i_i_glide_confnum>  (322) 
1

>  <i_i_glide_posenum>  (322) 
15

>  <r_i_glide_eff_state_penalty>  (322) 
0

>  <ligand_id>  (322) 
92

>  <original_smiles>  (322) 
COC1C=CC2C(OC2(C)C)C2N(C)CCC13C1CC4=CC=C(O)C4=C1C1OC123

>  <smiles>  (322) 
[H]C1=C2C(=C3C4([H])OC45C4(C([H])(OC([H])([H])[H])C([H])=C([H])C6([H])C([H])(OC6(C([H])([H])[H])C([H])([H])[H])C5([H])[N+]([H])(C([H])([H])[H])C([H])([H])C4([H])[H])C3([H])C2([H])[H])C(=O)C1([H])[H]

$$$$
92:7:1
     RDKit          3D

 59 65  0  0  1  0  0  0  0  0999 V2000
    3.0545    4.4137    3.3094 C   0  0  0  0  0  0  0  0  0  0  0  0
    3.1773    3.6580    4.5233 O   0  0  0  0  0  0  0  0  0  0  0  0
    3.2398    2.2445    4.4240 C   0  0  2  0  0  0  0  0  0  0  0  0
    2.1879    1.7137    3.4528 C   0  0  0  0  0  0  0  0  0  0  0  0
    2.5139    0.9241    2.3943 C   0  0  0  0  0  0  0  0  0  0  0  0
    2.7730   -0.5262    2.7761 C   0  0  2  0  0  0  0  0  0  0  0  0
    4.0775   -0.7431    3.5462 C   0  0  2  0  0  0  0  0  0  0  0  0
    4.3077   -2.0298    2.8699 O   0  0  0  0  0  0  0  0  0  0  0  0
    3.3414   -1.6026    1.8342 C   0  0  0  0  0  0  0  0  0  0  0  0
    2.3272   -2.6954    1.5052 C   0  0  0  0  0  0  0  0  0  0  0  0
    4.0294   -1.0875    0.5746 C   0  0  0  0  0  0  0  0  0  0  0  0
    4.0176   -0.8458    5.1079 C   0  0  1  0  0  0  0  0  0  0  0  0
    5.3601   -0.5349    5.7271 N   0  0  2  0  0  0  0  0  0  0  0  0
    5.6057   -1.3180    6.9808 C   0  0  0  0  0  0  0  0  0  0  0  0
    5.6749    0.9313    5.9005 C   0  0  0  0  0  0  0  0  0  0  0  0
    4.5297    1.7437    6.5897 C   0  0  0  0  0  0  0  0  0  0  0  0
    3.1736    1.5828    5.8612 C   0  0  1  0  0  0  0  0  0  0  0  0
    1.9421    2.0374    6.7445 C   0  0  1  0  0  0  0  0  0  0  0  0
    1.1592    3.4018    6.6800 C   0  0  0  0  0  0  0  0  0  0  0  0
   -0.2614    2.8960    6.6529 C   0  0  0  0  0  0  0  0  0  0  0  0
   -1.4870    3.4318    6.6892 C   0  0  0  0  0  0  0  0  0  0  0  0
   -2.5623    2.3602    6.4932 C   0  0  0  0  0  0  0  0  0  0  0  0
   -1.7053    1.0802    6.3014 C   0  0  0  0  0  0  0  0  0  0  0  0
   -2.1383   -0.0303    6.0601 O   0  0  0  0  0  0  0  0  0  0  0  0
   -0.3357    1.5174    6.4789 C   0  0  0  0  0  0  0  0  0  0  0  0
    0.8853    0.9846    6.4550 C   0  0  0  0  0  0  0  0  0  0  0  0
    1.5179   -0.3071    6.1895 C   0  0  2  0  0  0  0  0  0  0  0  0
    2.6178   -0.5808    7.0649 O   0  0  0  0  0  0  0  0  0  0  0  0
    2.9474    0.0380    5.8056 C   0  0  1  0  0  0  0  0  0  0  0  0
    3.1597    5.4885    3.4895 H   0  0  0  0  0  0  0  0  0  0  0  0
    2.0728    4.2773    2.8485 H   0  0  0  0  0  0  0  0  0  0  0  0
    3.8037    4.1516    2.5733 H   0  0  0  0  0  0  0  0  0  0  0  0
    4.2215    2.0672    3.9661 H   0  0  0  0  0  0  0  0  0  0  0  0
    1.1834    1.5702    3.8652 H   0  0  0  0  0  0  0  0  0  0  0  0
    1.6889    0.5303    1.8467 H   0  0  0  0  0  0  0  0  0  0  0  0
    1.9066   -0.9131    3.3659 H   0  0  0  0  0  0  0  0  0  0  0  0
    4.8791   -0.0389    3.2449 H   0  0  0  0  0  0  0  0  0  0  0  0
    1.5558   -2.2922    0.8396 H   0  0  0  0  0  0  0  0  0  0  0  0
    1.8195   -3.0811    2.3969 H   0  0  0  0  0  0  0  0  0  0  0  0
    2.8272   -3.5104    0.9996 H   0  0  0  0  0  0  0  0  0  0  0  0
    3.3206   -0.6731   -0.1474 H   0  0  0  0  0  0  0  0  0  0  0  0
    4.5191   -1.9057    0.0817 H   0  0  0  0  0  0  0  0  0  0  0  0
    4.7793   -0.3173    0.7684 H   0  0  0  0  0  0  0  0  0  0  0  0
    3.7582   -1.8956    5.3619 H   0  0  0  0  0  0  0  0  0  0  0  0
    4.9568   -0.9574    7.8101 H   0  0  0  0  0  0  0  0  0  0  0  0
    6.6682   -1.2049    7.2770 H   0  0  0  0  0  0  0  0  0  0  0  0
    5.4017   -2.3957    6.8027 H   0  0  0  0  0  0  0  0  0  0  0  0
    6.5863    1.0236    6.5104 H   0  0  0  0  0  0  0  0  0  0  0  0
    5.9171    1.3749    4.9234 H   0  0  0  0  0  0  0  0  0  0  0  0
    4.4230    1.3881    7.6211 H   0  0  0  0  0  0  0  0  0  0  0  0
    4.7975    2.8014    6.6385 H   0  0  0  0  0  0  0  0  0  0  0  0
    2.2225    1.8802    7.7931 H   0  0  0  0  0  0  0  0  0  0  0  0
    1.3535    4.0227    7.5490 H   0  0  0  0  0  0  0  0  0  0  0  0
    1.3081    4.0036    5.7911 H   0  0  0  0  0  0  0  0  0  0  0  0
   -1.7309    4.4809    6.7941 H   0  0  0  0  0  0  0  0  0  0  0  0
   -3.1739    2.5603    5.6202 H   0  0  0  0  0  0  0  0  0  0  0  0
   -3.2092    2.2733    7.3591 H   0  0  0  0  0  0  0  0  0  0  0  0
    0.9631   -1.1541    5.7701 H   0  0  0  0  0  0  0  0  0  0  0  0
    6.0333   -0.8956    5.0569 H   0  0  0  0  0  0  0  0  0  0  0  0
  1  2  1  0
  1 30  1  0
  1 31  1  0
  1 32  1  0
  2  3  1  0
  3 17  1  0
  3  4  1  0
  3 33  1  6
  4  5  2  3
  4 34  1  0
  5  6  1  0
  5 35  1  0
  6  9  1  0
  6  7  1  0
  6 36  1  1
  7  8  1  0
  7 12  1  0
  7 37  1  1
  8  9  1  0
  9 10  1  0
  9 11  1  0
 10 38  1  0
 10 39  1  0
 10 40  1  0
 11 41  1  0
 11 42  1  0
 11 43  1  0
 12 29  1  0
 12 13  1  0
 12 44  1  6
 13 14  1  0
 13 15  1  0
 13 59  1  6
 14 45  1  0
 14 46  1  0
 14 47  1  0
 15 16  1  0
 15 48  1  0
 15 49  1  0
 17 16  1  1
 16 50  1  0
 16 51  1  0
 17 29  1  0
 17 18  1  0
 18 19  1  0
 18 52  1  1
 18 26  1  0
 19 53  1  0
 19 54  1  0
 19 20  1  0
 20 25  1  0
 20 21  2  0
 21 22  1  0
 21 55  1  0
 22 23  1  0
 22 56  1  0
 22 57  1  0
 23 25  1  0
 23 24  2  0
 25 26  2  0
 26 27  1  0
 27 29  1  0
 27 28  1  0
 27 58  1  6
 29 28  1  1
M  CHG  1  13   1
M  END
>  <i_m_ct_stereo_status>  (323) 
1

>  <s_m_source_file>  (323) 
/var/tmp/pbs.5076255.sched01/tmpos3i1bch/920fm1no0n.sdf

>  <i_m_source_file_index>  (323) 
46

>  <i_lp_mmshare_version>  (323) 
48012

>  <i_f3d_flags>  (323) 
0

>  <s_epik_input>  (323) 
W0NIM11PW0NAQEhdMS9bQ0hdPVtDSF1cW0NAQEhdKEMoTzIpKFtDSDNdKVtDSDNdKVtDQEhdMltDQEBIXShOKFtDSDNdKVtDSDJdW0NIMl0zKVtDQEBdNChbQ0BdMTM1KVtDQEBIXShPNClDNj1DN0MoW0NIMl1bQ0BIXTU2KT1bQ0hdW0NIXT1DN1tPSF0=

>  <s_epik_cmdline>  (323) 
J2VwaWtfcHl0aG9uJywgJy1waHQnLCAnMi4wJywgJy1waCcsICc3LjAnLCAnLXRuJywgJzgnLCAnLW1hJywgJzIwMCcsICctaW1hZScsICc8aW5maWxlLm1hZT4nLCAnLW9tYWUnLCAnPG91dGZpbGUubWFlPic=

>  <r_lp_tautomer_probability>  (323) 
0.0485

>  <r_epik_Ionization_Penalty>  (323) 
0.52474

>  <r_epik_Ionization_Penalty_Charging>  (323) 
0.52474

>  <r_epik_Ionization_Penalty_Neutral>  (323) 
1.00511e-13

>  <r_epik_State_Penalty>  (323) 
2.41064

>  <r_epik_Charging_Adjusted_Penalty>  (323) 
2.93538

>  <i_epik_Tot_Q>  (323) 
1

>  <i_epik_Tot_abs_Q>  (323) 
1

>  <s_lp_Force_Field>  (323) 
OPLS3e

>  <r_lp_Energy>  (323) 
85.5668

>  <b_lp_Chiralities_Consistent>  (323) 
1

>  <s_lp_Variant>  (323) 
92:0-8

>  <s_i_glide_gridfile>  (323) 
pfpi4k_grid

>  <i_i_glide_lignum>  (323) 
46

>  <i_i_glide_rotatable_bonds>  (323) 
1

>  <r_i_docking_score>  (323) 
-0.342222

>  <r_i_glide_ligand_efficiency>  (323) 
-0.0118008

>  <r_i_glide_ligand_efficiency_sa>  (323) 
-0.0362557

>  <r_i_glide_ligand_efficiency_ln>  (323) 
-0.0783601

>  <r_i_glide_gscore>  (323) 
-0.342222

>  <r_i_glide_lipo>  (323) 
-0.30848

>  <r_i_glide_hbond>  (323) 
-0.16

>  <r_i_glide_metal>  (323) 
-0

>  <r_i_glide_rewards>  (323) 
-0.705687

>  <r_i_glide_evdw>  (323) 
-17.0928

>  <r_i_glide_ecoul>  (323) 
-3.44609

>  <r_i_glide_erotb>  (323) 
0

>  <r_i_glide_esite>  (323) 
-0.0541627

>  <r_i_glide_emodel>  (323) 
-11.2538

>  <r_i_glide_energy>  (323) 
-20.5389

>  <r_i_glide_einternal>  (323) 
1.1859

>  <r_i_glide_intrahb_reward>  (323) 
-0

>  <i_i_glide_confnum>  (323) 
2

>  <i_i_glide_posenum>  (323) 
4

>  <r_i_glide_eff_state_penalty>  (323) 
0

>  <ligand_id>  (323) 
92

>  <original_smiles>  (323) 
COC1C=CC2C(OC2(C)C)C2N(C)CCC13C1CC4=CC=C(O)C4=C1C1OC123

>  <smiles>  (323) 
[H]C1=C2C(=C3C4([H])OC45C4(C([H])(OC([H])([H])[H])C([H])=C([H])C6([H])C([H])(OC6(C([H])([H])[H])C([H])([H])[H])C5([H])[N+]([H])(C([H])([H])[H])C([H])([H])C4([H])[H])C3([H])C2([H])[H])C(=O)C1([H])[H]

$$$$
92:7:2
     RDKit          3D

 59 65  0  0  1  0  0  0  0  0999 V2000
   -1.3478   -8.3301    2.4749 C   0  0  0  0  0  0  0  0  0  0  0  0
   -0.0499   -8.7180    2.9265 O   0  0  0  0  0  0  0  0  0  0  0  0
    0.4295   -8.0892    4.1119 C   0  0  2  0  0  0  0  0  0  0  0  0
    0.7885   -6.6383    3.8516 C   0  0  0  0  0  0  0  0  0  0  0  0
    0.2671   -5.6278    4.6271 C   0  0  0  0  0  0  0  0  0  0  0  0
    0.9050   -5.4750    5.9884 C   0  0  2  0  0  0  0  0  0  0  0  0
    0.5016   -6.5712    6.9699 C   0  0  2  0  0  0  0  0  0  0  0  0
    0.4335   -5.6002    8.0652 O   0  0  0  0  0  0  0  0  0  0  0  0
    0.3464   -4.5162    7.0614 C   0  0  0  0  0  0  0  0  0  0  0  0
    1.2921   -3.3569    7.3957 C   0  0  0  0  0  0  0  0  0  0  0  0
   -1.0925   -4.0188    6.9004 C   0  0  0  0  0  0  0  0  0  0  0  0
    1.4974   -7.7535    7.1739 C   0  0  1  0  0  0  0  0  0  0  0  0
    0.7936   -8.9710    7.7188 N   0  0  2  0  0  0  0  0  0  0  0  0
    1.6569   -9.7722    8.6395 C   0  0  0  0  0  0  0  0  0  0  0  0
    0.0987   -9.8330    6.6967 C   0  0  0  0  0  0  0  0  0  0  0  0
    0.9900  -10.1983    5.4660 C   0  0  0  0  0  0  0  0  0  0  0  0
    1.5867   -8.9451    4.7805 C   0  0  1  0  0  0  0  0  0  0  0  0
    2.7984   -9.2857    3.8262 C   0  0  1  0  0  0  0  0  0  0  0  0
    2.7803   -9.4260    2.2574 C   0  0  0  0  0  0  0  0  0  0  0  0
    3.9666   -8.5706    1.8907 C   0  0  0  0  0  0  0  0  0  0  0  0
    4.6430   -8.2581    0.7824 C   0  0  0  0  0  0  0  0  0  0  0  0
    5.7161   -7.2006    1.0711 C   0  0  0  0  0  0  0  0  0  0  0  0
    5.4960   -6.9334    2.5782 C   0  0  0  0  0  0  0  0  0  0  0  0
    6.0967   -6.1014    3.2504 O   0  0  0  0  0  0  0  0  0  0  0  0
    4.4587   -7.8485    2.9896 C   0  0  0  0  0  0  0  0  0  0  0  0
    3.7933   -8.1690    4.0911 C   0  0  0  0  0  0  0  0  0  0  0  0
    3.6886   -7.7167    5.4863 C   0  0  2  0  0  0  0  0  0  0  0  0
    3.5312   -8.8004    6.3987 O   0  0  0  0  0  0  0  0  0  0  0  0
    2.3158   -8.1829    5.9326 C   0  0  1  0  0  0  0  0  0  0  0  0
   -1.6651   -8.9363    1.6211 H   0  0  0  0  0  0  0  0  0  0  0  0
   -1.3689   -7.2887    2.1518 H   0  0  0  0  0  0  0  0  0  0  0  0
   -2.1020   -8.4676    3.2515 H   0  0  0  0  0  0  0  0  0  0  0  0
   -0.4379   -8.0931    4.7742 H   0  0  0  0  0  0  0  0  0  0  0  0
    1.8098   -6.4788    3.5410 H   0  0  0  0  0  0  0  0  0  0  0  0
    0.6604   -4.6731    4.4278 H   0  0  0  0  0  0  0  0  0  0  0  0
    2.0135   -5.4134    5.9308 H   0  0  0  0  0  0  0  0  0  0  0  0
   -0.5142   -6.9558    6.7772 H   0  0  0  0  0  0  0  0  0  0  0  0
    1.3017   -2.6089    6.5953 H   0  0  0  0  0  0  0  0  0  0  0  0
    2.3240   -3.6985    7.5321 H   0  0  0  0  0  0  0  0  0  0  0  0
    0.9772   -2.8623    8.3086 H   0  0  0  0  0  0  0  0  0  0  0  0
   -1.1842   -3.2921    6.0929 H   0  0  0  0  0  0  0  0  0  0  0  0
   -1.4117   -3.5240    7.8058 H   0  0  0  0  0  0  0  0  0  0  0  0
   -1.8027   -4.8225    6.6998 H   0  0  0  0  0  0  0  0  0  0  0  0
    2.2346   -7.4209    7.9271 H   0  0  0  0  0  0  0  0  0  0  0  0
    2.4572  -10.2747    8.0744 H   0  0  0  0  0  0  0  0  0  0  0  0
    1.0423  -10.5265    9.1538 H   0  0  0  0  0  0  0  0  0  0  0  0
    2.1115   -9.1183    9.3975 H   0  0  0  0  0  0  0  0  0  0  0  0
   -0.2335  -10.7589    7.1788 H   0  0  0  0  0  0  0  0  0  0  0  0
   -0.8227   -9.3343    6.3787 H   0  0  0  0  0  0  0  0  0  0  0  0
    1.8115  -10.8378    5.8137 H   0  0  0  0  0  0  0  0  0  0  0  0
    0.4253  -10.7873    4.7433 H   0  0  0  0  0  0  0  0  0  0  0  0
    3.2800  -10.1876    4.2148 H   0  0  0  0  0  0  0  0  0  0  0  0
    2.9115  -10.4584    1.9433 H   0  0  0  0  0  0  0  0  0  0  0  0
    1.9072   -9.0239    1.7553 H   0  0  0  0  0  0  0  0  0  0  0  0
    4.4673   -8.6469   -0.2114 H   0  0  0  0  0  0  0  0  0  0  0  0
    5.5653   -6.3025    0.4805 H   0  0  0  0  0  0  0  0  0  0  0  0
    6.7145   -7.5815    0.8825 H   0  0  0  0  0  0  0  0  0  0  0  0
    4.1641   -6.8008    5.8471 H   0  0  0  0  0  0  0  0  0  0  0  0
    0.0576   -8.5962    8.3148 H   0  0  0  0  0  0  0  0  0  0  0  0
  1  2  1  0
  1 30  1  0
  1 31  1  0
  1 32  1  0
  2  3  1  0
  3 17  1  0
  3  4  1  0
  3 33  1  1
  4  5  2  3
  4 34  1  0
  5  6  1  0
  5 35  1  0
  6  9  1  0
  6  7  1  0
  6 36  1  6
  7  8  1  0
  7 12  1  0
  7 37  1  6
  8  9  1  0
  9 10  1  0
  9 11  1  0
 10 38  1  0
 10 39  1  0
 10 40  1  0
 11 41  1  0
 11 42  1  0
 11 43  1  0
 12 29  1  0
 12 13  1  0
 12 44  1  1
 13 14  1  0
 13 15  1  0
 13 59  1  1
 14 45  1  0
 14 46  1  0
 14 47  1  0
 15 16  1  0
 15 48  1  0
 15 49  1  0
 17 16  1  1
 16 50  1  0
 16 51  1  0
 17 29  1  0
 17 18  1  0
 18 19  1  0
 18 52  1  1
 18 26  1  0
 19 53  1  0
 19 54  1  0
 19 20  1  0
 20 25  1  0
 20 21  2  0
 21 22  1  0
 21 55  1  0
 22 23  1  0
 22 56  1  0
 22 57  1  0
 23 25  1  0
 23 24  2  0
 25 26  2  0
 26 27  1  0
 27 29  1  0
 27 28  1  0
 27 58  1  1
 29 28  1  1
M  CHG  1  13   1
M  END
>  <i_m_ct_stereo_status>  (324) 
1

>  <s_m_source_file>  (324) 
/var/tmp/pbs.5076255.sched01/tmpos3i1bch/920fm1no0n.sdf

>  <i_m_source_file_index>  (324) 
46

>  <i_lp_mmshare_version>  (324) 
48012

>  <i_f3d_flags>  (324) 
0

>  <s_epik_input>  (324) 
W0NIM11PW0NAQEhdMS9bQ0hdPVtDSF1cW0NAQEhdKEMoTzIpKFtDSDNdKVtDSDNdKVtDQEhdMltDQEBIXShOKFtDSDNdKVtDSDJdW0NIMl0zKVtDQEBdNChbQ0BdMTM1KVtDQEBIXShPNClDNj1DN0MoW0NIMl1bQ0BIXTU2KT1bQ0hdW0NIXT1DN1tPSF0=

>  <s_epik_cmdline>  (324) 
J2VwaWtfcHl0aG9uJywgJy1waHQnLCAnMi4wJywgJy1waCcsICc3LjAnLCAnLXRuJywgJzgnLCAnLW1hJywgJzIwMCcsICctaW1hZScsICc8aW5maWxlLm1hZT4nLCAnLW9tYWUnLCAnPG91dGZpbGUubWFlPic=

>  <r_lp_tautomer_probability>  (324) 
0.0485

>  <r_epik_Ionization_Penalty>  (324) 
0.52474

>  <r_epik_Ionization_Penalty_Charging>  (324) 
0.52474

>  <r_epik_Ionization_Penalty_Neutral>  (324) 
1.00511e-13

>  <r_epik_State_Penalty>  (324) 
2.41064

>  <r_epik_Charging_Adjusted_Penalty>  (324) 
2.93538

>  <i_epik_Tot_Q>  (324) 
1

>  <i_epik_Tot_abs_Q>  (324) 
1

>  <s_lp_Force_Field>  (324) 
OPLS3e

>  <r_lp_Energy>  (324) 
85.5668

>  <b_lp_Chiralities_Consistent>  (324) 
1

>  <s_lp_Variant>  (324) 
92:0-8

>  <s_i_glide_gridfile>  (324) 
pfpi4k_grid

>  <i_i_glide_lignum>  (324) 
46

>  <i_i_glide_rotatable_bonds>  (324) 
1

>  <r_i_docking_score>  (324) 
0.485916

>  <r_i_glide_ligand_efficiency>  (324) 
0.0167557

>  <r_i_glide_ligand_efficiency_sa>  (324) 
0.0514788

>  <r_i_glide_ligand_efficiency_ln>  (324) 
0.111262

>  <r_i_glide_gscore>  (324) 
0.485916

>  <r_i_glide_lipo>  (324) 
-0.0735898

>  <r_i_glide_hbond>  (324) 
0

>  <r_i_glide_metal>  (324) 
-0

>  <r_i_glide_rewards>  (324) 
-0.714908

>  <r_i_glide_evdw>  (324) 
-20.3991

>  <r_i_glide_ecoul>  (324) 
-1.61817

>  <r_i_glide_erotb>  (324) 
0

>  <r_i_glide_esite>  (324) 
-0.0645232

>  <r_i_glide_emodel>  (324) 
-11.0677

>  <r_i_glide_energy>  (324) 
-22.0172

>  <r_i_glide_einternal>  (324) 
0.147299

>  <r_i_glide_intrahb_reward>  (324) 
-0

>  <i_i_glide_confnum>  (324) 
1

>  <i_i_glide_posenum>  (324) 
1

>  <r_i_glide_eff_state_penalty>  (324) 
0

>  <ligand_id>  (324) 
92

>  <original_smiles>  (324) 
COC1C=CC2C(OC2(C)C)C2N(C)CCC13C1CC4=CC=C(O)C4=C1C1OC123

>  <smiles>  (324) 
[H]C1=C2C(=C3C4([H])OC45C4(C([H])(OC([H])([H])[H])C([H])=C([H])C6([H])C([H])(OC6(C([H])([H])[H])C([H])([H])[H])C5([H])[N+]([H])(C([H])([H])[H])C([H])([H])C4([H])[H])C3([H])C2([H])[H])C(=O)C1([H])[H]

$$$$
93:0:0
     RDKit          3D

 79 86  0  0  1  0  0  0  0  0999 V2000
    0.1505   -4.0007    6.1285 C   0  0  0  0  0  0  0  0  0  0  0  0
    0.3966   -2.5641    6.6403 C   0  0  2  0  0  0  0  0  0  0  0  0
   -0.6405   -1.5034    5.9362 C   0  0  0  0  0  0  0  0  0  0  0  0
    0.0897   -0.2499    5.3294 C   0  0  2  0  0  0  0  0  0  0  0  0
    0.5459   -1.2107    4.4114 O   0  0  0  0  0  0  0  0  0  0  0  0
    0.7852    0.3278    6.5880 C   0  0  1  0  0  0  0  0  0  0  0  0
    1.6826   -0.6316    6.8929 O   0  0  0  0  0  0  0  0  0  0  0  0
    2.7846   -0.9223    6.0688 C   0  0  1  0  0  0  0  0  0  0  0  0
    3.1481   -1.5022    4.6180 C   0  0  0  0  0  0  0  0  0  0  0  0
    3.3865   -0.6574    3.3095 C   0  0  1  0  0  0  0  0  0  0  0  0
    4.7844   -0.0305    3.4419 C   0  0  0  0  0  0  0  0  0  0  0  0
    5.7828   -0.6958    2.7951 C   0  0  0  0  0  0  0  0  0  0  0  0
    5.1828   -1.7691    2.0813 C   0  0  0  0  0  0  0  0  0  0  0  0
    5.7832   -2.7065    1.5154 O   0  0  0  0  0  0  0  0  0  0  0  0
    3.6778   -1.5871    2.0525 C   0  0  1  0  0  0  0  0  0  0  0  0
    2.9472   -2.9411    1.9837 C   0  0  0  0  0  0  0  0  0  0  0  0
    3.3354   -0.7395    0.8128 C   0  0  0  0  0  0  0  0  0  0  0  0
    2.7104    0.5535    1.3257 C   0  0  0  0  0  0  0  0  0  0  0  0
    2.1837    0.2413    2.7296 C   0  0  2  0  0  0  0  0  0  0  0  0
    1.2510    1.3494    3.4956 C   0  0  1  0  0  0  0  0  0  0  0  0
    0.6448    2.1868    2.3422 C   0  0  0  0  0  0  0  0  0  0  0  0
   -0.1289    0.7749    4.1486 C   0  0  2  0  0  0  0  0  0  0  0  0
   -1.1795    1.7376    4.3480 O   0  0  0  0  0  0  0  0  0  0  0  0
   -1.1200    2.8868    5.2123 C   0  0  0  0  0  0  0  0  0  0  0  0
   -1.4645    4.1784    4.4494 C   0  0  0  0  0  0  0  0  0  0  0  0
   -2.2858    2.6339    6.1841 C   0  0  0  0  0  0  0  0  0  0  0  0
    0.1359    3.0051    6.0703 C   0  0  0  0  0  0  0  0  0  0  0  0
    1.3484    2.5318    5.8178 C   0  0  0  0  0  0  0  0  0  0  0  0
    1.7897    1.4289    6.7339 C   0  0  2  0  0  0  0  0  0  0  0  0
    3.0091    0.6727    6.2340 C   0  0  2  0  0  0  0  0  0  0  0  0
    3.1588    1.4021    5.0065 O   0  0  0  0  0  0  0  0  0  0  0  0
    2.0898    2.2400    4.5331 C   0  0  1  0  0  0  0  0  0  0  0  0
    2.8006    3.5654    3.9858 C   0  0  0  0  0  0  0  0  0  0  0  0
    3.8750    4.1228    4.9565 C   0  0  0  0  0  0  0  0  0  0  0  0
    1.9113    4.8055    3.6637 C   0  0  0  0  0  0  0  0  0  0  0  0
    2.0264   -2.2257    6.7641 C   0  0  1  0  0  0  0  0  0  0  0  0
    2.5528   -2.5856    8.0456 O   0  0  0  0  0  0  0  0  0  0  0  0
    0.4443   -4.1030    5.0805 H   0  0  0  0  0  0  0  0  0  0  0  0
   -0.9025   -4.2710    6.2227 H   0  0  0  0  0  0  0  0  0  0  0  0
    0.7290   -4.7164    6.7166 H   0  0  0  0  0  0  0  0  0  0  0  0
    0.0678   -2.5909    7.6811 H   0  0  0  0  0  0  0  0  0  0  0  0
   -1.3153   -2.0217    5.2435 H   0  0  0  0  0  0  0  0  0  0  0  0
   -1.3201   -1.1370    6.7012 H   0  0  0  0  0  0  0  0  0  0  0  0
    1.2800   -0.8561    3.9373 H   0  0  0  0  0  0  0  0  0  0  0  0
    0.0575    0.4464    7.3844 H   0  0  0  0  0  0  0  0  0  0  0  0
    4.0968   -2.0132    4.8174 H   0  0  0  0  0  0  0  0  0  0  0  0
    2.5253   -2.3677    4.3740 H   0  0  0  0  0  0  0  0  0  0  0  0
    5.0261    0.7953    4.0682 H   0  0  0  0  0  0  0  0  0  0  0  0
    6.8324   -0.4818    2.8493 H   0  0  0  0  0  0  0  0  0  0  0  0
    1.8705   -2.8289    2.1126 H   0  0  0  0  0  0  0  0  0  0  0  0
    3.3075   -3.6437    2.7375 H   0  0  0  0  0  0  0  0  0  0  0  0
    3.1056   -3.4299    1.0195 H   0  0  0  0  0  0  0  0  0  0  0  0
    4.1915   -0.5130    0.1804 H   0  0  0  0  0  0  0  0  0  0  0  0
    2.6262   -1.2720    0.1769 H   0  0  0  0  0  0  0  0  0  0  0  0
    3.4505    1.3429    1.3306 H   0  0  0  0  0  0  0  0  0  0  0  0
    1.8984    0.7979    0.6437 H   0  0  0  0  0  0  0  0  0  0  0  0
    1.4287   -0.4715    2.4061 H   0  0  0  0  0  0  0  0  0  0  0  0
   -0.0045    2.9767    2.6869 H   0  0  0  0  0  0  0  0  0  0  0  0
    0.1012    1.5527    1.6273 H   0  0  0  0  0  0  0  0  0  0  0  0
    1.4129    2.7175    1.7870 H   0  0  0  0  0  0  0  0  0  0  0  0
   -0.6411    0.2485    3.3332 H   0  0  0  0  0  0  0  0  0  0  0  0
   -1.7713    4.9089    5.1921 H   0  0  0  0  0  0  0  0  0  0  0  0
   -2.3039    4.0106    3.7572 H   0  0  0  0  0  0  0  0  0  0  0  0
   -0.6454    4.6225    3.8916 H   0  0  0  0  0  0  0  0  0  0  0  0
   -2.4091    3.4477    6.9070 H   0  0  0  0  0  0  0  0  0  0  0  0
   -2.1415    1.7158    6.7571 H   0  0  0  0  0  0  0  0  0  0  0  0
   -3.2241    2.5574    5.6372 H   0  0  0  0  0  0  0  0  0  0  0  0
   -0.1410    3.0041    7.1246 H   0  0  0  0  0  0  0  0  0  0  0  0
    1.8994    1.7385    7.7810 H   0  0  0  0  0  0  0  0  0  0  0  0
    3.8797    0.8750    6.8722 H   0  0  0  0  0  0  0  0  0  0  0  0
    3.3270    3.3019    3.0675 H   0  0  0  0  0  0  0  0  0  0  0  0
    3.5220    4.1654    5.9815 H   0  0  0  0  0  0  0  0  0  0  0  0
    4.1475    5.1413    4.6916 H   0  0  0  0  0  0  0  0  0  0  0  0
    4.7882    3.5429    4.9331 H   0  0  0  0  0  0  0  0  0  0  0  0
    1.3930    5.1195    4.5750 H   0  0  0  0  0  0  0  0  0  0  0  0
    1.1938    4.6400    2.8856 H   0  0  0  0  0  0  0  0  0  0  0  0
    2.5413    5.6822    3.4050 H   0  0  0  0  0  0  0  0  0  0  0  0
    2.4607   -3.0860    6.2574 H   0  0  0  0  0  0  0  0  0  0  0  0
    3.4780   -2.6783    7.9601 H   0  0  0  0  0  0  0  0  0  0  0  0
  1  2  1  0
  1 38  1  0
  1 39  1  0
  1 40  1  0
  2 36  1  0
  2  3  1  0
  2 41  1  1
  3  4  1  0
  3 42  1  0
  3 43  1  0
  4 22  1  0
  4  5  1  6
  4  6  1  0
  5 44  1  0
  6 29  1  0
  6  7  1  0
  6 45  1  1
  7  8  1  0
  8 30  1  0
  8  9  1  6
  8 36  1  0
 10  9  1  1
  9 46  1  0
  9 47  1  0
 10 15  1  0
 10 19  1  0
 10 11  1  0
 11 12  2  0
 11 48  1  0
 12 13  1  0
 12 49  1  0
 13 14  2  0
 13 15  1  0
 15 16  1  1
 15 17  1  0
 16 50  1  0
 16 51  1  0
 16 52  1  0
 17 18  1  0
 17 53  1  0
 17 54  1  0
 18 19  1  0
 18 55  1  0
 18 56  1  0
 19 20  1  0
 19 57  1  6
 20 32  1  0
 20 21  1  6
 20 22  1  0
 21 58  1  0
 21 59  1  0
 21 60  1  0
 22 23  1  0
 22 61  1  6
 23 24  1  0
 24 25  1  0
 24 26  1  0
 24 27  1  0
 25 62  1  0
 25 63  1  0
 25 64  1  0
 26 65  1  0
 26 66  1  0
 26 67  1  0
 27 28  2  0
 27 68  1  0
 28 32  1  0
 28 29  1  0
 29 30  1  0
 29 69  1  1
 30 31  1  0
 30 70  1  1
 31 32  1  0
 32 33  1  6
 33 34  1  0
 33 35  1  0
 33 71  1  0
 34 72  1  0
 34 73  1  0
 34 74  1  0
 35 75  1  0
 35 76  1  0
 35 77  1  0
 36 37  1  0
 36 78  1  6
 37 79  1  0
M  END
>  <i_m_ct_stereo_status>  (325) 
1

>  <s_m_source_file>  (325) 
/var/tmp/pbs.5076255.sched01/tmpfsvwwkaa/138cw1meju8.sdf

>  <i_m_source_file_index>  (325) 
1

>  <i_lp_mmshare_version>  (325) 
48012

>  <i_f3d_flags>  (325) 
0

>  <s_epik_input>  (325) 
W0NAXTEyM1tDQEBIXTRbQ0BASF01W0NASF0oTzEpW0NAQF0oW09IXSkoW0NIMl1bQ0BASF0oW0NIM10pW0NAQEhdM1tPSF0pW0NAQEhdNltDQEBdKFtDSDNdKShbQ0BAXShPNCkoW0NIXShbQ0gzXSlbQ0gzXSlDNT1bQ0hdQyhPNikoW0NIM10pW0NIM10pW0NAQEhdN1tDQEBdOChbQ0gyXTIpW0NAQF0oW0NIM10pKFtDSDJdW0NIMl03KUMoPU8pW0NIXT1bQ0hdOA==

>  <s_epik_cmdline>  (325) 
J2VwaWtfcHl0aG9uJywgJy1waHQnLCAnMi4wJywgJy1waCcsICc3LjAnLCAnLXRuJywgJzgnLCAnLW1hJywgJzIwMCcsICctaW1hZScsICc8aW5maWxlLm1hZT4nLCAnLW9tYWUnLCAnPG91dGZpbGUubWFlPic=

>  <r_lp_tautomer_probability>  (325) 
1

>  <r_epik_Ionization_Penalty>  (325) 
9.63512e-08

>  <r_epik_Ionization_Penalty_Charging>  (325) 
0

>  <r_epik_Ionization_Penalty_Neutral>  (325) 
9.63512e-08

>  <r_epik_State_Penalty>  (325) 
-0

>  <r_epik_Charging_Adjusted_Penalty>  (325) 
0

>  <i_epik_Tot_Q>  (325) 
0

>  <i_epik_Tot_abs_Q>  (325) 
0

>  <s_lp_Force_Field>  (325) 
OPLS3e

>  <r_lp_Energy>  (325) 
343.979

>  <b_lp_Chiralities_Consistent>  (325) 
1

>  <s_lp_Variant>  (325) 
93:0-1

>  <s_i_glide_gridfile>  (325) 
pfpi4k_grid

>  <i_i_glide_lignum>  (325) 
1

>  <i_i_glide_rotatable_bonds>  (325) 
3

>  <r_i_docking_score>  (325) 
-1.43336

>  <r_i_glide_ligand_efficiency>  (325) 
-0.0387396

>  <r_i_glide_ligand_efficiency_sa>  (325) 
-0.129089

>  <r_i_glide_ligand_efficiency_ln>  (325) 
-0.310863

>  <r_i_glide_gscore>  (325) 
-1.43336

>  <r_i_glide_lipo>  (325) 
-0.294494

>  <r_i_glide_hbond>  (325) 
0

>  <r_i_glide_metal>  (325) 
-0

>  <r_i_glide_rewards>  (325) 
-0.114172

>  <r_i_glide_evdw>  (325) 
-21.7171

>  <r_i_glide_ecoul>  (325) 
0.407705

>  <r_i_glide_erotb>  (325) 
0

>  <r_i_glide_esite>  (325) 
0

>  <r_i_glide_emodel>  (325) 
-19.879

>  <r_i_glide_energy>  (325) 
-21.3094

>  <r_i_glide_einternal>  (325) 
3.22497

>  <r_i_glide_intrahb_reward>  (325) 
-0

>  <i_i_glide_confnum>  (325) 
1

>  <i_i_glide_posenum>  (325) 
29

>  <r_i_glide_eff_state_penalty>  (325) 
0

>  <ligand_id>  (325) 
93

>  <original_smiles>  (325) 
CC1CC2(O)C3OC4(CC56C=CC(=O)C5(C)CCC6C5(C)C2OC(C)(C)C=C2C3C4OC25C(C)C)C1O

>  <smiles>  (325) 
[H]OC1([H])C([H])(C([H])([H])[H])C([H])([H])C2(O[H])C3([H])OC14C([H])([H])C15C([H])=C([H])C(=O)C1(C([H])([H])[H])C([H])([H])C([H])([H])C5([H])C1(C([H])([H])[H])C2([H])OC(C([H])([H])[H])(C([H])([H])[H])C([H])=C2C3([H])C4([H])OC21C([H])(C([H])([H])[H])C([H])([H])[H]

$$$$
93:0:1
     RDKit          3D

 79 86  0  0  1  0  0  0  0  0999 V2000
   -0.5704    1.4751    1.7936 C   0  0  0  0  0  0  0  0  0  0  0  0
    0.3140    0.4314    2.5140 C   0  0  2  0  0  0  0  0  0  0  0  0
   -0.4157   -0.1083    3.8818 C   0  0  0  0  0  0  0  0  0  0  0  0
    0.5126   -0.0050    5.1493 C   0  0  2  0  0  0  0  0  0  0  0  0
    0.3158    1.3599    4.9431 O   0  0  0  0  0  0  0  0  0  0  0  0
    1.7048   -0.9048    4.7021 C   0  0  1  0  0  0  0  0  0  0  0  0
    2.2161   -0.2010    3.6782 O   0  0  0  0  0  0  0  0  0  0  0  0
    2.8767    1.0340    3.8494 C   0  0  1  0  0  0  0  0  0  0  0  0
    2.5757    2.5393    4.3005 C   0  0  0  0  0  0  0  0  0  0  0  0
    2.7112    3.1390    5.7656 C   0  0  1  0  0  0  0  0  0  0  0  0
    4.2274    3.3367    5.9989 C   0  0  0  0  0  0  0  0  0  0  0  0
    4.7043    4.5710    5.7709 C   0  0  0  0  0  0  0  0  0  0  0  0
    3.5687    5.4275    5.5014 C   0  0  0  0  0  0  0  0  0  0  0  0
    3.5828    6.5846    5.1048 O   0  0  0  0  0  0  0  0  0  0  0  0
    2.2864    4.6644    5.8301 C   0  0  1  0  0  0  0  0  0  0  0  0
    1.1223    5.1089    4.9239 C   0  0  0  0  0  0  0  0  0  0  0  0
    1.9299    4.9321    7.3168 C   0  0  0  0  0  0  0  0  0  0  0  0
    1.9946    3.6004    8.0688 C   0  0  0  0  0  0  0  0  0  0  0  0
    1.8311    2.5234    6.9786 C   0  0  2  0  0  0  0  0  0  0  0  0
    1.6290    0.9588    7.4333 C   0  0  1  0  0  0  0  0  0  0  0  0
    1.1017    1.0139    8.9035 C   0  0  0  0  0  0  0  0  0  0  0  0
    0.3724    0.1882    6.7154 C   0  0  2  0  0  0  0  0  0  0  0  0
   -0.1405   -0.9392    7.4712 O   0  0  0  0  0  0  0  0  0  0  0  0
    0.5734   -2.1647    7.7452 C   0  0  0  0  0  0  0  0  0  0  0  0
    0.5859   -2.4871    9.2542 C   0  0  0  0  0  0  0  0  0  0  0  0
   -0.2989   -3.2364    7.0517 C   0  0  0  0  0  0  0  0  0  0  0  0
    1.9487   -2.2640    7.1330 C   0  0  0  0  0  0  0  0  0  0  0  0
    2.7806   -1.2459    6.7675 C   0  0  0  0  0  0  0  0  0  0  0  0
    3.0449   -1.1382    5.3173 C   0  0  2  0  0  0  0  0  0  0  0  0
    3.7081    0.1649    4.9186 C   0  0  2  0  0  0  0  0  0  0  0  0
    3.7737    0.7189    6.2353 O   0  0  0  0  0  0  0  0  0  0  0  0
    2.9893    0.1377    7.2974 C   0  0  1  0  0  0  0  0  0  0  0  0
    3.9458    0.0895    8.5693 C   0  0  0  0  0  0  0  0  0  0  0  0
    4.4398    1.4288    9.1705 C   0  0  0  0  0  0  0  0  0  0  0  0
    5.2161   -0.7501    8.3157 C   0  0  0  0  0  0  0  0  0  0  0  0
    1.9254    0.8908    2.5022 C   0  0  1  0  0  0  0  0  0  0  0  0
    2.5930    0.3600    1.3559 O   0  0  0  0  0  0  0  0  0  0  0  0
   -0.6555    2.4134    2.3556 H   0  0  0  0  0  0  0  0  0  0  0  0
   -1.5803    1.0785    1.6212 H   0  0  0  0  0  0  0  0  0  0  0  0
   -0.1491    1.7381    0.8160 H   0  0  0  0  0  0  0  0  0  0  0  0
    0.2863   -0.4361    1.8496 H   0  0  0  0  0  0  0  0  0  0  0  0
   -1.4052    0.3518    4.0002 H   0  0  0  0  0  0  0  0  0  0  0  0
   -0.6636   -1.1596    3.7428 H   0  0  0  0  0  0  0  0  0  0  0  0
    0.3951    1.5164    4.0116 H   0  0  0  0  0  0  0  0  0  0  0  0
    1.3206   -1.8623    4.3520 H   0  0  0  0  0  0  0  0  0  0  0  0
    3.2864    3.0996    3.6941 H   0  0  0  0  0  0  0  0  0  0  0  0
    1.6472    2.9105    3.8737 H   0  0  0  0  0  0  0  0  0  0  0  0
    4.9429    2.5530    6.1790 H   0  0  0  0  0  0  0  0  0  0  0  0
    5.7331    4.8854    5.7733 H   0  0  0  0  0  0  0  0  0  0  0  0
    0.2514    4.4716    5.0446 H   0  0  0  0  0  0  0  0  0  0  0  0
    1.3996    5.1084    3.8757 H   0  0  0  0  0  0  0  0  0  0  0  0
    0.8198    6.1226    5.1520 H   0  0  0  0  0  0  0  0  0  0  0  0
    2.6005    5.6518    7.7902 H   0  0  0  0  0  0  0  0  0  0  0  0
    0.9287    5.3576    7.3967 H   0  0  0  0  0  0  0  0  0  0  0  0
    2.9408    3.5322    8.6003 H   0  0  0  0  0  0  0  0  0  0  0  0
    1.1904    3.5878    8.8020 H   0  0  0  0  0  0  0  0  0  0  0  0
    0.8161    2.7755    6.6952 H   0  0  0  0  0  0  0  0  0  0  0  0
    0.9955    0.0356    9.3386 H   0  0  0  0  0  0  0  0  0  0  0  0
    0.1132    1.4787    8.9460 H   0  0  0  0  0  0  0  0  0  0  0  0
    1.7272    1.5549    9.6000 H   0  0  0  0  0  0  0  0  0  0  0  0
   -0.5025    0.8299    6.8854 H   0  0  0  0  0  0  0  0  0  0  0  0
    0.7313   -3.5499    9.4421 H   0  0  0  0  0  0  0  0  0  0  0  0
   -0.3553   -2.2055    9.7213 H   0  0  0  0  0  0  0  0  0  0  0  0
    1.3872   -1.9795    9.7846 H   0  0  0  0  0  0  0  0  0  0  0  0
    0.0931   -4.2422    7.2128 H   0  0  0  0  0  0  0  0  0  0  0  0
   -0.3304   -3.0812    5.9737 H   0  0  0  0  0  0  0  0  0  0  0  0
   -1.3218   -3.2336    7.4176 H   0  0  0  0  0  0  0  0  0  0  0  0
    2.0136   -3.1295    6.4970 H   0  0  0  0  0  0  0  0  0  0  0  0
    3.5378   -2.0149    4.8867 H   0  0  0  0  0  0  0  0  0  0  0  0
    4.7231   -0.0118    4.5704 H   0  0  0  0  0  0  0  0  0  0  0  0
    3.4133   -0.4321    9.3669 H   0  0  0  0  0  0  0  0  0  0  0  0
    4.7488    2.1239    8.3982 H   0  0  0  0  0  0  0  0  0  0  0  0
    5.3083    1.2764    9.8103 H   0  0  0  0  0  0  0  0  0  0  0  0
    3.7284    1.9180    9.8267 H   0  0  0  0  0  0  0  0  0  0  0  0
    5.8302   -0.3139    7.5284 H   0  0  0  0  0  0  0  0  0  0  0  0
    5.0077   -1.7867    8.0536 H   0  0  0  0  0  0  0  0  0  0  0  0
    5.8422   -0.7840    9.2058 H   0  0  0  0  0  0  0  0  0  0  0  0
    1.8531    1.9042    2.1047 H   0  0  0  0  0  0  0  0  0  0  0  0
    1.9443    0.1550    0.6908 H   0  0  0  0  0  0  0  0  0  0  0  0
  1  2  1  0
  1 38  1  0
  1 39  1  0
  1 40  1  0
  2 36  1  0
  2  3  1  0
  2 41  1  6
  3  4  1  0
  3 42  1  0
  3 43  1  0
  4 22  1  0
  4  5  1  6
  4  6  1  0
  5 44  1  0
  6 29  1  0
  6  7  1  0
  6 45  1  6
  7  8  1  0
  8 30  1  0
  8  9  1  1
  8 36  1  0
 10  9  1  6
  9 46  1  0
  9 47  1  0
 10 15  1  0
 10 19  1  0
 10 11  1  0
 11 12  2  0
 11 48  1  0
 12 13  1  0
 12 49  1  0
 13 14  2  0
 13 15  1  0
 15 16  1  6
 15 17  1  0
 16 50  1  0
 16 51  1  0
 16 52  1  0
 17 18  1  0
 17 53  1  0
 17 54  1  0
 18 19  1  0
 18 55  1  0
 18 56  1  0
 19 20  1  0
 19 57  1  6
 20 32  1  0
 20 21  1  1
 20 22  1  0
 21 58  1  0
 21 59  1  0
 21 60  1  0
 22 23  1  0
 22 61  1  6
 23 24  1  0
 24 25  1  0
 24 26  1  0
 24 27  1  0
 25 62  1  0
 25 63  1  0
 25 64  1  0
 26 65  1  0
 26 66  1  0
 26 67  1  0
 27 28  2  0
 27 68  1  0
 28 32  1  0
 28 29  1  0
 29 30  1  0
 29 69  1  6
 30 31  1  0
 30 70  1  6
 31 32  1  0
 32 33  1  1
 33 34  1  0
 33 35  1  0
 33 71  1  0
 34 72  1  0
 34 73  1  0
 34 74  1  0
 35 75  1  0
 35 76  1  0
 35 77  1  0
 36 37  1  0
 36 78  1  6
 37 79  1  0
M  END
>  <i_m_ct_stereo_status>  (326) 
1

>  <s_m_source_file>  (326) 
/var/tmp/pbs.5076255.sched01/tmpfsvwwkaa/138cw1meju8.sdf

>  <i_m_source_file_index>  (326) 
1

>  <i_lp_mmshare_version>  (326) 
48012

>  <i_f3d_flags>  (326) 
0

>  <s_epik_input>  (326) 
W0NAXTEyM1tDQEBIXTRbQ0BASF01W0NASF0oTzEpW0NAQF0oW09IXSkoW0NIMl1bQ0BASF0oW0NIM10pW0NAQEhdM1tPSF0pW0NAQEhdNltDQEBdKFtDSDNdKShbQ0BAXShPNCkoW0NIXShbQ0gzXSlbQ0gzXSlDNT1bQ0hdQyhPNikoW0NIM10pW0NIM10pW0NAQEhdN1tDQEBdOChbQ0gyXTIpW0NAQF0oW0NIM10pKFtDSDJdW0NIMl03KUMoPU8pW0NIXT1bQ0hdOA==

>  <s_epik_cmdline>  (326) 
J2VwaWtfcHl0aG9uJywgJy1waHQnLCAnMi4wJywgJy1waCcsICc3LjAnLCAnLXRuJywgJzgnLCAnLW1hJywgJzIwMCcsICctaW1hZScsICc8aW5maWxlLm1hZT4nLCAnLW9tYWUnLCAnPG91dGZpbGUubWFlPic=

>  <r_lp_tautomer_probability>  (326) 
1

>  <r_epik_Ionization_Penalty>  (326) 
9.63512e-08

>  <r_epik_Ionization_Penalty_Charging>  (326) 
0

>  <r_epik_Ionization_Penalty_Neutral>  (326) 
9.63512e-08

>  <r_epik_State_Penalty>  (326) 
-0

>  <r_epik_Charging_Adjusted_Penalty>  (326) 
0

>  <i_epik_Tot_Q>  (326) 
0

>  <i_epik_Tot_abs_Q>  (326) 
0

>  <s_lp_Force_Field>  (326) 
OPLS3e

>  <r_lp_Energy>  (326) 
343.979

>  <b_lp_Chiralities_Consistent>  (326) 
1

>  <s_lp_Variant>  (326) 
93:0-1

>  <s_i_glide_gridfile>  (326) 
pfpi4k_grid

>  <i_i_glide_lignum>  (326) 
1

>  <i_i_glide_rotatable_bonds>  (326) 
3

>  <r_i_docking_score>  (326) 
-1.40631

>  <r_i_glide_ligand_efficiency>  (326) 
-0.0380084

>  <r_i_glide_ligand_efficiency_sa>  (326) 
-0.126652

>  <r_i_glide_ligand_efficiency_ln>  (326) 
-0.304996

>  <r_i_glide_gscore>  (326) 
-1.40631

>  <r_i_glide_lipo>  (326) 
-0.00207227

>  <r_i_glide_hbond>  (326) 
-0.00403268

>  <r_i_glide_metal>  (326) 
-0

>  <r_i_glide_rewards>  (326) 
0

>  <r_i_glide_evdw>  (326) 
-18.0623

>  <r_i_glide_ecoul>  (326) 
-3.31392

>  <r_i_glide_erotb>  (326) 
0

>  <r_i_glide_esite>  (326) 
0

>  <r_i_glide_emodel>  (326) 
-21.9853

>  <r_i_glide_energy>  (326) 
-21.3763

>  <r_i_glide_einternal>  (326) 
0.973821

>  <r_i_glide_intrahb_reward>  (326) 
-0

>  <i_i_glide_confnum>  (326) 
1

>  <i_i_glide_posenum>  (326) 
32

>  <r_i_glide_eff_state_penalty>  (326) 
0

>  <ligand_id>  (326) 
93

>  <original_smiles>  (326) 
CC1CC2(O)C3OC4(CC56C=CC(=O)C5(C)CCC6C5(C)C2OC(C)(C)C=C2C3C4OC25C(C)C)C1O

>  <smiles>  (326) 
[H]OC1([H])C([H])(C([H])([H])[H])C([H])([H])C2(O[H])C3([H])OC14C([H])([H])C15C([H])=C([H])C(=O)C1(C([H])([H])[H])C([H])([H])C([H])([H])C5([H])C1(C([H])([H])[H])C2([H])OC(C([H])([H])[H])(C([H])([H])[H])C([H])=C2C3([H])C4([H])OC21C([H])(C([H])([H])[H])C([H])([H])[H]

$$$$
93:0:2
     RDKit          3D

 79 86  0  0  1  0  0  0  0  0999 V2000
   -0.4087   -3.8596    6.2812 C   0  0  0  0  0  0  0  0  0  0  0  0
   -0.2486   -2.3809    6.6881 C   0  0  2  0  0  0  0  0  0  0  0  0
   -1.2163   -1.3993    5.7933 C   0  0  0  0  0  0  0  0  0  0  0  0
   -0.4417   -0.1826    5.1567 C   0  0  2  0  0  0  0  0  0  0  0  0
    0.1257   -1.2118    4.3970 O   0  0  0  0  0  0  0  0  0  0  0  0
    0.0926    0.5095    6.4410 C   0  0  1  0  0  0  0  0  0  0  0  0
    0.9601   -0.3991    6.9265 O   0  0  0  0  0  0  0  0  0  0  0  0
    2.1600   -0.7350    6.2576 C   0  0  1  0  0  0  0  0  0  0  0  0
    2.6957   -1.4114    4.9065 C   0  0  0  0  0  0  0  0  0  0  0  0
    3.0583   -0.6674    3.5468 C   0  0  1  0  0  0  0  0  0  0  0  0
    4.4328   -0.0098    3.7936 C   0  0  0  0  0  0  0  0  0  0  0  0
    5.5013   -0.6888    3.3398 C   0  0  0  0  0  0  0  0  0  0  0  0
    5.0037   -1.8433    2.6490 C   0  0  0  0  0  0  0  0  0  0  0  0
    5.6820   -2.8037    2.2281 O   0  0  0  0  0  0  0  0  0  0  0  0
    3.5126   -1.7069    2.4287 C   0  0  1  0  0  0  0  0  0  0  0  0
    2.8186   -3.0832    2.4094 C   0  0  0  0  0  0  0  0  0  0  0  0
    3.2755   -1.0177    1.0670 C   0  0  0  0  0  0  0  0  0  0  0  0
    2.5884    0.3009    1.3548 C   0  0  0  0  0  0  0  0  0  0  0  0
    1.9267    0.1352    2.7424 C   0  0  2  0  0  0  0  0  0  0  0  0
    0.9102    1.2791    3.3130 C   0  0  1  0  0  0  0  0  0  0  0  0
    0.3733    1.9841    2.0443 C   0  0  0  0  0  0  0  0  0  0  0  0
   -0.5219    0.7332    3.8779 C   0  0  2  0  0  0  0  0  0  0  0  0
   -1.6004    1.6966    3.8950 O   0  0  0  0  0  0  0  0  0  0  0  0
   -1.6228    2.9308    4.6417 C   0  0  0  0  0  0  0  0  0  0  0  0
   -1.8723    4.1439    3.7460 C   0  0  0  0  0  0  0  0  0  0  0  0
   -2.8957    2.7765    5.4718 C   0  0  0  0  0  0  0  0  0  0  0  0
   -0.4825    3.1300    5.6188 C   0  0  0  0  0  0  0  0  0  0  0  0
    0.7370    2.6291    5.5341 C   0  0  0  0  0  0  0  0  0  0  0  0
    1.0618    1.6275    6.5937 C   0  0  2  0  0  0  0  0  0  0  0  0
    2.3377    0.8674    6.3123 C   0  0  2  0  0  0  0  0  0  0  0  0
    2.6139    1.4742    5.0336 O   0  0  0  0  0  0  0  0  0  0  0  0
    1.6287    2.2729    4.3566 C   0  0  1  0  0  0  0  0  0  0  0  0
    2.3357    3.6386    3.8904 C   0  0  0  0  0  0  0  0  0  0  0  0
    2.9453    3.7694    2.4881 C   0  0  0  0  0  0  0  0  0  0  0  0
    3.5052    4.0467    4.8144 C   0  0  0  0  0  0  0  0  0  0  0  0
    1.3499   -1.9922    6.9710 C   0  0  1  0  0  0  0  0  0  0  0  0
    1.7027   -2.2277    8.3327 O   0  0  0  0  0  0  0  0  0  0  0  0
   -0.0089   -4.0444    5.2766 H   0  0  0  0  0  0  0  0  0  0  0  0
   -1.4639   -4.1449    6.3029 H   0  0  0  0  0  0  0  0  0  0  0  0
    0.1114   -4.5130    6.9878 H   0  0  0  0  0  0  0  0  0  0  0  0
   -0.6754   -2.3446    7.6877 H   0  0  0  0  0  0  0  0  0  0  0  0
   -1.8031   -1.9909    5.0749 H   0  0  0  0  0  0  0  0  0  0  0  0
   -1.9905   -0.9801    6.4375 H   0  0  0  0  0  0  0  0  0  0  0  0
    0.9316   -0.8866    4.0103 H   0  0  0  0  0  0  0  0  0  0  0  0
   -0.7283    0.6780    7.1326 H   0  0  0  0  0  0  0  0  0  0  0  0
    3.6245   -1.8798    5.2547 H   0  0  0  0  0  0  0  0  0  0  0  0
    2.1181   -2.3112    4.6717 H   0  0  0  0  0  0  0  0  0  0  0  0
    4.5998    0.8691    4.3857 H   0  0  0  0  0  0  0  0  0  0  0  0
    6.5274   -0.4265    3.5142 H   0  0  0  0  0  0  0  0  0  0  0  0
    1.7363   -2.9720    2.4033 H   0  0  0  0  0  0  0  0  0  0  0  0
    3.1073   -3.7021    3.2589 H   0  0  0  0  0  0  0  0  0  0  0  0
    3.0990   -3.6366    1.5107 H   0  0  0  0  0  0  0  0  0  0  0  0
    4.2058   -0.8061    0.5403 H   0  0  0  0  0  0  0  0  0  0  0  0
    2.6724   -1.6298    0.4014 H   0  0  0  0  0  0  0  0  0  0  0  0
    3.3769    1.0677    1.2878 H   0  0  0  0  0  0  0  0  0  0  0  0
    1.8562    0.4667    0.5709 H   0  0  0  0  0  0  0  0  0  0  0  0
    1.2199   -0.6168    2.4491 H   0  0  0  0  0  0  0  0  0  0  0  0
   -0.1745    2.8713    2.3106 H   0  0  0  0  0  0  0  0  0  0  0  0
   -0.3362    1.3499    1.4818 H   0  0  0  0  0  0  0  0  0  0  0  0
    1.1335    2.3263    1.3437 H   0  0  0  0  0  0  0  0  0  0  0  0
   -0.9639    0.1220    3.0857 H   0  0  0  0  0  0  0  0  0  0  0  0
   -2.3508    4.9226    4.3411 H   0  0  0  0  0  0  0  0  0  0  0  0
   -2.5404    3.8886    2.9216 H   0  0  0  0  0  0  0  0  0  0  0  0
   -0.9634    4.5686    3.3389 H   0  0  0  0  0  0  0  0  0  0  0  0
   -3.1327    3.6196    6.1233 H   0  0  0  0  0  0  0  0  0  0  0  0
   -2.8477    1.8933    6.1180 H   0  0  0  0  0  0  0  0  0  0  0  0
   -3.7106    2.7041    4.7527 H   0  0  0  0  0  0  0  0  0  0  0  0
   -0.8905    3.2222    6.6276 H   0  0  0  0  0  0  0  0  0  0  0  0
    1.0301    2.0488    7.6195 H   0  0  0  0  0  0  0  0  0  0  0  0
    3.1114    1.1619    7.0282 H   0  0  0  0  0  0  0  0  0  0  0  0
    1.5913    4.4284    3.9299 H   0  0  0  0  0  0  0  0  0  0  0  0
    3.3974    2.8193    2.2632 H   0  0  0  0  0  0  0  0  0  0  0  0
    3.7535    4.5276    2.4170 H   0  0  0  0  0  0  0  0  0  0  0  0
    2.2063    4.0586    1.7295 H   0  0  0  0  0  0  0  0  0  0  0  0
    4.3051    3.3004    4.8111 H   0  0  0  0  0  0  0  0  0  0  0  0
    3.2015    4.2263    5.8413 H   0  0  0  0  0  0  0  0  0  0  0  0
    3.9778    4.9596    4.4587 H   0  0  0  0  0  0  0  0  0  0  0  0
    1.8548   -2.8794    6.5899 H   0  0  0  0  0  0  0  0  0  0  0  0
    2.6513   -2.2259    8.3831 H   0  0  0  0  0  0  0  0  0  0  0  0
  1  2  1  0
  1 38  1  0
  1 39  1  0
  1 40  1  0
  2 36  1  0
  2  3  1  0
  2 41  1  1
  3  4  1  0
  3 42  1  0
  3 43  1  0
  4 22  1  0
  4  5  1  6
  4  6  1  0
  5 44  1  0
  6 29  1  0
  6  7  1  0
  6 45  1  1
  7  8  1  0
  8 30  1  0
  8  9  1  6
  8 36  1  0
 10  9  1  1
  9 46  1  0
  9 47  1  0
 10 15  1  0
 10 19  1  0
 10 11  1  0
 11 12  2  0
 11 48  1  0
 12 13  1  0
 12 49  1  0
 13 14  2  0
 13 15  1  0
 15 16  1  6
 15 17  1  0
 16 50  1  0
 16 51  1  0
 16 52  1  0
 17 18  1  0
 17 53  1  0
 17 54  1  0
 18 19  1  0
 18 55  1  0
 18 56  1  0
 19 20  1  0
 19 57  1  6
 20 32  1  0
 20 21  1  6
 20 22  1  0
 21 58  1  0
 21 59  1  0
 21 60  1  0
 22 23  1  0
 22 61  1  6
 23 24  1  0
 24 25  1  0
 24 26  1  0
 24 27  1  0
 25 62  1  0
 25 63  1  0
 25 64  1  0
 26 65  1  0
 26 66  1  0
 26 67  1  0
 27 28  2  0
 27 68  1  0
 28 32  1  0
 28 29  1  0
 29 30  1  0
 29 69  1  1
 30 31  1  0
 30 70  1  1
 31 32  1  0
 32 33  1  6
 33 34  1  0
 33 35  1  0
 33 71  1  0
 34 72  1  0
 34 73  1  0
 34 74  1  0
 35 75  1  0
 35 76  1  0
 35 77  1  0
 36 37  1  0
 36 78  1  6
 37 79  1  0
M  END
>  <i_m_ct_stereo_status>  (327) 
1

>  <s_m_source_file>  (327) 
/var/tmp/pbs.5076255.sched01/tmpfsvwwkaa/138cw1meju8.sdf

>  <i_m_source_file_index>  (327) 
1

>  <i_lp_mmshare_version>  (327) 
48012

>  <i_f3d_flags>  (327) 
0

>  <s_epik_input>  (327) 
W0NAXTEyM1tDQEBIXTRbQ0BASF01W0NASF0oTzEpW0NAQF0oW09IXSkoW0NIMl1bQ0BASF0oW0NIM10pW0NAQEhdM1tPSF0pW0NAQEhdNltDQEBdKFtDSDNdKShbQ0BAXShPNCkoW0NIXShbQ0gzXSlbQ0gzXSlDNT1bQ0hdQyhPNikoW0NIM10pW0NIM10pW0NAQEhdN1tDQEBdOChbQ0gyXTIpW0NAQF0oW0NIM10pKFtDSDJdW0NIMl03KUMoPU8pW0NIXT1bQ0hdOA==

>  <s_epik_cmdline>  (327) 
J2VwaWtfcHl0aG9uJywgJy1waHQnLCAnMi4wJywgJy1waCcsICc3LjAnLCAnLXRuJywgJzgnLCAnLW1hJywgJzIwMCcsICctaW1hZScsICc8aW5maWxlLm1hZT4nLCAnLW9tYWUnLCAnPG91dGZpbGUubWFlPic=

>  <r_lp_tautomer_probability>  (327) 
1

>  <r_epik_Ionization_Penalty>  (327) 
9.63512e-08

>  <r_epik_Ionization_Penalty_Charging>  (327) 
0

>  <r_epik_Ionization_Penalty_Neutral>  (327) 
9.63512e-08

>  <r_epik_State_Penalty>  (327) 
-0

>  <r_epik_Charging_Adjusted_Penalty>  (327) 
0

>  <i_epik_Tot_Q>  (327) 
0

>  <i_epik_Tot_abs_Q>  (327) 
0

>  <s_lp_Force_Field>  (327) 
OPLS3e

>  <r_lp_Energy>  (327) 
343.979

>  <b_lp_Chiralities_Consistent>  (327) 
1

>  <s_lp_Variant>  (327) 
93:0-1

>  <s_i_glide_gridfile>  (327) 
pfpi4k_grid

>  <i_i_glide_lignum>  (327) 
1

>  <i_i_glide_rotatable_bonds>  (327) 
3

>  <r_i_docking_score>  (327) 
-1.05783

>  <r_i_glide_ligand_efficiency>  (327) 
-0.0285899

>  <r_i_glide_ligand_efficiency_sa>  (327) 
-0.095268

>  <r_i_glide_ligand_efficiency_ln>  (327) 
-0.229418

>  <r_i_glide_gscore>  (327) 
-1.05783

>  <r_i_glide_lipo>  (327) 
-0.157695

>  <r_i_glide_hbond>  (327) 
0

>  <r_i_glide_metal>  (327) 
-0

>  <r_i_glide_rewards>  (327) 
-0.100423

>  <r_i_glide_evdw>  (327) 
-19.668

>  <r_i_glide_ecoul>  (327) 
1.22461

>  <r_i_glide_erotb>  (327) 
0

>  <r_i_glide_esite>  (327) 
0

>  <r_i_glide_emodel>  (327) 
-14.7897

>  <r_i_glide_energy>  (327) 
-18.4434

>  <r_i_glide_einternal>  (327) 
4.97744

>  <r_i_glide_intrahb_reward>  (327) 
-0

>  <i_i_glide_confnum>  (327) 
1

>  <i_i_glide_posenum>  (327) 
8

>  <r_i_glide_eff_state_penalty>  (327) 
0

>  <ligand_id>  (327) 
93

>  <original_smiles>  (327) 
CC1CC2(O)C3OC4(CC56C=CC(=O)C5(C)CCC6C5(C)C2OC(C)(C)C=C2C3C4OC25C(C)C)C1O

>  <smiles>  (327) 
[H]OC1([H])C([H])(C([H])([H])[H])C([H])([H])C2(O[H])C3([H])OC14C([H])([H])C15C([H])=C([H])C(=O)C1(C([H])([H])[H])C([H])([H])C([H])([H])C5([H])C1(C([H])([H])[H])C2([H])OC(C([H])([H])[H])(C([H])([H])[H])C([H])=C2C3([H])C4([H])OC21C([H])(C([H])([H])[H])C([H])([H])[H]

$$$$
95:0:0
     RDKit          3D

 44 48  0  0  1  0  0  0  0  0999 V2000
    2.9986  -10.4199    3.0416 C   0  0  0  0  0  0  0  0  0  0  0  0
    2.3308   -9.2240    2.5700 N   0  0  0  0  0  0  0  0  0  0  0  0
    2.9637   -8.1964    1.8880 C   0  0  0  0  0  0  0  0  0  0  0  0
    2.0639   -7.1883    1.5850 C   0  0  0  0  0  0  0  0  0  0  0  0
    2.2942   -5.9797    0.7876 C   0  0  0  0  0  0  0  0  0  0  0  0
    1.4283   -5.5273    0.0398 O   0  0  0  0  0  0  0  0  0  0  0  0
    3.6301   -5.1940    0.8924 C   0  0  2  0  0  0  0  0  0  0  0  0
    4.8124   -6.0320    0.3159 C   0  0  0  0  0  0  0  0  0  0  0  0
    6.1237   -5.2476    0.4370 C   0  0  1  0  0  0  0  0  0  0  0  0
    6.0335   -3.9700   -0.4015 C   0  0  0  0  0  0  0  0  0  0  0  0
    4.8888   -3.1005    0.1512 C   0  0  2  0  0  0  0  0  0  0  0  0
    5.1697   -2.7393    1.6222 C   0  0  0  0  0  0  0  0  0  0  0  0
    5.2419   -4.0328    2.4596 C   0  0  2  0  0  0  0  0  0  0  0  0
    6.3792   -4.9247    1.9255 C   0  0  0  0  0  0  0  0  0  0  0  0
    3.9086   -4.8035    2.3673 C   0  0  0  0  0  0  0  0  0  0  0  0
    3.5561   -3.8698    0.0597 C   0  0  0  0  0  0  0  0  0  0  0  0
    0.7945   -7.6456    2.0850 C   0  0  0  0  0  0  0  0  0  0  0  0
   -0.4218   -7.0538    2.0429 N   0  0  0  0  0  0  0  0  0  0  0  0
   -1.4481   -7.7331    2.5981 C   0  0  0  0  0  0  0  0  0  0  0  0
   -1.3409   -8.9828    3.2307 C   0  0  0  0  0  0  0  0  0  0  0  0
   -0.0757   -9.5957    3.2818 C   0  0  0  0  0  0  0  0  0  0  0  0
    0.9959   -8.9103    2.6989 C   0  0  0  0  0  0  0  0  0  0  0  0
    4.0604  -10.3880    2.7842 H   0  0  0  0  0  0  0  0  0  0  0  0
    2.5594  -11.3012    2.5762 H   0  0  0  0  0  0  0  0  0  0  0  0
    2.9029  -10.4780    4.1245 H   0  0  0  0  0  0  0  0  0  0  0  0
    4.0018   -8.3553    1.6854 H   0  0  0  0  0  0  0  0  0  0  0  0
    5.0397   -6.9205    0.8618 H   0  0  0  0  0  0  0  0  0  0  0  0
    4.6141   -6.3071   -0.7307 H   0  0  0  0  0  0  0  0  0  0  0  0
    6.9273   -5.8841    0.0808 H   0  0  0  0  0  0  0  0  0  0  0  0
    6.9846   -3.4392   -0.3841 H   0  0  0  0  0  0  0  0  0  0  0  0
    5.8195   -4.2369   -1.4389 H   0  0  0  0  0  0  0  0  0  0  0  0
    4.8240   -2.1886   -0.4462 H   0  0  0  0  0  0  0  0  0  0  0  0
    6.1020   -2.1818    1.7005 H   0  0  0  0  0  0  0  0  0  0  0  0
    4.3812   -2.0879    1.9990 H   0  0  0  0  0  0  0  0  0  0  0  0
    5.4333   -3.7749    3.5015 H   0  0  0  0  0  0  0  0  0  0  0  0
    6.4272   -5.8431    2.5162 H   0  0  0  0  0  0  0  0  0  0  0  0
    7.3441   -4.4358    2.0418 H   0  0  0  0  0  0  0  0  0  0  0  0
    3.0988   -4.1839    2.7611 H   0  0  0  0  0  0  0  0  0  0  0  0
    3.9531   -5.6848    3.0139 H   0  0  0  0  0  0  0  0  0  0  0  0
    3.3448   -4.0870   -0.9897 H   0  0  0  0  0  0  0  0  0  0  0  0
    2.7459   -3.2245    0.4044 H   0  0  0  0  0  0  0  0  0  0  0  0
   -2.4147   -7.2492    2.5472 H   0  0  0  0  0  0  0  0  0  0  0  0
   -2.1951   -9.4561    3.6763 H   0  0  0  0  0  0  0  0  0  0  0  0
    0.0799  -10.5500    3.7639 H   0  0  0  0  0  0  0  0  0  0  0  0
  1  2  1  0
  1 23  1  0
  1 24  1  0
  1 25  1  0
  2 22  1  0
  2  3  1  0
  3  4  2  0
  3 26  1  0
  4  5  1  0
  4 17  1  0
  5  6  2  0
  7  5  1  1
  7 15  1  0
  7 16  1  0
  7  8  1  0
  8  9  1  0
  8 27  1  0
  8 28  1  0
  9 14  1  0
  9 10  1  0
  9 29  1  6
 10 11  1  0
 10 30  1  0
 10 31  1  0
 11 12  1  0
 11 16  1  0
 11 32  1  6
 12 13  1  0
 12 33  1  0
 12 34  1  0
 13 14  1  0
 13 15  1  0
 13 35  1  1
 14 36  1  0
 14 37  1  0
 15 38  1  0
 15 39  1  0
 16 40  1  0
 16 41  1  0
 17 22  2  0
 17 18  1  0
 18 19  2  0
 19 20  1  0
 19 42  1  0
 20 21  2  0
 20 43  1  0
 21 22  1  0
 21 44  1  0
M  END
>  <i_m_ct_stereo_status>  (328) 
1

>  <s_m_source_file>  (328) 
/var/tmp/pbs.5076255.sched01/tmpfsvwwkaa/138cw1meju8.sdf

>  <i_m_source_file_index>  (328) 
3

>  <i_lp_mmshare_version>  (328) 
48012

>  <i_f3d_flags>  (328) 
0

>  <s_epik_input>  (328) 
bjFbY0hdW2NIXVtjSF1jKGMxMiluKFtDSDNdKVtjSF1jMkMoPU8pQzM0W0NIMl1bQ0BIXTVbQ0gyXVtDQEBIXShbQ0gyXTQpW0NIMl1bQ0BIXShbQ0gyXTUpW0NIMl0z

>  <s_epik_cmdline>  (328) 
J2VwaWtfcHl0aG9uJywgJy1waHQnLCAnMi4wJywgJy1waCcsICc3LjAnLCAnLXRuJywgJzgnLCAnLW1hJywgJzIwMCcsICctaW1hZScsICc8aW5maWxlLm1hZT4nLCAnLW9tYWUnLCAnPG91dGZpbGUubWFlPic=

>  <r_epik_Ionization_Penalty>  (328) 
0.109661

>  <r_epik_Ionization_Penalty_Charging>  (328) 
0

>  <r_epik_Ionization_Penalty_Neutral>  (328) 
0.109661

>  <r_epik_State_Penalty>  (328) 
0.099427

>  <r_epik_Charging_Adjusted_Penalty>  (328) 
0.099427

>  <i_epik_Tot_Q>  (328) 
0

>  <i_epik_Tot_abs_Q>  (328) 
0

>  <s_lp_Force_Field>  (328) 
OPLS3e

>  <r_lp_Energy>  (328) 
20.5984

>  <b_lp_Chiralities_Consistent>  (328) 
1

>  <s_lp_Variant>  (328) 
95:0-1

>  <s_i_glide_gridfile>  (328) 
pfpi4k_grid

>  <i_i_glide_lignum>  (328) 
3

>  <i_i_glide_rotatable_bonds>  (328) 
2

>  <r_i_docking_score>  (328) 
-3.64658

>  <r_i_glide_ligand_efficiency>  (328) 
-0.165754

>  <r_i_glide_ligand_efficiency_sa>  (328) 
-0.464448

>  <r_i_glide_ligand_efficiency_ln>  (328) 
-0.891357

>  <r_i_glide_gscore>  (328) 
-3.64658

>  <r_i_glide_lipo>  (328) 
-0.460068

>  <r_i_glide_hbond>  (328) 
-0.225065

>  <r_i_glide_metal>  (328) 
-0

>  <r_i_glide_rewards>  (328) 
-1.42185

>  <r_i_glide_evdw>  (328) 
-22.9779

>  <r_i_glide_ecoul>  (328) 
-5.19419

>  <r_i_glide_erotb>  (328) 
0.422032

>  <r_i_glide_esite>  (328) 
-0.0336089

>  <r_i_glide_emodel>  (328) 
-34.2126

>  <r_i_glide_energy>  (328) 
-28.1721

>  <r_i_glide_einternal>  (328) 
1.82617

>  <r_i_glide_intrahb_reward>  (328) 
-0

>  <i_i_glide_confnum>  (328) 
1

>  <i_i_glide_posenum>  (328) 
14

>  <r_i_glide_eff_state_penalty>  (328) 
0

>  <ligand_id>  (328) 
95

>  <original_smiles>  (328) 
Cn1cc(C(=O)C23CC4CC(CC(C4)C2)C3)c2ncccc21

>  <smiles>  (328) 
[H]c1nc2c(C(=O)C34C([H])([H])C5([H])C([H])([H])C([H])(C([H])([H])C([H])(C5([H])[H])C3([H])[H])C4([H])[H])c([H])n(C([H])([H])[H])c2c([H])c1[H]

$$$$
95:0:1
     RDKit          3D

 44 48  0  0  1  0  0  0  0  0999 V2000
    6.6471   -6.0835    1.2047 C   0  0  0  0  0  0  0  0  0  0  0  0
    5.2247   -5.8787    0.9983 N   0  0  0  0  0  0  0  0  0  0  0  0
    4.2128   -6.6491    1.5507 C   0  0  0  0  0  0  0  0  0  0  0  0
    2.9739   -6.1936    1.1482 C   0  0  0  0  0  0  0  0  0  0  0  0
    1.6455   -6.7336    1.4664 C   0  0  0  0  0  0  0  0  0  0  0  0
    0.6182   -6.2586    0.9719 O   0  0  0  0  0  0  0  0  0  0  0  0
    1.4981   -7.9297    2.4500 C   0  0  2  0  0  0  0  0  0  0  0  0
    2.2142   -9.1995    1.8928 C   0  0  0  0  0  0  0  0  0  0  0  0
    2.0458  -10.3687    2.8753 C   0  0  1  0  0  0  0  0  0  0  0  0
    2.6370   -9.9817    4.2494 C   0  0  0  0  0  0  0  0  0  0  0  0
    1.8787   -8.7628    4.8159 C   0  0  2  0  0  0  0  0  0  0  0  0
    0.3848   -9.1092    4.9666 C   0  0  0  0  0  0  0  0  0  0  0  0
   -0.1837   -9.4746    3.5843 C   0  0  2  0  0  0  0  0  0  0  0  0
    0.5505  -10.7022    3.0128 C   0  0  0  0  0  0  0  0  0  0  0  0
   -0.0150   -8.2849    2.6284 C   0  0  0  0  0  0  0  0  0  0  0  0
    2.0453   -7.5639    3.8618 C   0  0  0  0  0  0  0  0  0  0  0  0
    3.2430   -5.0545    0.3098 C   0  0  0  0  0  0  0  0  0  0  0  0
    2.3952   -4.2300   -0.3214 N   0  0  0  0  0  0  0  0  0  0  0  0
    2.9265   -3.2294   -1.0633 C   0  0  0  0  0  0  0  0  0  0  0  0
    4.3075   -2.9801   -1.1941 C   0  0  0  0  0  0  0  0  0  0  0  0
    5.2007   -3.8353   -0.5264 C   0  0  0  0  0  0  0  0  0  0  0  0
    4.6558   -4.8845    0.2333 C   0  0  0  0  0  0  0  0  0  0  0  0
    6.8245   -6.9467    1.8501 H   0  0  0  0  0  0  0  0  0  0  0  0
    7.0781   -5.1979    1.6732 H   0  0  0  0  0  0  0  0  0  0  0  0
    7.1392   -6.2555    0.2465 H   0  0  0  0  0  0  0  0  0  0  0  0
    4.5000   -7.4659    2.1933 H   0  0  0  0  0  0  0  0  0  0  0  0
    1.8126   -9.4619    0.9115 H   0  0  0  0  0  0  0  0  0  0  0  0
    3.2824   -9.0760    1.7428 H   0  0  0  0  0  0  0  0  0  0  0  0
    2.5804  -11.2343    2.4836 H   0  0  0  0  0  0  0  0  0  0  0  0
    2.5725  -10.8209    4.9425 H   0  0  0  0  0  0  0  0  0  0  0  0
    3.6975   -9.7469    4.1475 H   0  0  0  0  0  0  0  0  0  0  0  0
    2.2882   -8.5036    5.7916 H   0  0  0  0  0  0  0  0  0  0  0  0
    0.2521   -9.9399    5.6590 H   0  0  0  0  0  0  0  0  0  0  0  0
   -0.1588   -8.2619    5.3847 H   0  0  0  0  0  0  0  0  0  0  0  0
   -1.2449   -9.6964    3.6732 H   0  0  0  0  0  0  0  0  0  0  0  0
    0.1384  -10.9578    2.0361 H   0  0  0  0  0  0  0  0  0  0  0  0
    0.4073  -11.5710    3.6536 H   0  0  0  0  0  0  0  0  0  0  0  0
   -0.5793   -7.4329    3.0166 H   0  0  0  0  0  0  0  0  0  0  0  0
   -0.4744   -8.5418    1.6726 H   0  0  0  0  0  0  0  0  0  0  0  0
    3.0989   -7.2911    3.8449 H   0  0  0  0  0  0  0  0  0  0  0  0
    1.5222   -6.6905    4.2589 H   0  0  0  0  0  0  0  0  0  0  0  0
    2.2109   -2.6009   -1.5682 H   0  0  0  0  0  0  0  0  0  0  0  0
    4.6540   -2.1512   -1.7936 H   0  0  0  0  0  0  0  0  0  0  0  0
    6.2715   -3.6974   -0.5855 H   0  0  0  0  0  0  0  0  0  0  0  0
  1  2  1  0
  1 23  1  0
  1 24  1  0
  1 25  1  0
  2 22  1  0
  2  3  1  0
  3  4  2  0
  3 26  1  0
  4  5  1  0
  4 17  1  0
  5  6  2  0
  7  5  1  6
  7 15  1  0
  7 16  1  0
  7  8  1  0
  8  9  1  0
  8 27  1  0
  8 28  1  0
  9 14  1  0
  9 10  1  0
  9 29  1  6
 10 11  1  0
 10 30  1  0
 10 31  1  0
 11 12  1  0
 11 16  1  0
 11 32  1  1
 12 13  1  0
 12 33  1  0
 12 34  1  0
 13 14  1  0
 13 15  1  0
 13 35  1  1
 14 36  1  0
 14 37  1  0
 15 38  1  0
 15 39  1  0
 16 40  1  0
 16 41  1  0
 17 22  2  0
 17 18  1  0
 18 19  2  0
 19 20  1  0
 19 42  1  0
 20 21  2  0
 20 43  1  0
 21 22  1  0
 21 44  1  0
M  END
>  <i_m_ct_stereo_status>  (329) 
1

>  <s_m_source_file>  (329) 
/var/tmp/pbs.5076255.sched01/tmpfsvwwkaa/138cw1meju8.sdf

>  <i_m_source_file_index>  (329) 
3

>  <i_lp_mmshare_version>  (329) 
48012

>  <i_f3d_flags>  (329) 
0

>  <s_epik_input>  (329) 
bjFbY0hdW2NIXVtjSF1jKGMxMiluKFtDSDNdKVtjSF1jMkMoPU8pQzM0W0NIMl1bQ0BIXTVbQ0gyXVtDQEBIXShbQ0gyXTQpW0NIMl1bQ0BIXShbQ0gyXTUpW0NIMl0z

>  <s_epik_cmdline>  (329) 
J2VwaWtfcHl0aG9uJywgJy1waHQnLCAnMi4wJywgJy1waCcsICc3LjAnLCAnLXRuJywgJzgnLCAnLW1hJywgJzIwMCcsICctaW1hZScsICc8aW5maWxlLm1hZT4nLCAnLW9tYWUnLCAnPG91dGZpbGUubWFlPic=

>  <r_epik_Ionization_Penalty>  (329) 
0.109661

>  <r_epik_Ionization_Penalty_Charging>  (329) 
0

>  <r_epik_Ionization_Penalty_Neutral>  (329) 
0.109661

>  <r_epik_State_Penalty>  (329) 
0.099427

>  <r_epik_Charging_Adjusted_Penalty>  (329) 
0.099427

>  <i_epik_Tot_Q>  (329) 
0

>  <i_epik_Tot_abs_Q>  (329) 
0

>  <s_lp_Force_Field>  (329) 
OPLS3e

>  <r_lp_Energy>  (329) 
20.5984

>  <b_lp_Chiralities_Consistent>  (329) 
1

>  <s_lp_Variant>  (329) 
95:0-1

>  <s_i_glide_gridfile>  (329) 
pfpi4k_grid

>  <i_i_glide_lignum>  (329) 
3

>  <i_i_glide_rotatable_bonds>  (329) 
2

>  <r_i_docking_score>  (329) 
-3.52677

>  <r_i_glide_ligand_efficiency>  (329) 
-0.160308

>  <r_i_glide_ligand_efficiency_sa>  (329) 
-0.449188

>  <r_i_glide_ligand_efficiency_ln>  (329) 
-0.86207

>  <r_i_glide_gscore>  (329) 
-3.52677

>  <r_i_glide_lipo>  (329) 
-0.482875

>  <r_i_glide_hbond>  (329) 
-0.16

>  <r_i_glide_metal>  (329) 
-0

>  <r_i_glide_rewards>  (329) 
-1.52526

>  <r_i_glide_evdw>  (329) 
-22.938

>  <r_i_glide_ecoul>  (329) 
-3.93745

>  <r_i_glide_erotb>  (329) 
0.422032

>  <r_i_glide_esite>  (329) 
-0.0431429

>  <r_i_glide_emodel>  (329) 
-33.9522

>  <r_i_glide_energy>  (329) 
-26.8755

>  <r_i_glide_einternal>  (329) 
0.0498983

>  <r_i_glide_intrahb_reward>  (329) 
-0

>  <i_i_glide_confnum>  (329) 
3

>  <i_i_glide_posenum>  (329) 
6

>  <r_i_glide_eff_state_penalty>  (329) 
0

>  <ligand_id>  (329) 
95

>  <original_smiles>  (329) 
Cn1cc(C(=O)C23CC4CC(CC(C4)C2)C3)c2ncccc21

>  <smiles>  (329) 
[H]c1nc2c(C(=O)C34C([H])([H])C5([H])C([H])([H])C([H])(C([H])([H])C([H])(C5([H])[H])C3([H])[H])C4([H])[H])c([H])n(C([H])([H])[H])c2c([H])c1[H]

$$$$
95:0:2
     RDKit          3D

 44 48  0  0  1  0  0  0  0  0999 V2000
    6.1734   -8.8876    1.2812 C   0  0  0  0  0  0  0  0  0  0  0  0
    5.0264   -7.9988    1.2647 N   0  0  0  0  0  0  0  0  0  0  0  0
    5.0477   -6.6854    0.8495 C   0  0  0  0  0  0  0  0  0  0  0  0
    3.7955   -6.1152    0.9857 C   0  0  0  0  0  0  0  0  0  0  0  0
    3.3889   -4.7452    0.6922 C   0  0  0  0  0  0  0  0  0  0  0  0
    2.2162   -4.3873    0.8561 O   0  0  0  0  0  0  0  0  0  0  0  0
    4.3920   -3.6827    0.1695 C   0  0  2  0  0  0  0  0  0  0  0  0
    4.8942   -4.0737   -1.2549 C   0  0  0  0  0  0  0  0  0  0  0  0
    5.8836   -3.0147   -1.7766 C   0  0  1  0  0  0  0  0  0  0  0  0
    5.1643   -1.6533   -1.8809 C   0  0  0  0  0  0  0  0  0  0  0  0
    4.6840   -1.2207   -0.4877 C   0  0  2  0  0  0  0  0  0  0  0  0
    5.8768   -1.0943    0.4763 C   0  0  0  0  0  0  0  0  0  0  0  0
    6.5741   -2.4577    0.5870 C   0  0  2  0  0  0  0  0  0  0  0  0
    7.0744   -2.9194   -0.8009 C   0  0  0  0  0  0  0  0  0  0  0  0
    5.5893   -3.4870    1.1537 C   0  0  0  0  0  0  0  0  0  0  0  0
    3.6953   -2.2785    0.0444 C   0  0  0  0  0  0  0  0  0  0  0  0
    2.9419   -7.1599    1.4737 C   0  0  0  0  0  0  0  0  0  0  0  0
    1.6232   -7.1511    1.7411 N   0  0  0  0  0  0  0  0  0  0  0  0
    1.0691   -8.3068    2.1889 C   0  0  0  0  0  0  0  0  0  0  0  0
    1.7760   -9.4994    2.3873 C   0  0  0  0  0  0  0  0  0  0  0  0
    3.1566   -9.5175    2.0962 C   0  0  0  0  0  0  0  0  0  0  0  0
    3.7349   -8.3289    1.6395 C   0  0  0  0  0  0  0  0  0  0  0  0
    7.0692   -8.3614    0.9493 H   0  0  0  0  0  0  0  0  0  0  0  0
    5.9877   -9.7314    0.6164 H   0  0  0  0  0  0  0  0  0  0  0  0
    6.3371   -9.2526    2.2955 H   0  0  0  0  0  0  0  0  0  0  0  0
    5.9791   -6.2880    0.4820 H   0  0  0  0  0  0  0  0  0  0  0  0
    5.3780   -5.0471   -1.2605 H   0  0  0  0  0  0  0  0  0  0  0  0
    4.0485   -4.1617   -1.9409 H   0  0  0  0  0  0  0  0  0  0  0  0
    6.2373   -3.3173   -2.7612 H   0  0  0  0  0  0  0  0  0  0  0  0
    5.8165   -0.8917   -2.2958 H   0  0  0  0  0  0  0  0  0  0  0  0
    4.3163   -1.7286   -2.5607 H   0  0  0  0  0  0  0  0  0  0  0  0
    4.1839   -0.2577   -0.5543 H   0  0  0  0  0  0  0  0  0  0  0  0
    6.5767   -0.3333    0.1295 H   0  0  0  0  0  0  0  0  0  0  0  0
    5.5329   -0.7787    1.4634 H   0  0  0  0  0  0  0  0  0  0  0  0
    7.4133   -2.3900    1.2753 H   0  0  0  0  0  0  0  0  0  0  0  0
    7.5614   -3.8890   -0.7147 H   0  0  0  0  0  0  0  0  0  0  0  0
    7.8350   -2.2445   -1.1890 H   0  0  0  0  0  0  0  0  0  0  0  0
    5.2176   -3.1900    2.1355 H   0  0  0  0  0  0  0  0  0  0  0  0
    6.1838   -4.3761    1.3271 H   0  0  0  0  0  0  0  0  0  0  0  0
    2.8268   -2.3177   -0.6202 H   0  0  0  0  0  0  0  0  0  0  0  0
    3.3118   -1.9540    1.0141 H   0  0  0  0  0  0  0  0  0  0  0  0
    0.0034   -8.2580    2.3817 H   0  0  0  0  0  0  0  0  0  0  0  0
    1.2758  -10.3990    2.7309 H   0  0  0  0  0  0  0  0  0  0  0  0
    3.7514  -10.4142    2.1962 H   0  0  0  0  0  0  0  0  0  0  0  0
  1  2  1  0
  1 23  1  0
  1 24  1  0
  1 25  1  0
  2 22  1  0
  2  3  1  0
  3  4  2  0
  3 26  1  0
  4  5  1  0
  4 17  1  0
  5  6  2  0
  7  5  1  1
  7 15  1  0
  7 16  1  0
  7  8  1  0
  8  9  1  0
  8 27  1  0
  8 28  1  0
  9 14  1  0
  9 10  1  0
  9 29  1  6
 10 11  1  0
 10 30  1  0
 10 31  1  0
 11 12  1  0
 11 16  1  0
 11 32  1  6
 12 13  1  0
 12 33  1  0
 12 34  1  0
 13 14  1  0
 13 15  1  0
 13 35  1  1
 14 36  1  0
 14 37  1  0
 15 38  1  0
 15 39  1  0
 16 40  1  0
 16 41  1  0
 17 22  2  0
 17 18  1  0
 18 19  2  0
 19 20  1  0
 19 42  1  0
 20 21  2  0
 20 43  1  0
 21 22  1  0
 21 44  1  0
M  END
>  <i_m_ct_stereo_status>  (330) 
1

>  <s_m_source_file>  (330) 
/var/tmp/pbs.5076255.sched01/tmpfsvwwkaa/138cw1meju8.sdf

>  <i_m_source_file_index>  (330) 
3

>  <i_lp_mmshare_version>  (330) 
48012

>  <i_f3d_flags>  (330) 
0

>  <s_epik_input>  (330) 
bjFbY0hdW2NIXVtjSF1jKGMxMiluKFtDSDNdKVtjSF1jMkMoPU8pQzM0W0NIMl1bQ0BIXTVbQ0gyXVtDQEBIXShbQ0gyXTQpW0NIMl1bQ0BIXShbQ0gyXTUpW0NIMl0z

>  <s_epik_cmdline>  (330) 
J2VwaWtfcHl0aG9uJywgJy1waHQnLCAnMi4wJywgJy1waCcsICc3LjAnLCAnLXRuJywgJzgnLCAnLW1hJywgJzIwMCcsICctaW1hZScsICc8aW5maWxlLm1hZT4nLCAnLW9tYWUnLCAnPG91dGZpbGUubWFlPic=

>  <r_epik_Ionization_Penalty>  (330) 
0.109661

>  <r_epik_Ionization_Penalty_Charging>  (330) 
0

>  <r_epik_Ionization_Penalty_Neutral>  (330) 
0.109661

>  <r_epik_State_Penalty>  (330) 
0.099427

>  <r_epik_Charging_Adjusted_Penalty>  (330) 
0.099427

>  <i_epik_Tot_Q>  (330) 
0

>  <i_epik_Tot_abs_Q>  (330) 
0

>  <s_lp_Force_Field>  (330) 
OPLS3e

>  <r_lp_Energy>  (330) 
20.5984

>  <b_lp_Chiralities_Consistent>  (330) 
1

>  <s_lp_Variant>  (330) 
95:0-1

>  <s_i_glide_gridfile>  (330) 
pfpi4k_grid

>  <i_i_glide_lignum>  (330) 
3

>  <i_i_glide_rotatable_bonds>  (330) 
2

>  <r_i_docking_score>  (330) 
-3.21163

>  <r_i_glide_ligand_efficiency>  (330) 
-0.145983

>  <r_i_glide_ligand_efficiency_sa>  (330) 
-0.40905

>  <r_i_glide_ligand_efficiency_ln>  (330) 
-0.785039

>  <r_i_glide_gscore>  (330) 
-3.21163

>  <r_i_glide_lipo>  (330) 
-0.765342

>  <r_i_glide_hbond>  (330) 
-0.00525243

>  <r_i_glide_metal>  (330) 
-0

>  <r_i_glide_rewards>  (330) 
-1.48459

>  <r_i_glide_evdw>  (330) 
-24.5162

>  <r_i_glide_ecoul>  (330) 
-0.972967

>  <r_i_glide_erotb>  (330) 
0.422032

>  <r_i_glide_esite>  (330) 
-0.00672261

>  <r_i_glide_emodel>  (330) 
-31.7764

>  <r_i_glide_energy>  (330) 
-25.4892

>  <r_i_glide_einternal>  (330) 
0.232156

>  <r_i_glide_intrahb_reward>  (330) 
-0

>  <i_i_glide_confnum>  (330) 
1

>  <i_i_glide_posenum>  (330) 
12

>  <r_i_glide_eff_state_penalty>  (330) 
0

>  <ligand_id>  (330) 
95

>  <original_smiles>  (330) 
Cn1cc(C(=O)C23CC4CC(CC(C4)C2)C3)c2ncccc21

>  <smiles>  (330) 
[H]c1nc2c(C(=O)C34C([H])([H])C5([H])C([H])([H])C([H])(C([H])([H])C([H])(C5([H])[H])C3([H])[H])C4([H])[H])c([H])n(C([H])([H])[H])c2c([H])c1[H]

$$$$
95:1:0
     RDKit          3D

 45 49  0  0  1  0  0  0  0  0999 V2000
    6.8786   -6.2368    1.4142 C   0  0  0  0  0  0  0  0  0  0  0  0
    5.4797   -5.9822    1.1337 N   0  0  0  0  0  0  0  0  0  0  0  0
    4.4108   -6.7375    1.5979 C   0  0  0  0  0  0  0  0  0  0  0  0
    3.2149   -6.2301    1.1397 C   0  0  0  0  0  0  0  0  0  0  0  0
    1.8532   -6.7346    1.3576 C   0  0  0  0  0  0  0  0  0  0  0  0
    0.8932   -6.2536    0.7471 O   0  0  0  0  0  0  0  0  0  0  0  0
    1.5824   -7.8783    2.3709 C   0  0  2  0  0  0  0  0  0  0  0  0
    2.2678   -9.2031    1.9097 C   0  0  0  0  0  0  0  0  0  0  0  0
    1.9807  -10.3223    2.9235 C   0  0  1  0  0  0  0  0  0  0  0  0
    2.5071   -9.9095    4.3166 C   0  0  0  0  0  0  0  0  0  0  0  0
    1.7775   -8.6342    4.7875 C   0  0  2  0  0  0  0  0  0  0  0  0
    0.2612   -8.9016    4.8581 C   0  0  0  0  0  0  0  0  0  0  0  0
   -0.2437   -9.2968    3.4588 C   0  0  2  0  0  0  0  0  0  0  0  0
    0.4642  -10.5796    2.9811 C   0  0  0  0  0  0  0  0  0  0  0  0
    0.0429   -8.1522    2.4689 C   0  0  0  0  0  0  0  0  0  0  0  0
    2.0635   -7.4849    3.8005 C   0  0  0  0  0  0  0  0  0  0  0  0
    3.5742   -5.0811    0.3529 C   0  0  0  0  0  0  0  0  0  0  0  0
    2.8399   -4.2003   -0.3245 N   0  0  0  0  0  0  0  0  0  0  0  0
    3.3687   -3.1606   -1.0110 C   0  0  0  0  0  0  0  0  0  0  0  0
    4.7704   -2.9774   -1.0340 C   0  0  0  0  0  0  0  0  0  0  0  0
    5.5999   -3.8850   -0.3333 C   0  0  0  0  0  0  0  0  0  0  0  0
    4.9880   -4.9448    0.3641 C   0  0  0  0  0  0  0  0  0  0  0  0
    6.9947   -7.1225    2.0452 H   0  0  0  0  0  0  0  0  0  0  0  0
    7.3093   -5.3803    1.9345 H   0  0  0  0  0  0  0  0  0  0  0  0
    7.4232   -6.3989    0.4820 H   0  0  0  0  0  0  0  0  0  0  0  0
    4.6289   -7.5820    2.2321 H   0  0  0  0  0  0  0  0  0  0  0  0
    1.9158   -9.4891    0.9165 H   0  0  0  0  0  0  0  0  0  0  0  0
    3.3479   -9.1316    1.8246 H   0  0  0  0  0  0  0  0  0  0  0  0
    2.4929  -11.2285    2.6008 H   0  0  0  0  0  0  0  0  0  0  0  0
    2.3585  -10.7153    5.0362 H   0  0  0  0  0  0  0  0  0  0  0  0
    3.5822   -9.7312    4.2750 H   0  0  0  0  0  0  0  0  0  0  0  0
    2.1396   -8.3546    5.7759 H   0  0  0  0  0  0  0  0  0  0  0  0
    0.0473   -9.6954    5.5720 H   0  0  0  0  0  0  0  0  0  0  0  0
   -0.2625   -8.0130    5.2110 H   0  0  0  0  0  0  0  0  0  0  0  0
   -1.3194   -9.4666    3.4984 H   0  0  0  0  0  0  0  0  0  0  0  0
    0.0995  -10.8595    1.9926 H   0  0  0  0  0  0  0  0  0  0  0  0
    0.2404  -11.4126    3.6456 H   0  0  0  0  0  0  0  0  0  0  0  0
   -0.4952   -7.2564    2.7911 H   0  0  0  0  0  0  0  0  0  0  0  0
   -0.3699   -8.4131    1.4915 H   0  0  0  0  0  0  0  0  0  0  0  0
    3.1294   -7.2667    3.8355 H   0  0  0  0  0  0  0  0  0  0  0  0
    1.5636   -6.5719    4.1325 H   0  0  0  0  0  0  0  0  0  0  0  0
    2.6612   -2.5213   -1.5241 H   0  0  0  0  0  0  0  0  0  0  0  0
    5.2063   -2.1528   -1.5860 H   0  0  0  0  0  0  0  0  0  0  0  0
    6.6766   -3.7847   -0.3257 H   0  0  0  0  0  0  0  0  0  0  0  0
    1.8338   -4.3419   -0.3448 H   0  0  0  0  0  0  0  0  0  0  0  0
  1  2  1  0
  1 23  1  0
  1 24  1  0
  1 25  1  0
  2 22  1  0
  2  3  1  0
  3  4  2  0
  3 26  1  0
  4  5  1  0
  4 17  1  0
  5  6  2  0
  7  5  1  6
  7 15  1  0
  7 16  1  0
  7  8  1  0
  8  9  1  0
  8 27  1  0
  8 28  1  0
  9 14  1  0
  9 10  1  0
  9 29  1  6
 10 11  1  0
 10 30  1  0
 10 31  1  0
 11 12  1  0
 11 16  1  0
 11 32  1  1
 12 13  1  0
 12 33  1  0
 12 34  1  0
 13 14  1  0
 13 15  1  0
 13 35  1  1
 14 36  1  0
 14 37  1  0
 15 38  1  0
 15 39  1  0
 16 40  1  0
 16 41  1  0
 17 22  2  0
 17 18  1  0
 18 19  2  0
 18 45  1  0
 19 20  1  0
 19 42  1  0
 20 21  2  0
 20 43  1  0
 21 22  1  0
 21 44  1  0
M  CHG  1  18   1
M  END
>  <i_m_ct_stereo_status>  (331) 
1

>  <s_m_source_file>  (331) 
/var/tmp/pbs.5076255.sched01/tmpfsvwwkaa/138cw1meju8.sdf

>  <i_m_source_file_index>  (331) 
4

>  <i_lp_mmshare_version>  (331) 
48012

>  <i_f3d_flags>  (331) 
0

>  <s_epik_input>  (331) 
bjFbY0hdW2NIXVtjSF1jKGMxMiluKFtDSDNdKVtjSF1jMkMoPU8pQzM0W0NIMl1bQ0BIXTVbQ0gyXVtDQEBIXShbQ0gyXTQpW0NIMl1bQ0BIXShbQ0gyXTUpW0NIMl0z

>  <s_epik_cmdline>  (331) 
J2VwaWtfcHl0aG9uJywgJy1waHQnLCAnMi4wJywgJy1waCcsICc3LjAnLCAnLXRuJywgJzgnLCAnLW1hJywgJzIwMCcsICctaW1hZScsICc8aW5maWxlLm1hZT4nLCAnLW9tYWUnLCAnPG91dGZpbGUubWFlPic=

>  <r_epik_Ionization_Penalty>  (331) 
1.05347

>  <r_epik_Ionization_Penalty_Charging>  (331) 
1.05347

>  <r_epik_Ionization_Penalty_Neutral>  (331) 
0

>  <r_epik_State_Penalty>  (331) 
1.10655

>  <r_epik_Charging_Adjusted_Penalty>  (331) 
2.16002

>  <i_epik_Tot_Q>  (331) 
1

>  <i_epik_Tot_abs_Q>  (331) 
1

>  <s_lp_Force_Field>  (331) 
OPLS3e

>  <r_lp_Energy>  (331) 
20.9496

>  <b_lp_Chiralities_Consistent>  (331) 
1

>  <s_lp_Variant>  (331) 
95:0-2

>  <s_i_glide_gridfile>  (331) 
pfpi4k_grid

>  <i_i_glide_lignum>  (331) 
4

>  <i_i_glide_rotatable_bonds>  (331) 
2

>  <r_i_docking_score>  (331) 
-3.55104

>  <r_i_glide_ligand_efficiency>  (331) 
-0.161411

>  <r_i_glide_ligand_efficiency_sa>  (331) 
-0.45228

>  <r_i_glide_ligand_efficiency_ln>  (331) 
-0.868005

>  <r_i_glide_gscore>  (331) 
-3.55104

>  <r_i_glide_lipo>  (331) 
-0.526118

>  <r_i_glide_hbond>  (331) 
-0.16

>  <r_i_glide_metal>  (331) 
-0

>  <r_i_glide_rewards>  (331) 
-1.51139

>  <r_i_glide_evdw>  (331) 
-23.2637

>  <r_i_glide_ecoul>  (331) 
-3.55748

>  <r_i_glide_erotb>  (331) 
0.41952

>  <r_i_glide_esite>  (331) 
-0.0762482

>  <r_i_glide_emodel>  (331) 
-33.3954

>  <r_i_glide_energy>  (331) 
-26.8212

>  <r_i_glide_einternal>  (331) 
0.168488

>  <r_i_glide_intrahb_reward>  (331) 
-0

>  <i_i_glide_confnum>  (331) 
3

>  <i_i_glide_posenum>  (331) 
7

>  <r_i_glide_eff_state_penalty>  (331) 
0

>  <ligand_id>  (331) 
95

>  <original_smiles>  (331) 
Cn1cc(C(=O)C23CC4CC(CC(C4)C2)C3)c2ncccc21

>  <smiles>  (331) 
[H]c1c([H])c2c(c(C(=O)C34C([H])([H])C5([H])C([H])([H])C([H])(C([H])([H])C([H])(C5([H])[H])C3([H])[H])C4([H])[H])c([H])n2C([H])([H])[H])[n+]([H])c1[H]

$$$$
95:1:1
     RDKit          3D

 45 49  0  0  1  0  0  0  0  0999 V2000
    1.5625    5.1368    3.5237 C   0  0  0  0  0  0  0  0  0  0  0  0
    0.9446    3.9194    4.0356 N   0  0  0  0  0  0  0  0  0  0  0  0
    0.1738    3.8533    5.1703 C   0  0  0  0  0  0  0  0  0  0  0  0
   -0.2687    2.5683    5.4193 C   0  0  0  0  0  0  0  0  0  0  0  0
   -1.1136    2.0418    6.5201 C   0  0  0  0  0  0  0  0  0  0  0  0
   -1.5932    0.9037    6.4655 O   0  0  0  0  0  0  0  0  0  0  0  0
   -1.4116    2.8540    7.8161 C   0  0  2  0  0  0  0  0  0  0  0  0
   -0.7377    4.2452    7.8419 C   0  0  0  0  0  0  0  0  0  0  0  0
   -1.0044    5.0328    9.1104 C   0  0  1  0  0  0  0  0  0  0  0  0
   -2.5171    5.2776    9.1799 C   0  0  0  0  0  0  0  0  0  0  0  0
   -3.2402    3.9152    9.2213 C   0  0  2  0  0  0  0  0  0  0  0  0
   -2.7544    3.1371   10.4623 C   0  0  0  0  0  0  0  0  0  0  0  0
   -1.2341    2.8809   10.3555 C   0  0  2  0  0  0  0  0  0  0  0  0
   -0.4860    4.2336   10.3110 C   0  0  0  0  0  0  0  0  0  0  0  0
   -0.9316    2.0657    9.0731 C   0  0  0  0  0  0  0  0  0  0  0  0
   -2.9373    3.0970    7.9448 C   0  0  0  0  0  0  0  0  0  0  0  0
    0.2534    1.7967    4.3203 C   0  0  0  0  0  0  0  0  0  0  0  0
    0.1614    0.5070    4.0088 N   0  0  0  0  0  0  0  0  0  0  0  0
    0.7561   -0.0395    2.9184 C   0  0  0  0  0  0  0  0  0  0  0  0
    1.5213    0.7799    2.0434 C   0  0  0  0  0  0  0  0  0  0  0  0
    1.6483    2.1551    2.3403 C   0  0  0  0  0  0  0  0  0  0  0  0
    1.0152    2.6617    3.4802 C   0  0  0  0  0  0  0  0  0  0  0  0
    1.3257    5.9677    4.1894 H   0  0  0  0  0  0  0  0  0  0  0  0
    1.1678    5.3750    2.5359 H   0  0  0  0  0  0  0  0  0  0  0  0
    2.6458    5.0234    3.4929 H   0  0  0  0  0  0  0  0  0  0  0  0
    0.0590    4.7920    5.6714 H   0  0  0  0  0  0  0  0  0  0  0  0
    0.3405    4.1507    7.7465 H   0  0  0  0  0  0  0  0  0  0  0  0
   -1.1591    4.8547    7.0617 H   0  0  0  0  0  0  0  0  0  0  0  0
   -0.4688    5.9733    9.0327 H   0  0  0  0  0  0  0  0  0  0  0  0
   -2.7655    5.8995   10.0403 H   0  0  0  0  0  0  0  0  0  0  0  0
   -2.8393    5.8306    8.2988 H   0  0  0  0  0  0  0  0  0  0  0  0
   -4.3142    4.0871    9.2745 H   0  0  0  0  0  0  0  0  0  0  0  0
   -2.9770    3.7032   11.3681 H   0  0  0  0  0  0  0  0  0  0  0  0
   -3.2876    2.1933   10.5472 H   0  0  0  0  0  0  0  0  0  0  0  0
   -0.9021    2.3190   11.2312 H   0  0  0  0  0  0  0  0  0  0  0  0
    0.5886    4.0550   10.2000 H   0  0  0  0  0  0  0  0  0  0  0  0
   -0.6277    4.8057   11.2323 H   0  0  0  0  0  0  0  0  0  0  0  0
   -1.4170    1.0931    9.1391 H   0  0  0  0  0  0  0  0  0  0  0  0
    0.1378    1.8558    9.0094 H   0  0  0  0  0  0  0  0  0  0  0  0
   -3.3101    3.6173    7.0615 H   0  0  0  0  0  0  0  0  0  0  0  0
   -3.4656    2.1466    7.9790 H   0  0  0  0  0  0  0  0  0  0  0  0
    0.6144   -1.1043    2.7537 H   0  0  0  0  0  0  0  0  0  0  0  0
    1.9820    0.3785    1.1428 H   0  0  0  0  0  0  0  0  0  0  0  0
    2.1877    2.8571    1.7141 H   0  0  0  0  0  0  0  0  0  0  0  0
   -0.3870   -0.0821    4.6402 H   0  0  0  0  0  0  0  0  0  0  0  0
  1  2  1  0
  1 23  1  0
  1 24  1  0
  1 25  1  0
  2 22  1  0
  2  3  1  0
  3  4  2  0
  3 26  1  0
  4  5  1  0
  4 17  1  0
  5  6  2  0
  7  5  1  6
  7 15  1  0
  7 16  1  0
  7  8  1  0
  8  9  1  0
  8 27  1  0
  8 28  1  0
  9 14  1  0
  9 10  1  0
  9 29  1  6
 10 11  1  0
 10 30  1  0
 10 31  1  0
 11 12  1  0
 11 16  1  0
 11 32  1  1
 12 13  1  0
 12 33  1  0
 12 34  1  0
 13 14  1  0
 13 15  1  0
 13 35  1  1
 14 36  1  0
 14 37  1  0
 15 38  1  0
 15 39  1  0
 16 40  1  0
 16 41  1  0
 17 22  2  0
 17 18  1  0
 18 19  2  0
 18 45  1  0
 19 20  1  0
 19 42  1  0
 20 21  2  0
 20 43  1  0
 21 22  1  0
 21 44  1  0
M  CHG  1  18   1
M  END
>  <i_m_ct_stereo_status>  (332) 
1

>  <s_m_source_file>  (332) 
/var/tmp/pbs.5076255.sched01/tmpfsvwwkaa/138cw1meju8.sdf

>  <i_m_source_file_index>  (332) 
4

>  <i_lp_mmshare_version>  (332) 
48012

>  <i_f3d_flags>  (332) 
0

>  <s_epik_input>  (332) 
bjFbY0hdW2NIXVtjSF1jKGMxMiluKFtDSDNdKVtjSF1jMkMoPU8pQzM0W0NIMl1bQ0BIXTVbQ0gyXVtDQEBIXShbQ0gyXTQpW0NIMl1bQ0BIXShbQ0gyXTUpW0NIMl0z

>  <s_epik_cmdline>  (332) 
J2VwaWtfcHl0aG9uJywgJy1waHQnLCAnMi4wJywgJy1waCcsICc3LjAnLCAnLXRuJywgJzgnLCAnLW1hJywgJzIwMCcsICctaW1hZScsICc8aW5maWxlLm1hZT4nLCAnLW9tYWUnLCAnPG91dGZpbGUubWFlPic=

>  <r_epik_Ionization_Penalty>  (332) 
1.05347

>  <r_epik_Ionization_Penalty_Charging>  (332) 
1.05347

>  <r_epik_Ionization_Penalty_Neutral>  (332) 
0

>  <r_epik_State_Penalty>  (332) 
1.10655

>  <r_epik_Charging_Adjusted_Penalty>  (332) 
2.16002

>  <i_epik_Tot_Q>  (332) 
1

>  <i_epik_Tot_abs_Q>  (332) 
1

>  <s_lp_Force_Field>  (332) 
OPLS3e

>  <r_lp_Energy>  (332) 
20.9496

>  <b_lp_Chiralities_Consistent>  (332) 
1

>  <s_lp_Variant>  (332) 
95:0-2

>  <s_i_glide_gridfile>  (332) 
pfpi4k_grid

>  <i_i_glide_lignum>  (332) 
4

>  <i_i_glide_rotatable_bonds>  (332) 
2

>  <r_i_docking_score>  (332) 
-3.4032

>  <r_i_glide_ligand_efficiency>  (332) 
-0.154691

>  <r_i_glide_ligand_efficiency_sa>  (332) 
-0.43345

>  <r_i_glide_ligand_efficiency_ln>  (332) 
-0.831867

>  <r_i_glide_gscore>  (332) 
-3.4032

>  <r_i_glide_lipo>  (332) 
-0.183691

>  <r_i_glide_hbond>  (332) 
-0.0663758

>  <r_i_glide_metal>  (332) 
-0

>  <r_i_glide_rewards>  (332) 
-1.89501

>  <r_i_glide_evdw>  (332) 
-19.6408

>  <r_i_glide_ecoul>  (332) 
-4.12475

>  <r_i_glide_erotb>  (332) 
0.41952

>  <r_i_glide_esite>  (332) 
-0.0768964

>  <r_i_glide_emodel>  (332) 
-30.0703

>  <r_i_glide_energy>  (332) 
-23.7655

>  <r_i_glide_einternal>  (332) 
7.83866

>  <r_i_glide_intrahb_reward>  (332) 
-0.5

>  <i_i_glide_confnum>  (332) 
1

>  <i_i_glide_posenum>  (332) 
29

>  <r_i_glide_eff_state_penalty>  (332) 
0

>  <ligand_id>  (332) 
95

>  <original_smiles>  (332) 
Cn1cc(C(=O)C23CC4CC(CC(C4)C2)C3)c2ncccc21

>  <smiles>  (332) 
[H]c1c([H])c2c(c(C(=O)C34C([H])([H])C5([H])C([H])([H])C([H])(C([H])([H])C([H])(C5([H])[H])C3([H])[H])C4([H])[H])c([H])n2C([H])([H])[H])[n+]([H])c1[H]

$$$$
95:1:2
     RDKit          3D

 45 49  0  0  1  0  0  0  0  0999 V2000
    3.5497    3.3193    4.7982 C   0  0  0  0  0  0  0  0  0  0  0  0
    2.1218    3.0799    4.8249 N   0  0  0  0  0  0  0  0  0  0  0  0
    1.2595    3.4295    5.8525 C   0  0  0  0  0  0  0  0  0  0  0  0
   -0.0347    3.0697    5.5521 C   0  0  0  0  0  0  0  0  0  0  0  0
   -1.2629    3.2885    6.3223 C   0  0  0  0  0  0  0  0  0  0  0  0
   -2.3662    3.2015    5.7790 O   0  0  0  0  0  0  0  0  0  0  0  0
   -1.1924    3.5798    7.8451 C   0  0  2  0  0  0  0  0  0  0  0  0
   -0.5627    4.9805    8.1216 C   0  0  0  0  0  0  0  0  0  0  0  0
   -0.5035    5.2469    9.6351 C   0  0  1  0  0  0  0  0  0  0  0  0
   -1.9343    5.2662   10.2022 C   0  0  0  0  0  0  0  0  0  0  0  0
   -2.5769    3.8841    9.9693 C   0  0  2  0  0  0  0  0  0  0  0  0
   -1.7558    2.7951   10.6760 C   0  0  0  0  0  0  0  0  0  0  0  0
   -0.3309    2.7742   10.0964 C   0  0  2  0  0  0  0  0  0  0  0  0
    0.3379    4.1454   10.3206 C   0  0  0  0  0  0  0  0  0  0  0  0
   -0.3834    2.4707    8.5858 C   0  0  0  0  0  0  0  0  0  0  0  0
   -2.6304    3.5881    8.4579 C   0  0  0  0  0  0  0  0  0  0  0  0
    0.0359    2.4501    4.2603 C   0  0  0  0  0  0  0  0  0  0  0  0
   -0.8993    1.8996    3.4818 N   0  0  0  0  0  0  0  0  0  0  0  0
   -0.6171    1.3429    2.2815 C   0  0  0  0  0  0  0  0  0  0  0  0
    0.7161    1.3213    1.8197 C   0  0  0  0  0  0  0  0  0  0  0  0
    1.7417    1.8972    2.5932 C   0  0  0  0  0  0  0  0  0  0  0  0
    1.3903    2.4630    3.8314 C   0  0  0  0  0  0  0  0  0  0  0  0
    3.8712    3.8322    5.7066 H   0  0  0  0  0  0  0  0  0  0  0  0
    3.8055    3.9388    3.9358 H   0  0  0  0  0  0  0  0  0  0  0  0
    4.0800    2.3688    4.7231 H   0  0  0  0  0  0  0  0  0  0  0  0
    1.6932    3.9081    6.7141 H   0  0  0  0  0  0  0  0  0  0  0  0
    0.4548    5.0826    7.7585 H   0  0  0  0  0  0  0  0  0  0  0  0
   -1.1398    5.7616    7.6239 H   0  0  0  0  0  0  0  0  0  0  0  0
   -0.0310    6.2138    9.8050 H   0  0  0  0  0  0  0  0  0  0  0  0
   -1.9257    5.5132   11.2631 H   0  0  0  0  0  0  0  0  0  0  0  0
   -2.5176    6.0427    9.7035 H   0  0  0  0  0  0  0  0  0  0  0  0
   -3.5883    3.8765   10.3697 H   0  0  0  0  0  0  0  0  0  0  0  0
   -1.7226    2.9977   11.7420 H   0  0  0  0  0  0  0  0  0  0  0  0
   -2.2334    1.8232   10.5613 H   0  0  0  0  0  0  0  0  0  0  0  0
    0.2452    1.9998   10.6030 H   0  0  0  0  0  0  0  0  0  0  0  0
    1.3493    4.1326    9.9147 H   0  0  0  0  0  0  0  0  0  0  0  0
    0.4386    4.3491   11.3867 H   0  0  0  0  0  0  0  0  0  0  0  0
   -0.8385    1.4910    8.4236 H   0  0  0  0  0  0  0  0  0  0  0  0
    0.6397    2.3904    8.2197 H   0  0  0  0  0  0  0  0  0  0  0  0
   -3.2514    4.3473    7.9781 H   0  0  0  0  0  0  0  0  0  0  0  0
   -3.1323    2.6297    8.2984 H   0  0  0  0  0  0  0  0  0  0  0  0
   -1.4557    0.9499    1.7193 H   0  0  0  0  0  0  0  0  0  0  0  0
    0.9582    0.8750    0.8759 H   0  0  0  0  0  0  0  0  0  0  0  0
    2.7685    1.9123    2.2569 H   0  0  0  0  0  0  0  0  0  0  0  0
   -1.8658    1.9112    3.8109 H   0  0  0  0  0  0  0  0  0  0  0  0
  1  2  1  0
  1 23  1  0
  1 24  1  0
  1 25  1  0
  2 22  1  0
  2  3  1  0
  3  4  2  0
  3 26  1  0
  4  5  1  0
  4 17  1  0
  5  6  2  0
  7  5  1  6
  7 15  1  0
  7 16  1  0
  7  8  1  0
  8  9  1  0
  8 27  1  0
  8 28  1  0
  9 14  1  0
  9 10  1  0
  9 29  1  6
 10 11  1  0
 10 30  1  0
 10 31  1  0
 11 12  1  0
 11 16  1  0
 11 32  1  1
 12 13  1  0
 12 33  1  0
 12 34  1  0
 13 14  1  0
 13 15  1  0
 13 35  1  1
 14 36  1  0
 14 37  1  0
 15 38  1  0
 15 39  1  0
 16 40  1  0
 16 41  1  0
 17 22  2  0
 17 18  1  0
 18 19  2  0
 18 45  1  0
 19 20  1  0
 19 42  1  0
 20 21  2  0
 20 43  1  0
 21 22  1  0
 21 44  1  0
M  CHG  1  18   1
M  END
>  <i_m_ct_stereo_status>  (333) 
1

>  <s_m_source_file>  (333) 
/var/tmp/pbs.5076255.sched01/tmpfsvwwkaa/138cw1meju8.sdf

>  <i_m_source_file_index>  (333) 
4

>  <i_lp_mmshare_version>  (333) 
48012

>  <i_f3d_flags>  (333) 
0

>  <s_epik_input>  (333) 
bjFbY0hdW2NIXVtjSF1jKGMxMiluKFtDSDNdKVtjSF1jMkMoPU8pQzM0W0NIMl1bQ0BIXTVbQ0gyXVtDQEBIXShbQ0gyXTQpW0NIMl1bQ0BIXShbQ0gyXTUpW0NIMl0z

>  <s_epik_cmdline>  (333) 
J2VwaWtfcHl0aG9uJywgJy1waHQnLCAnMi4wJywgJy1waCcsICc3LjAnLCAnLXRuJywgJzgnLCAnLW1hJywgJzIwMCcsICctaW1hZScsICc8aW5maWxlLm1hZT4nLCAnLW9tYWUnLCAnPG91dGZpbGUubWFlPic=

>  <r_epik_Ionization_Penalty>  (333) 
1.05347

>  <r_epik_Ionization_Penalty_Charging>  (333) 
1.05347

>  <r_epik_Ionization_Penalty_Neutral>  (333) 
0

>  <r_epik_State_Penalty>  (333) 
1.10655

>  <r_epik_Charging_Adjusted_Penalty>  (333) 
2.16002

>  <i_epik_Tot_Q>  (333) 
1

>  <i_epik_Tot_abs_Q>  (333) 
1

>  <s_lp_Force_Field>  (333) 
OPLS3e

>  <r_lp_Energy>  (333) 
20.9496

>  <b_lp_Chiralities_Consistent>  (333) 
1

>  <s_lp_Variant>  (333) 
95:0-2

>  <s_i_glide_gridfile>  (333) 
pfpi4k_grid

>  <i_i_glide_lignum>  (333) 
4

>  <i_i_glide_rotatable_bonds>  (333) 
2

>  <r_i_docking_score>  (333) 
-2.49931

>  <r_i_glide_ligand_efficiency>  (333) 
-0.113605

>  <r_i_glide_ligand_efficiency_sa>  (333) 
-0.318325

>  <r_i_glide_ligand_efficiency_ln>  (333) 
-0.610922

>  <r_i_glide_gscore>  (333) 
-2.49931

>  <r_i_glide_lipo>  (333) 
-0.0809843

>  <r_i_glide_hbond>  (333) 
0

>  <r_i_glide_metal>  (333) 
-0

>  <r_i_glide_rewards>  (333) 
-1.42646

>  <r_i_glide_evdw>  (333) 
-17.904

>  <r_i_glide_ecoul>  (333) 
-3.16333

>  <r_i_glide_erotb>  (333) 
0.41952

>  <r_i_glide_esite>  (333) 
-0.0416837

>  <r_i_glide_emodel>  (333) 
-25.2085

>  <r_i_glide_energy>  (333) 
-21.0673

>  <r_i_glide_einternal>  (333) 
0.918298

>  <r_i_glide_intrahb_reward>  (333) 
-0

>  <i_i_glide_confnum>  (333) 
1

>  <i_i_glide_posenum>  (333) 
2

>  <r_i_glide_eff_state_penalty>  (333) 
0

>  <ligand_id>  (333) 
95

>  <original_smiles>  (333) 
Cn1cc(C(=O)C23CC4CC(CC(C4)C2)C3)c2ncccc21

>  <smiles>  (333) 
[H]c1c([H])c2c(c(C(=O)C34C([H])([H])C5([H])C([H])([H])C([H])(C([H])([H])C([H])(C5([H])[H])C3([H])[H])C4([H])[H])c([H])n2C([H])([H])[H])[n+]([H])c1[H]

$$$$
96:0:0
     RDKit          3D

104111  0  0  1  0  0  0  0  0999 V2000
   -0.1189    1.1357    4.2984 C   0  0  0  0  0  0  0  0  0  0  0  0
    0.4029    0.7705    2.8986 C   0  0  1  0  0  0  0  0  0  0  0  0
   -0.7417    0.6609    2.0812 O   0  0  0  0  0  0  0  0  0  0  0  0
    1.3161    1.8666    2.3630 C   0  0  0  0  0  0  0  0  0  0  0  0
    2.6119    1.4374    2.7483 O   0  0  0  0  0  0  0  0  0  0  0  0
    2.7204    0.0246    2.5819 C   0  0  2  0  0  0  0  0  0  0  0  0
    3.2645   -0.2768    1.1871 C   0  0  0  0  0  0  0  0  0  0  0  0
    3.3119   -1.6757    1.0063 O   0  0  0  0  0  0  0  0  0  0  0  0
    4.5042   -2.2617    1.3935 C   0  0  2  0  0  0  0  0  0  0  0  0
    5.2220   -2.6639    0.2658 O   0  0  0  0  0  0  0  0  0  0  0  0
    5.1806   -4.0684    0.1292 C   0  0  0  0  0  0  0  0  0  0  0  0
    4.0457   -4.5040    1.0722 C   0  0  1  0  0  0  0  0  0  0  0  0
    2.7521   -4.3013    0.2155 C   0  0  0  0  0  0  0  0  0  0  0  0
    4.2197   -6.0029    1.3734 C   0  0  0  0  0  0  0  0  0  0  0  0
    3.8114   -6.5242    2.7434 C   0  0  0  0  0  0  0  0  0  0  0  0
    2.4394   -6.2302    3.4174 C   0  0  1  0  0  0  0  0  0  0  0  0
    1.3302   -6.1491    2.3222 C   0  0  0  0  0  0  0  0  0  0  0  0
    2.1031   -7.5683    4.3231 C   0  0  1  0  0  0  0  0  0  0  0  0
    0.6770   -7.4427    5.0005 C   0  0  0  0  0  0  0  0  0  0  0  0
    1.8938   -8.8890    3.4476 C   0  0  0  0  0  0  0  0  0  0  0  0
    1.9846  -10.3101    4.0924 C   0  0  1  0  0  0  0  0  0  0  0  0
    0.7693  -10.6499    4.9615 C   0  0  0  0  0  0  0  0  0  0  0  0
    2.3084  -11.4305    3.0880 C   0  0  0  0  0  0  0  0  0  0  0  0
    3.4402  -11.8861    3.8614 O   0  0  0  0  0  0  0  0  0  0  0  0
    3.3026  -10.7410    4.7348 C   0  0  1  0  0  0  0  0  0  0  0  0
    4.5714   -9.9081    4.6410 C   0  0  1  0  0  0  0  0  0  0  0  0
    4.8900   -9.6943    3.2835 O   0  0  0  0  0  0  0  0  0  0  0  0
    4.5355   -8.5918    5.4942 C   0  0  0  0  0  0  0  0  0  0  0  0
    4.7589   -9.0847    6.9568 C   0  0  0  0  0  0  0  0  0  0  0  0
    5.8277   -7.7843    5.1908 C   0  0  0  0  0  0  0  0  0  0  0  0
    3.1607   -7.7427    5.5099 C   0  0  1  0  0  0  0  0  0  0  0  0
    3.2927   -6.3858    6.2607 C   0  0  0  0  0  0  0  0  0  0  0  0
    3.5775   -5.1203    5.4177 C   0  0  0  0  0  0  0  0  0  0  0  0
    2.5889   -4.8004    4.2301 C   0  0  2  0  0  0  0  0  0  0  0  0
    1.2069   -4.4872    4.8967 C   0  0  0  0  0  0  0  0  0  0  0  0
    3.0154   -3.4118    3.3742 C   0  0  1  0  0  0  0  0  0  0  0  0
    2.8310   -1.9700    4.1878 C   0  0  2  0  0  0  0  0  0  0  0  0
    3.2210   -1.9945    5.7038 C   0  0  0  0  0  0  0  0  0  0  0  0
    1.3552   -1.4651    3.9925 C   0  0  0  0  0  0  0  0  0  0  0  0
    1.2909   -0.4921    2.7846 C   0  0  1  0  0  0  0  0  0  0  0  0
    3.4885   -0.6024    3.7532 C   0  0  1  0  0  0  0  0  0  0  0  0
    4.8983   -0.4960    3.8114 O   0  0  0  0  0  0  0  0  0  0  0  0
    4.2413   -3.5211    2.2939 C   0  0  2  0  0  0  0  0  0  0  0  0
    5.5945   -3.6906    3.0455 C   0  0  0  0  0  0  0  0  0  0  0  0
    0.7014    1.2903    5.0026 H   0  0  0  0  0  0  0  0  0  0  0  0
   -0.7826    0.3681    4.6975 H   0  0  0  0  0  0  0  0  0  0  0  0
   -0.6908    2.0645    4.2655 H   0  0  0  0  0  0  0  0  0  0  0  0
   -0.4914    0.6995    1.1644 H   0  0  0  0  0  0  0  0  0  0  0  0
    1.2560    1.9284    1.2839 H   0  0  0  0  0  0  0  0  0  0  0  0
    1.0849    2.8530    2.7692 H   0  0  0  0  0  0  0  0  0  0  0  0
    2.5477    0.1193    0.4807 H   0  0  0  0  0  0  0  0  0  0  0  0
    4.2184    0.2117    0.9794 H   0  0  0  0  0  0  0  0  0  0  0  0
    5.2172   -1.5527    1.7933 H   0  0  0  0  0  0  0  0  0  0  0  0
    5.0153   -4.3539   -0.9117 H   0  0  0  0  0  0  0  0  0  0  0  0
    6.1537   -4.4667    0.4210 H   0  0  0  0  0  0  0  0  0  0  0  0
    1.8907   -3.9617    0.7657 H   0  0  0  0  0  0  0  0  0  0  0  0
    2.4676   -5.1974   -0.3303 H   0  0  0  0  0  0  0  0  0  0  0  0
    2.8890   -3.5414   -0.5519 H   0  0  0  0  0  0  0  0  0  0  0  0
    3.7757   -6.6181    0.5898 H   0  0  0  0  0  0  0  0  0  0  0  0
    5.2789   -6.2504    1.2989 H   0  0  0  0  0  0  0  0  0  0  0  0
    3.9939   -7.5719    2.6467 H   0  0  0  0  0  0  0  0  0  0  0  0
    4.5876   -6.2549    3.4163 H   0  0  0  0  0  0  0  0  0  0  0  0
    0.9883   -5.1327    2.1835 H   0  0  0  0  0  0  0  0  0  0  0  0
    0.4247   -6.7095    2.5409 H   0  0  0  0  0  0  0  0  0  0  0  0
    1.6532   -6.5521    1.3655 H   0  0  0  0  0  0  0  0  0  0  0  0
    0.0438   -8.3114    4.8885 H   0  0  0  0  0  0  0  0  0  0  0  0
    0.0353   -6.6871    4.5690 H   0  0  0  0  0  0  0  0  0  0  0  0
    0.6984   -7.2686    6.0724 H   0  0  0  0  0  0  0  0  0  0  0  0
    0.9359   -8.8331    2.9325 H   0  0  0  0  0  0  0  0  0  0  0  0
    2.5548   -8.9033    2.5945 H   0  0  0  0  0  0  0  0  0  0  0  0
    0.7645  -11.7009    5.2558 H   0  0  0  0  0  0  0  0  0  0  0  0
   -0.1679  -10.4724    4.4347 H   0  0  0  0  0  0  0  0  0  0  0  0
    0.7654  -10.0918    5.8972 H   0  0  0  0  0  0  0  0  0  0  0  0
    1.5313  -12.1911    3.0078 H   0  0  0  0  0  0  0  0  0  0  0  0
    2.6189  -11.0741    2.1015 H   0  0  0  0  0  0  0  0  0  0  0  0
    3.1195  -11.0847    5.7536 H   0  0  0  0  0  0  0  0  0  0  0  0
    5.4040  -10.5258    4.9839 H   0  0  0  0  0  0  0  0  0  0  0  0
    4.7843  -10.5272    2.8414 H   0  0  0  0  0  0  0  0  0  0  0  0
    4.9304   -8.2698    7.6555 H   0  0  0  0  0  0  0  0  0  0  0  0
    5.6366   -9.7296    7.0413 H   0  0  0  0  0  0  0  0  0  0  0  0
    3.9197   -9.6662    7.3434 H   0  0  0  0  0  0  0  0  0  0  0  0
    5.8839   -6.8505    5.7449 H   0  0  0  0  0  0  0  0  0  0  0  0
    5.9774   -7.5739    4.1355 H   0  0  0  0  0  0  0  0  0  0  0  0
    6.7094   -8.3584    5.4827 H   0  0  0  0  0  0  0  0  0  0  0  0
    2.5869   -8.3569    6.2031 H   0  0  0  0  0  0  0  0  0  0  0  0
    2.4012   -6.2146    6.8620 H   0  0  0  0  0  0  0  0  0  0  0  0
    4.0624   -6.4368    7.0240 H   0  0  0  0  0  0  0  0  0  0  0  0
    3.5895   -4.3510    6.1672 H   0  0  0  0  0  0  0  0  0  0  0  0
    4.6119   -5.1291    5.1030 H   0  0  0  0  0  0  0  0  0  0  0  0
    1.1231   -3.5363    5.3885 H   0  0  0  0  0  0  0  0  0  0  0  0
    0.9698   -5.1297    5.7289 H   0  0  0  0  0  0  0  0  0  0  0  0
    0.3768   -4.5147    4.1949 H   0  0  0  0  0  0  0  0  0  0  0  0
    2.1798   -3.3304    2.6920 H   0  0  0  0  0  0  0  0  0  0  0  0
    3.1414   -1.0210    6.1871 H   0  0  0  0  0  0  0  0  0  0  0  0
    4.2584   -2.2991    5.8357 H   0  0  0  0  0  0  0  0  0  0  0  0
    2.5898   -2.5890    6.3504 H   0  0  0  0  0  0  0  0  0  0  0  0
    0.6143   -2.2410    3.8099 H   0  0  0  0  0  0  0  0  0  0  0  0
    1.0518   -0.9815    4.9177 H   0  0  0  0  0  0  0  0  0  0  0  0
    1.0002   -1.0686    1.9050 H   0  0  0  0  0  0  0  0  0  0  0  0
    3.2407    0.1296    4.5238 H   0  0  0  0  0  0  0  0  0  0  0  0
    5.2754   -1.0642    3.1596 H   0  0  0  0  0  0  0  0  0  0  0  0
    5.8559   -4.7015    3.3317 H   0  0  0  0  0  0  0  0  0  0  0  0
    5.6179   -3.0861    3.9516 H   0  0  0  0  0  0  0  0  0  0  0  0
    6.4365   -3.3649    2.4396 H   0  0  0  0  0  0  0  0  0  0  0  0
  1  2  1  0
  1 45  1  0
  1 46  1  0
  1 47  1  0
  2 40  1  0
  2  3  1  6
  2  4  1  0
  3 48  1  0
  4  5  1  0
  4 49  1  0
  4 50  1  0
  6  5  1  1
  6 40  1  0
  6 41  1  0
  6  7  1  0
  7  8  1  0
  7 51  1  0
  7 52  1  0
  8  9  1  0
  9 43  1  0
  9 10  1  0
  9 53  1  1
 10 11  1  0
 11 12  1  0
 11 54  1  0
 11 55  1  0
 12 43  1  0
 12 13  1  6
 12 14  1  0
 13 56  1  0
 13 57  1  0
 13 58  1  0
 14 15  1  0
 14 59  1  0
 14 60  1  0
 15 16  1  0
 15 61  1  0
 15 62  1  0
 16 34  1  0
 16 17  1  6
 16 18  1  0
 17 63  1  0
 17 64  1  0
 17 65  1  0
 18 31  1  0
 18 19  1  1
 18 20  1  0
 19 66  1  0
 19 67  1  0
 19 68  1  0
 20 21  1  0
 20 69  1  0
 20 70  1  0
 21 25  1  0
 21 22  1  1
 21 23  1  0
 22 71  1  0
 22 72  1  0
 22 73  1  0
 23 24  1  0
 23 74  1  0
 23 75  1  0
 24 25  1  0
 25 26  1  0
 25 76  1  1
 26 27  1  0
 26 28  1  0
 26 77  1  1
 27 78  1  0
 28 29  1  0
 28 30  1  0
 28 31  1  0
 29 79  1  0
 29 80  1  0
 29 81  1  0
 30 82  1  0
 30 83  1  0
 30 84  1  0
 31 32  1  0
 31 85  1  1
 32 33  1  0
 32 86  1  0
 32 87  1  0
 33 34  1  0
 33 88  1  0
 33 89  1  0
 34 35  1  1
 34 36  1  0
 35 90  1  0
 35 91  1  0
 35 92  1  0
 36 37  1  0
 36 43  1  0
 36 93  1  6
 37 38  1  1
 37 39  1  0
 37 41  1  0
 38 94  1  0
 38 95  1  0
 38 96  1  0
 39 40  1  0
 39 97  1  0
 39 98  1  0
 40 99  1  6
 41 42  1  0
 41100  1  1
 42101  1  0
 43 44  1  1
 44102  1  0
 44103  1  0
 44104  1  0
M  END
>  <i_m_ct_stereo_status>  (334) 
1

>  <s_m_source_file>  (334) 
/var/tmp/pbs.5076255.sched01/tmpfsvwwkaa/138cw1meju8.sdf

>  <i_m_source_file_index>  (334) 
5

>  <i_lp_mmshare_version>  (334) 
48012

>  <i_f3d_flags>  (334) 
0

>  <s_epik_input>  (334) 
TzFbQ0gyXVtDQEBdKFtDSDNdKShbT0hdKVtDQEBIXShbQ0BdMTIzKVtDSDJdW0NAXShbQ0gzXSkoW0NASF0zW09IXSlbQ0BASF00W0NAQF01KFtDSDNdKVtDQEBdKFtDSDNdKShbQ0gyXVtDSDJdW0NAQF02KFtDSDNdKVtDQEBdNChbQ0gzXSlbQ0BIXShPW0NIMl0yKU9bQ0gyXTYpW0NAXTcoW0NIM10pW0NASF0oW0NIMl1bQ0gyXTUpQyhbQ0gzXSkoW0NIM10pW0NASF0oW09IXSlbQ0BIXThbQ0BdKFtDSDJdNykoW0NIM10pW0NIMl1POA==

>  <s_epik_cmdline>  (334) 
J2VwaWtfcHl0aG9uJywgJy1waHQnLCAnMi4wJywgJy1waCcsICc3LjAnLCAnLXRuJywgJzgnLCAnLW1hJywgJzIwMCcsICctaW1hZScsICc8aW5maWxlLm1hZT4nLCAnLW9tYWUnLCAnPG91dGZpbGUubWFlPic=

>  <r_lp_tautomer_probability>  (334) 
1

>  <r_epik_Ionization_Penalty>  (334) 
3.31951e-07

>  <r_epik_Ionization_Penalty_Charging>  (334) 
0

>  <r_epik_Ionization_Penalty_Neutral>  (334) 
3.31951e-07

>  <r_epik_State_Penalty>  (334) 
-0

>  <r_epik_Charging_Adjusted_Penalty>  (334) 
0

>  <i_epik_Tot_Q>  (334) 
0

>  <i_epik_Tot_abs_Q>  (334) 
0

>  <s_epik_Chemistry_Notes>  (334) 
This compound contains an acetal/aminal-like group ( X-CH(R)-Y where X, Y are N, S, or O) that may be acid/base labile, releasing an aldehyde.

>  <s_lp_Force_Field>  (334) 
OPLS3e

>  <r_lp_Energy>  (334) 
204.112

>  <b_lp_Chiralities_Consistent>  (334) 
1

>  <s_lp_Variant>  (334) 
96:0-1

>  <s_i_glide_gridfile>  (334) 
pfpi4k_grid

>  <i_i_glide_lignum>  (334) 
5

>  <i_i_glide_rotatable_bonds>  (334) 
3

>  <r_i_docking_score>  (334) 
-1.86943

>  <r_i_glide_ligand_efficiency>  (334) 
-0.0424871

>  <r_i_glide_ligand_efficiency_sa>  (334) 
-0.149994

>  <r_i_glide_ligand_efficiency_ln>  (334) 
-0.390752

>  <r_i_glide_gscore>  (334) 
-1.86943

>  <r_i_glide_lipo>  (334) 
-0.184249

>  <r_i_glide_hbond>  (334) 
-0.136865

>  <r_i_glide_metal>  (334) 
-0

>  <r_i_glide_rewards>  (334) 
-0.0224595

>  <r_i_glide_evdw>  (334) 
-25.8479

>  <r_i_glide_ecoul>  (334) 
-1.55643

>  <r_i_glide_erotb>  (334) 
0

>  <r_i_glide_esite>  (334) 
0

>  <r_i_glide_emodel>  (334) 
-30.3101

>  <r_i_glide_energy>  (334) 
-27.4043

>  <r_i_glide_einternal>  (334) 
0.674433

>  <r_i_glide_intrahb_reward>  (334) 
-0

>  <i_i_glide_confnum>  (334) 
2

>  <i_i_glide_posenum>  (334) 
1

>  <r_i_glide_eff_state_penalty>  (334) 
0

>  <ligand_id>  (334) 
96

>  <original_smiles>  (334) 
CC1(O)COC23COC4OCC5(C)CCC6(C)C7(C)CC8(C)COC8C(O)C(C)(C)C7CCC6(C)C(C(C)(CC12)C3O)C45C

>  <smiles>  (334) 
[H]OC1([H])C2([H])OC([H])([H])C2(C([H])([H])[H])C([H])([H])C2(C([H])([H])[H])C([H])(C([H])([H])C([H])([H])C3(C([H])([H])[H])C4([H])C5(C([H])([H])[H])C([H])([H])C6([H])C(O[H])(C([H])([H])[H])C([H])([H])OC6(C([H])([H])OC6([H])OC([H])([H])C(C([H])([H])[H])(C([H])([H])C([H])([H])C23C([H])([H])[H])C64C([H])([H])[H])C5([H])O[H])C1(C([H])([H])[H])C([H])([H])[H]

$$$$
96:0:1
     RDKit          3D

104111  0  0  1  0  0  0  0  0999 V2000
   -0.1236    1.1437    4.2986 C   0  0  0  0  0  0  0  0  0  0  0  0
    0.3971    0.7788    2.8979 C   0  0  1  0  0  0  0  0  0  0  0  0
   -0.7483    0.6699    2.0806 O   0  0  0  0  0  0  0  0  0  0  0  0
    1.3118    1.8740    2.3632 C   0  0  0  0  0  0  0  0  0  0  0  0
    2.6079    1.4439    2.7472 O   0  0  0  0  0  0  0  0  0  0  0  0
    2.7115    0.0305    2.5809 C   0  0  2  0  0  0  0  0  0  0  0  0
    3.2577   -0.2729    1.1867 C   0  0  0  0  0  0  0  0  0  0  0  0
    3.3065   -1.6715    1.0095 O   0  0  0  0  0  0  0  0  0  0  0  0
    4.5003   -2.2534    1.4017 C   0  0  2  0  0  0  0  0  0  0  0  0
    5.2217   -2.6533    0.2741 O   0  0  0  0  0  0  0  0  0  0  0  0
    5.1745   -4.0582    0.1314 C   0  0  0  0  0  0  0  0  0  0  0  0
    4.0403   -4.4974    1.0731 C   0  0  1  0  0  0  0  0  0  0  0  0
    2.7464   -4.2956    0.2170 C   0  0  0  0  0  0  0  0  0  0  0  0
    4.2156   -5.9954    1.3737 C   0  0  0  0  0  0  0  0  0  0  0  0
    3.8068   -6.5163    2.7437 C   0  0  0  0  0  0  0  0  0  0  0  0
    2.4355   -6.2223    3.4187 C   0  0  1  0  0  0  0  0  0  0  0  0
    1.3253   -6.1415    2.3252 C   0  0  0  0  0  0  0  0  0  0  0  0
    2.1016   -7.5600    4.3263 C   0  0  1  0  0  0  0  0  0  0  0  0
    0.6766   -7.4344    5.0050 C   0  0  0  0  0  0  0  0  0  0  0  0
    1.8904   -8.8815    3.4506 C   0  0  0  0  0  0  0  0  0  0  0  0
    1.9820  -10.3028    4.0953 C   0  0  1  0  0  0  0  0  0  0  0  0
    0.7666  -10.6426    4.9652 C   0  0  0  0  0  0  0  0  0  0  0  0
    2.3081  -11.4247    3.0944 C   0  0  0  0  0  0  0  0  0  0  0  0
    3.4370  -11.8801    3.8702 O   0  0  0  0  0  0  0  0  0  0  0  0
    3.3012  -10.7324    4.7383 C   0  0  1  0  0  0  0  0  0  0  0  0
    4.5704   -9.8996    4.6431 C   0  0  1  0  0  0  0  0  0  0  0  0
    4.8856   -9.6867    3.2851 O   0  0  0  0  0  0  0  0  0  0  0  0
    4.5347   -8.5831    5.4952 C   0  0  0  0  0  0  0  0  0  0  0  0
    4.7592   -9.0748    6.9585 C   0  0  0  0  0  0  0  0  0  0  0  0
    5.8258   -7.7762    5.1905 C   0  0  0  0  0  0  0  0  0  0  0  0
    3.1605   -7.7333    5.5116 C   0  0  1  0  0  0  0  0  0  0  0  0
    3.2925   -6.3763    6.2629 C   0  0  0  0  0  0  0  0  0  0  0  0
    3.5762   -5.1113    5.4185 C   0  0  0  0  0  0  0  0  0  0  0  0
    2.5858   -4.7930    4.2320 C   0  0  2  0  0  0  0  0  0  0  0  0
    1.2056   -4.4787    4.9006 C   0  0  0  0  0  0  0  0  0  0  0  0
    3.0091   -3.4048    3.3759 C   0  0  1  0  0  0  0  0  0  0  0  0
    2.8231   -1.9608    4.1865 C   0  0  2  0  0  0  0  0  0  0  0  0
    3.2199   -1.9854    5.7020 C   0  0  0  0  0  0  0  0  0  0  0  0
    1.3493   -1.4574    3.9937 C   0  0  0  0  0  0  0  0  0  0  0  0
    1.2830   -0.4860    2.7843 C   0  0  1  0  0  0  0  0  0  0  0  0
    3.4773   -0.5933    3.7532 C   0  0  1  0  0  0  0  0  0  0  0  0
    4.8850   -0.4931    3.7893 O   0  0  0  0  0  0  0  0  0  0  0  0
    4.2350   -3.5159    2.2962 C   0  0  2  0  0  0  0  0  0  0  0  0
    5.5883   -3.6861    3.0466 C   0  0  0  0  0  0  0  0  0  0  0  0
    0.6962    1.2999    5.0005 H   0  0  0  0  0  0  0  0  0  0  0  0
   -0.7864    0.3755    4.6976 H   0  0  0  0  0  0  0  0  0  0  0  0
   -0.6964    2.0712    4.2626 H   0  0  0  0  0  0  0  0  0  0  0  0
   -0.4980    0.7026    1.1633 H   0  0  0  0  0  0  0  0  0  0  0  0
    1.2520    1.9334    1.2841 H   0  0  0  0  0  0  0  0  0  0  0  0
    1.0798    2.8595    2.7677 H   0  0  0  0  0  0  0  0  0  0  0  0
    2.5410    0.1213    0.4776 H   0  0  0  0  0  0  0  0  0  0  0  0
    4.2111    0.2162    0.9783 H   0  0  0  0  0  0  0  0  0  0  0  0
    5.2118   -1.5499    1.8139 H   0  0  0  0  0  0  0  0  0  0  0  0
    5.0093   -4.3424   -0.9098 H   0  0  0  0  0  0  0  0  0  0  0  0
    6.1469   -4.4572    0.4207 H   0  0  0  0  0  0  0  0  0  0  0  0
    1.8841   -3.9554    0.7678 H   0  0  0  0  0  0  0  0  0  0  0  0
    2.4603   -5.1924   -0.3272 H   0  0  0  0  0  0  0  0  0  0  0  0
    2.8823   -3.5361   -0.5526 H   0  0  0  0  0  0  0  0  0  0  0  0
    3.7721   -6.6106    0.5917 H   0  0  0  0  0  0  0  0  0  0  0  0
    5.2741   -6.2423    1.3000 H   0  0  0  0  0  0  0  0  0  0  0  0
    3.9895   -7.5648    2.6469 H   0  0  0  0  0  0  0  0  0  0  0  0
    4.5844   -6.2483    3.4161 H   0  0  0  0  0  0  0  0  0  0  0  0
    0.9831   -5.1252    2.1887 H   0  0  0  0  0  0  0  0  0  0  0  0
    0.4222   -6.7024    2.5451 H   0  0  0  0  0  0  0  0  0  0  0  0
    1.6479   -6.5423    1.3679 H   0  0  0  0  0  0  0  0  0  0  0  0
    0.0429   -8.3046    4.8969 H   0  0  0  0  0  0  0  0  0  0  0  0
    0.0315   -6.6799    4.5732 H   0  0  0  0  0  0  0  0  0  0  0  0
    0.6991   -7.2574    6.0771 H   0  0  0  0  0  0  0  0  0  0  0  0
    0.9314   -8.8266    2.9382 H   0  0  0  0  0  0  0  0  0  0  0  0
    2.5506   -8.8956    2.5958 H   0  0  0  0  0  0  0  0  0  0  0  0
    0.7627  -11.6938    5.2579 H   0  0  0  0  0  0  0  0  0  0  0  0
   -0.1699  -10.4634    4.4404 H   0  0  0  0  0  0  0  0  0  0  0  0
    0.7642  -10.0857    5.9013 H   0  0  0  0  0  0  0  0  0  0  0  0
    1.5319  -12.1839    3.0100 H   0  0  0  0  0  0  0  0  0  0  0  0
    2.6222  -11.0696    2.1072 H   0  0  0  0  0  0  0  0  0  0  0  0
    3.1181  -11.0736    5.7603 H   0  0  0  0  0  0  0  0  0  0  0  0
    5.4028  -10.5163    4.9853 H   0  0  0  0  0  0  0  0  0  0  0  0
    4.7776  -10.5196    2.8429 H   0  0  0  0  0  0  0  0  0  0  0  0
    4.9305   -8.2592    7.6572 H   0  0  0  0  0  0  0  0  0  0  0  0
    5.6386   -9.7188    7.0415 H   0  0  0  0  0  0  0  0  0  0  0  0
    3.9209   -9.6567    7.3454 H   0  0  0  0  0  0  0  0  0  0  0  0
    5.8834   -6.8414    5.7431 H   0  0  0  0  0  0  0  0  0  0  0  0
    5.9760   -7.5658    4.1340 H   0  0  0  0  0  0  0  0  0  0  0  0
    6.7094   -8.3494    5.4813 H   0  0  0  0  0  0  0  0  0  0  0  0
    2.5870   -8.3485    6.2054 H   0  0  0  0  0  0  0  0  0  0  0  0
    2.4024   -6.2058    6.8651 H   0  0  0  0  0  0  0  0  0  0  0  0
    4.0642   -6.4270    7.0250 H   0  0  0  0  0  0  0  0  0  0  0  0
    3.5888   -4.3422    6.1677 H   0  0  0  0  0  0  0  0  0  0  0  0
    4.6104   -5.1206    5.1021 H   0  0  0  0  0  0  0  0  0  0  0  0
    1.1213   -3.5272    5.3916 H   0  0  0  0  0  0  0  0  0  0  0  0
    0.9685   -5.1205    5.7341 H   0  0  0  0  0  0  0  0  0  0  0  0
    0.3748   -4.5070    4.1994 H   0  0  0  0  0  0  0  0  0  0  0  0
    2.1764   -3.3217    2.6929 H   0  0  0  0  0  0  0  0  0  0  0  0
    3.1428   -1.0120    6.1882 H   0  0  0  0  0  0  0  0  0  0  0  0
    4.2585   -2.2907    5.8305 H   0  0  0  0  0  0  0  0  0  0  0  0
    2.5908   -2.5807    6.3504 H   0  0  0  0  0  0  0  0  0  0  0  0
    0.6095   -2.2345    3.8123 H   0  0  0  0  0  0  0  0  0  0  0  0
    1.0475   -0.9724    4.9192 H   0  0  0  0  0  0  0  0  0  0  0  0
    0.9926   -1.0642    1.9040 H   0  0  0  0  0  0  0  0  0  0  0  0
    3.2345    0.1390    4.5242 H   0  0  0  0  0  0  0  0  0  0  0  0
    5.1072    0.4206    3.6908 H   0  0  0  0  0  0  0  0  0  0  0  0
    5.8530   -4.6945    3.3350 H   0  0  0  0  0  0  0  0  0  0  0  0
    5.6109   -3.0759    3.9484 H   0  0  0  0  0  0  0  0  0  0  0  0
    6.4298   -3.3575    2.4375 H   0  0  0  0  0  0  0  0  0  0  0  0
  1  2  1  0
  1 45  1  0
  1 46  1  0
  1 47  1  0
  2 40  1  0
  2  3  1  6
  2  4  1  0
  3 48  1  0
  4  5  1  0
  4 49  1  0
  4 50  1  0
  6  5  1  1
  6 40  1  0
  6 41  1  0
  6  7  1  0
  7  8  1  0
  7 51  1  0
  7 52  1  0
  8  9  1  0
  9 43  1  0
  9 10  1  0
  9 53  1  1
 10 11  1  0
 11 12  1  0
 11 54  1  0
 11 55  1  0
 12 43  1  0
 12 13  1  6
 12 14  1  0
 13 56  1  0
 13 57  1  0
 13 58  1  0
 14 15  1  0
 14 59  1  0
 14 60  1  0
 15 16  1  0
 15 61  1  0
 15 62  1  0
 16 34  1  0
 16 17  1  6
 16 18  1  0
 17 63  1  0
 17 64  1  0
 17 65  1  0
 18 31  1  0
 18 19  1  1
 18 20  1  0
 19 66  1  0
 19 67  1  0
 19 68  1  0
 20 21  1  0
 20 69  1  0
 20 70  1  0
 21 25  1  0
 21 22  1  1
 21 23  1  0
 22 71  1  0
 22 72  1  0
 22 73  1  0
 23 24  1  0
 23 74  1  0
 23 75  1  0
 24 25  1  0
 25 26  1  0
 25 76  1  1
 26 27  1  0
 26 28  1  0
 26 77  1  1
 27 78  1  0
 28 29  1  0
 28 30  1  0
 28 31  1  0
 29 79  1  0
 29 80  1  0
 29 81  1  0
 30 82  1  0
 30 83  1  0
 30 84  1  0
 31 32  1  0
 31 85  1  1
 32 33  1  0
 32 86  1  0
 32 87  1  0
 33 34  1  0
 33 88  1  0
 33 89  1  0
 34 35  1  1
 34 36  1  0
 35 90  1  0
 35 91  1  0
 35 92  1  0
 36 37  1  0
 36 43  1  0
 36 93  1  6
 37 38  1  1
 37 39  1  0
 37 41  1  0
 38 94  1  0
 38 95  1  0
 38 96  1  0
 39 40  1  0
 39 97  1  0
 39 98  1  0
 40 99  1  6
 41 42  1  0
 41100  1  1
 42101  1  0
 43 44  1  1
 44102  1  0
 44103  1  0
 44104  1  0
M  END
>  <i_m_ct_stereo_status>  (335) 
1

>  <s_m_source_file>  (335) 
/var/tmp/pbs.5076255.sched01/tmpfsvwwkaa/138cw1meju8.sdf

>  <i_m_source_file_index>  (335) 
5

>  <i_lp_mmshare_version>  (335) 
48012

>  <i_f3d_flags>  (335) 
0

>  <s_epik_input>  (335) 
TzFbQ0gyXVtDQEBdKFtDSDNdKShbT0hdKVtDQEBIXShbQ0BdMTIzKVtDSDJdW0NAXShbQ0gzXSkoW0NASF0zW09IXSlbQ0BASF00W0NAQF01KFtDSDNdKVtDQEBdKFtDSDNdKShbQ0gyXVtDSDJdW0NAQF02KFtDSDNdKVtDQEBdNChbQ0gzXSlbQ0BIXShPW0NIMl0yKU9bQ0gyXTYpW0NAXTcoW0NIM10pW0NASF0oW0NIMl1bQ0gyXTUpQyhbQ0gzXSkoW0NIM10pW0NASF0oW09IXSlbQ0BIXThbQ0BdKFtDSDJdNykoW0NIM10pW0NIMl1POA==

>  <s_epik_cmdline>  (335) 
J2VwaWtfcHl0aG9uJywgJy1waHQnLCAnMi4wJywgJy1waCcsICc3LjAnLCAnLXRuJywgJzgnLCAnLW1hJywgJzIwMCcsICctaW1hZScsICc8aW5maWxlLm1hZT4nLCAnLW9tYWUnLCAnPG91dGZpbGUubWFlPic=

>  <r_lp_tautomer_probability>  (335) 
1

>  <r_epik_Ionization_Penalty>  (335) 
3.31951e-07

>  <r_epik_Ionization_Penalty_Charging>  (335) 
0

>  <r_epik_Ionization_Penalty_Neutral>  (335) 
3.31951e-07

>  <r_epik_State_Penalty>  (335) 
-0

>  <r_epik_Charging_Adjusted_Penalty>  (335) 
0

>  <i_epik_Tot_Q>  (335) 
0

>  <i_epik_Tot_abs_Q>  (335) 
0

>  <s_epik_Chemistry_Notes>  (335) 
This compound contains an acetal/aminal-like group ( X-CH(R)-Y where X, Y are N, S, or O) that may be acid/base labile, releasing an aldehyde.

>  <s_lp_Force_Field>  (335) 
OPLS3e

>  <r_lp_Energy>  (335) 
204.112

>  <b_lp_Chiralities_Consistent>  (335) 
1

>  <s_lp_Variant>  (335) 
96:0-1

>  <s_i_glide_gridfile>  (335) 
pfpi4k_grid

>  <i_i_glide_lignum>  (335) 
5

>  <i_i_glide_rotatable_bonds>  (335) 
3

>  <r_i_docking_score>  (335) 
-1.85471

>  <r_i_glide_ligand_efficiency>  (335) 
-0.0421524

>  <r_i_glide_ligand_efficiency_sa>  (335) 
-0.148813

>  <r_i_glide_ligand_efficiency_ln>  (335) 
-0.387674

>  <r_i_glide_gscore>  (335) 
-1.85471

>  <r_i_glide_lipo>  (335) 
-0.185417

>  <r_i_glide_hbond>  (335) 
-0.138007

>  <r_i_glide_metal>  (335) 
-0

>  <r_i_glide_rewards>  (335) 
-0.0223783

>  <r_i_glide_evdw>  (335) 
-25.8805

>  <r_i_glide_ecoul>  (335) 
-1.43253

>  <r_i_glide_erotb>  (335) 
0

>  <r_i_glide_esite>  (335) 
0

>  <r_i_glide_emodel>  (335) 
-30.0191

>  <r_i_glide_energy>  (335) 
-27.313

>  <r_i_glide_einternal>  (335) 
1.02979

>  <r_i_glide_intrahb_reward>  (335) 
-0

>  <i_i_glide_confnum>  (335) 
1

>  <i_i_glide_posenum>  (335) 
22

>  <r_i_glide_eff_state_penalty>  (335) 
0

>  <ligand_id>  (335) 
96

>  <original_smiles>  (335) 
CC1(O)COC23COC4OCC5(C)CCC6(C)C7(C)CC8(C)COC8C(O)C(C)(C)C7CCC6(C)C(C(C)(CC12)C3O)C45C

>  <smiles>  (335) 
[H]OC1([H])C2([H])OC([H])([H])C2(C([H])([H])[H])C([H])([H])C2(C([H])([H])[H])C([H])(C([H])([H])C([H])([H])C3(C([H])([H])[H])C4([H])C5(C([H])([H])[H])C([H])([H])C6([H])C(O[H])(C([H])([H])[H])C([H])([H])OC6(C([H])([H])OC6([H])OC([H])([H])C(C([H])([H])[H])(C([H])([H])C([H])([H])C23C([H])([H])[H])C64C([H])([H])[H])C5([H])O[H])C1(C([H])([H])[H])C([H])([H])[H]

$$$$
96:0:2
     RDKit          3D

104111  0  0  1  0  0  0  0  0999 V2000
   -0.1146    1.1362    4.3138 C   0  0  0  0  0  0  0  0  0  0  0  0
    0.4003    0.7720    2.9093 C   0  0  1  0  0  0  0  0  0  0  0  0
   -0.7350    0.6670    2.0734 O   0  0  0  0  0  0  0  0  0  0  0  0
    1.3168    1.8681    2.3763 C   0  0  0  0  0  0  0  0  0  0  0  0
    2.6151    1.4418    2.7644 O   0  0  0  0  0  0  0  0  0  0  0  0
    2.7180    0.0299    2.5942 C   0  0  2  0  0  0  0  0  0  0  0  0
    3.2589   -0.2679    1.1929 C   0  0  0  0  0  0  0  0  0  0  0  0
    3.3107   -1.6681    1.0233 O   0  0  0  0  0  0  0  0  0  0  0  0
    4.5077   -2.2508    1.4103 C   0  0  2  0  0  0  0  0  0  0  0  0
    5.2261   -2.6482    0.2801 O   0  0  0  0  0  0  0  0  0  0  0  0
    5.1812   -4.0529    0.1350 C   0  0  0  0  0  0  0  0  0  0  0  0
    4.0480   -4.4944    1.0774 C   0  0  1  0  0  0  0  0  0  0  0  0
    2.7528   -4.2911    0.2234 C   0  0  0  0  0  0  0  0  0  0  0  0
    4.2243   -5.9926    1.3742 C   0  0  0  0  0  0  0  0  0  0  0  0
    3.8181   -6.5161    2.7440 C   0  0  0  0  0  0  0  0  0  0  0  0
    2.4481   -6.2267    3.4237 C   0  0  1  0  0  0  0  0  0  0  0  0
    1.3372   -6.1449    2.3312 C   0  0  0  0  0  0  0  0  0  0  0  0
    2.1169   -7.5659    4.3269 C   0  0  1  0  0  0  0  0  0  0  0  0
    0.6925   -7.4435    5.0083 C   0  0  0  0  0  0  0  0  0  0  0  0
    1.9056   -8.8866    3.4498 C   0  0  0  0  0  0  0  0  0  0  0  0
    1.9996  -10.3072    4.0933 C   0  0  1  0  0  0  0  0  0  0  0  0
    0.7861  -10.6502    4.9667 C   0  0  0  0  0  0  0  0  0  0  0  0
    2.3167  -11.4302    3.0902 C   0  0  0  0  0  0  0  0  0  0  0  0
    3.4368  -11.8984    3.8729 O   0  0  0  0  0  0  0  0  0  0  0  0
    3.3214  -10.7390    4.7299 C   0  0  1  0  0  0  0  0  0  0  0  0
    4.5924   -9.9042    4.6360 C   0  0  1  0  0  0  0  0  0  0  0  0
    4.9335   -9.6604    3.2890 O   0  0  0  0  0  0  0  0  0  0  0  0
    4.5527   -8.5908    5.4905 C   0  0  0  0  0  0  0  0  0  0  0  0
    4.7796   -9.0868    6.9531 C   0  0  0  0  0  0  0  0  0  0  0  0
    5.8435   -7.7776    5.1885 C   0  0  0  0  0  0  0  0  0  0  0  0
    3.1760   -7.7429    5.5105 C   0  0  1  0  0  0  0  0  0  0  0  0
    3.3094   -6.3871    6.2647 C   0  0  0  0  0  0  0  0  0  0  0  0
    3.5909   -5.1202    5.4227 C   0  0  0  0  0  0  0  0  0  0  0  0
    2.5991   -4.7993    4.2391 C   0  0  2  0  0  0  0  0  0  0  0  0
    1.2194   -4.4874    4.9080 C   0  0  0  0  0  0  0  0  0  0  0  0
    3.0221   -3.4082    3.3844 C   0  0  1  0  0  0  0  0  0  0  0  0
    2.8353   -1.9656    4.2007 C   0  0  2  0  0  0  0  0  0  0  0  0
    3.2328   -1.9936    5.7145 C   0  0  0  0  0  0  0  0  0  0  0  0
    1.3593   -1.4619    4.0084 C   0  0  0  0  0  0  0  0  0  0  0  0
    1.2898   -0.4887    2.8005 C   0  0  1  0  0  0  0  0  0  0  0  0
    3.4874   -0.5972    3.7664 C   0  0  1  0  0  0  0  0  0  0  0  0
    4.8952   -0.4987    3.8029 O   0  0  0  0  0  0  0  0  0  0  0  0
    4.2448   -3.5169    2.3024 C   0  0  2  0  0  0  0  0  0  0  0  0
    5.6007   -3.6875    3.0490 C   0  0  0  0  0  0  0  0  0  0  0  0
    0.7057    1.2880    5.0163 H   0  0  0  0  0  0  0  0  0  0  0  0
   -0.7735    0.3677    4.7165 H   0  0  0  0  0  0  0  0  0  0  0  0
   -0.6864    2.0638    4.2906 H   0  0  0  0  0  0  0  0  0  0  0  0
   -0.4811    0.7181    1.1585 H   0  0  0  0  0  0  0  0  0  0  0  0
    1.2614    1.9333    1.2890 H   0  0  0  0  0  0  0  0  0  0  0  0
    1.0861    2.8551    2.7804 H   0  0  0  0  0  0  0  0  0  0  0  0
    2.5515    0.1244    0.4747 H   0  0  0  0  0  0  0  0  0  0  0  0
    4.2162    0.2179    0.9927 H   0  0  0  0  0  0  0  0  0  0  0  0
    5.2199   -1.5498    1.8231 H   0  0  0  0  0  0  0  0  0  0  0  0
    5.0138   -4.3348   -0.9069 H   0  0  0  0  0  0  0  0  0  0  0  0
    6.1544   -4.4530    0.4228 H   0  0  0  0  0  0  0  0  0  0  0  0
    1.8911   -3.9550    0.7757 H   0  0  0  0  0  0  0  0  0  0  0  0
    2.4683   -5.1857   -0.3253 H   0  0  0  0  0  0  0  0  0  0  0  0
    2.8863   -3.5280   -0.5431 H   0  0  0  0  0  0  0  0  0  0  0  0
    3.7783   -6.6067    0.5909 H   0  0  0  0  0  0  0  0  0  0  0  0
    5.2831   -6.2391    1.2965 H   0  0  0  0  0  0  0  0  0  0  0  0
    3.9990   -7.5640    2.6431 H   0  0  0  0  0  0  0  0  0  0  0  0
    4.5976   -6.2493    3.4166 H   0  0  0  0  0  0  0  0  0  0  0  0
    0.9942   -5.1280    2.1940 H   0  0  0  0  0  0  0  0  0  0  0  0
    0.4329   -6.7057    2.5505 H   0  0  0  0  0  0  0  0  0  0  0  0
    1.6583   -6.5459    1.3720 H   0  0  0  0  0  0  0  0  0  0  0  0
    0.0585   -8.3120    4.8977 H   0  0  0  0  0  0  0  0  0  0  0  0
    0.0478   -6.6872    4.5804 H   0  0  0  0  0  0  0  0  0  0  0  0
    0.7159   -7.2712    6.0811 H   0  0  0  0  0  0  0  0  0  0  0  0
    0.9411   -8.8314    2.9444 H   0  0  0  0  0  0  0  0  0  0  0  0
    2.5538   -8.8952    2.5866 H   0  0  0  0  0  0  0  0  0  0  0  0
    0.7832  -11.7006    5.2577 H   0  0  0  0  0  0  0  0  0  0  0  0
   -0.1513  -10.4730    4.4420 H   0  0  0  0  0  0  0  0  0  0  0  0
    0.7838  -10.0941    5.9027 H   0  0  0  0  0  0  0  0  0  0  0  0
    1.5333  -12.1850    3.0058 H   0  0  0  0  0  0  0  0  0  0  0  0
    2.6344  -11.0790    2.1065 H   0  0  0  0  0  0  0  0  0  0  0  0
    3.1416  -11.0708    5.7528 H   0  0  0  0  0  0  0  0  0  0  0  0
    5.4287  -10.5179    4.9796 H   0  0  0  0  0  0  0  0  0  0  0  0
    4.1406   -9.4420    2.8236 H   0  0  0  0  0  0  0  0  0  0  0  0
    4.9519   -8.2721    7.6523 H   0  0  0  0  0  0  0  0  0  0  0  0
    5.6573   -9.7293    7.0329 H   0  0  0  0  0  0  0  0  0  0  0  0
    3.9424   -9.6683    7.3401 H   0  0  0  0  0  0  0  0  0  0  0  0
    5.9006   -6.8457    5.7456 H   0  0  0  0  0  0  0  0  0  0  0  0
    5.9932   -7.5604    4.1344 H   0  0  0  0  0  0  0  0  0  0  0  0
    6.7251   -8.3545    5.4749 H   0  0  0  0  0  0  0  0  0  0  0  0
    2.6044   -8.3580    6.2047 H   0  0  0  0  0  0  0  0  0  0  0  0
    2.4207   -6.2175    6.8683 H   0  0  0  0  0  0  0  0  0  0  0  0
    4.0816   -6.4385    7.0246 H   0  0  0  0  0  0  0  0  0  0  0  0
    3.6037   -4.3510    6.1737 H   0  0  0  0  0  0  0  0  0  0  0  0
    4.6247   -5.1257    5.1054 H   0  0  0  0  0  0  0  0  0  0  0  0
    1.1356   -3.5375    5.4021 H   0  0  0  0  0  0  0  0  0  0  0  0
    0.9842   -5.1320    5.7405 H   0  0  0  0  0  0  0  0  0  0  0  0
    0.3869   -4.5140    4.2083 H   0  0  0  0  0  0  0  0  0  0  0  0
    2.1865   -3.3252    2.7031 H   0  0  0  0  0  0  0  0  0  0  0  0
    3.1547   -1.0224    6.2027 H   0  0  0  0  0  0  0  0  0  0  0  0
    4.2720   -2.2982    5.8412 H   0  0  0  0  0  0  0  0  0  0  0  0
    2.6051   -2.5913    6.3622 H   0  0  0  0  0  0  0  0  0  0  0  0
    0.6211   -2.2402    3.8271 H   0  0  0  0  0  0  0  0  0  0  0  0
    1.0590   -0.9805    4.9368 H   0  0  0  0  0  0  0  0  0  0  0  0
    1.0021   -1.0669    1.9206 H   0  0  0  0  0  0  0  0  0  0  0  0
    3.2463    0.1326    4.5420 H   0  0  0  0  0  0  0  0  0  0  0  0
    5.1185    0.4159    3.7055 H   0  0  0  0  0  0  0  0  0  0  0  0
    5.8663   -4.6972    3.3346 H   0  0  0  0  0  0  0  0  0  0  0  0
    5.6257   -3.0776    3.9508 H   0  0  0  0  0  0  0  0  0  0  0  0
    6.4407   -3.3584    2.4403 H   0  0  0  0  0  0  0  0  0  0  0  0
  1  2  1  0
  1 45  1  0
  1 46  1  0
  1 47  1  0
  2 40  1  0
  2  3  1  6
  2  4  1  0
  3 48  1  0
  4  5  1  0
  4 49  1  0
  4 50  1  0
  6  5  1  1
  6 40  1  0
  6 41  1  0
  6  7  1  0
  7  8  1  0
  7 51  1  0
  7 52  1  0
  8  9  1  0
  9 43  1  0
  9 10  1  0
  9 53  1  1
 10 11  1  0
 11 12  1  0
 11 54  1  0
 11 55  1  0
 12 43  1  0
 12 13  1  6
 12 14  1  0
 13 56  1  0
 13 57  1  0
 13 58  1  0
 14 15  1  0
 14 59  1  0
 14 60  1  0
 15 16  1  0
 15 61  1  0
 15 62  1  0
 16 34  1  0
 16 17  1  6
 16 18  1  0
 17 63  1  0
 17 64  1  0
 17 65  1  0
 18 31  1  0
 18 19  1  1
 18 20  1  0
 19 66  1  0
 19 67  1  0
 19 68  1  0
 20 21  1  0
 20 69  1  0
 20 70  1  0
 21 25  1  0
 21 22  1  1
 21 23  1  0
 22 71  1  0
 22 72  1  0
 22 73  1  0
 23 24  1  0
 23 74  1  0
 23 75  1  0
 24 25  1  0
 25 26  1  0
 25 76  1  1
 26 27  1  0
 26 28  1  0
 26 77  1  1
 27 78  1  0
 28 29  1  0
 28 30  1  0
 28 31  1  0
 29 79  1  0
 29 80  1  0
 29 81  1  0
 30 82  1  0
 30 83  1  0
 30 84  1  0
 31 32  1  0
 31 85  1  1
 32 33  1  0
 32 86  1  0
 32 87  1  0
 33 34  1  0
 33 88  1  0
 33 89  1  0
 34 35  1  1
 34 36  1  0
 35 90  1  0
 35 91  1  0
 35 92  1  0
 36 37  1  0
 36 43  1  0
 36 93  1  6
 37 38  1  1
 37 39  1  0
 37 41  1  0
 38 94  1  0
 38 95  1  0
 38 96  1  0
 39 40  1  0
 39 97  1  0
 39 98  1  0
 40 99  1  6
 41 42  1  0
 41100  1  1
 42101  1  0
 43 44  1  1
 44102  1  0
 44103  1  0
 44104  1  0
M  END
>  <i_m_ct_stereo_status>  (336) 
1

>  <s_m_source_file>  (336) 
/var/tmp/pbs.5076255.sched01/tmpfsvwwkaa/138cw1meju8.sdf

>  <i_m_source_file_index>  (336) 
5

>  <i_lp_mmshare_version>  (336) 
48012

>  <i_f3d_flags>  (336) 
0

>  <s_epik_input>  (336) 
TzFbQ0gyXVtDQEBdKFtDSDNdKShbT0hdKVtDQEBIXShbQ0BdMTIzKVtDSDJdW0NAXShbQ0gzXSkoW0NASF0zW09IXSlbQ0BASF00W0NAQF01KFtDSDNdKVtDQEBdKFtDSDNdKShbQ0gyXVtDSDJdW0NAQF02KFtDSDNdKVtDQEBdNChbQ0gzXSlbQ0BIXShPW0NIMl0yKU9bQ0gyXTYpW0NAXTcoW0NIM10pW0NASF0oW0NIMl1bQ0gyXTUpQyhbQ0gzXSkoW0NIM10pW0NASF0oW09IXSlbQ0BIXThbQ0BdKFtDSDJdNykoW0NIM10pW0NIMl1POA==

>  <s_epik_cmdline>  (336) 
J2VwaWtfcHl0aG9uJywgJy1waHQnLCAnMi4wJywgJy1waCcsICc3LjAnLCAnLXRuJywgJzgnLCAnLW1hJywgJzIwMCcsICctaW1hZScsICc8aW5maWxlLm1hZT4nLCAnLW9tYWUnLCAnPG91dGZpbGUubWFlPic=

>  <r_lp_tautomer_probability>  (336) 
1

>  <r_epik_Ionization_Penalty>  (336) 
3.31951e-07

>  <r_epik_Ionization_Penalty_Charging>  (336) 
0

>  <r_epik_Ionization_Penalty_Neutral>  (336) 
3.31951e-07

>  <r_epik_State_Penalty>  (336) 
-0

>  <r_epik_Charging_Adjusted_Penalty>  (336) 
0

>  <i_epik_Tot_Q>  (336) 
0

>  <i_epik_Tot_abs_Q>  (336) 
0

>  <s_epik_Chemistry_Notes>  (336) 
This compound contains an acetal/aminal-like group ( X-CH(R)-Y where X, Y are N, S, or O) that may be acid/base labile, releasing an aldehyde.

>  <s_lp_Force_Field>  (336) 
OPLS3e

>  <r_lp_Energy>  (336) 
204.112

>  <b_lp_Chiralities_Consistent>  (336) 
1

>  <s_lp_Variant>  (336) 
96:0-1

>  <s_i_glide_gridfile>  (336) 
pfpi4k_grid

>  <i_i_glide_lignum>  (336) 
5

>  <i_i_glide_rotatable_bonds>  (336) 
3

>  <r_i_docking_score>  (336) 
-1.76745

>  <r_i_glide_ligand_efficiency>  (336) 
-0.0401693

>  <r_i_glide_ligand_efficiency_sa>  (336) 
-0.141812

>  <r_i_glide_ligand_efficiency_ln>  (336) 
-0.369435

>  <r_i_glide_gscore>  (336) 
-1.76745

>  <r_i_glide_lipo>  (336) 
-0.181555

>  <r_i_glide_hbond>  (336) 
-0.133914

>  <r_i_glide_metal>  (336) 
-0

>  <r_i_glide_rewards>  (336) 
-0.0230099

>  <r_i_glide_evdw>  (336) 
-25.6844

>  <r_i_glide_ecoul>  (336) 
-0.965003

>  <r_i_glide_erotb>  (336) 
0

>  <r_i_glide_esite>  (336) 
0

>  <r_i_glide_emodel>  (336) 
-29.2097

>  <r_i_glide_energy>  (336) 
-26.6494

>  <r_i_glide_einternal>  (336) 
0.814783

>  <r_i_glide_intrahb_reward>  (336) 
-0

>  <i_i_glide_confnum>  (336) 
2

>  <i_i_glide_posenum>  (336) 
24

>  <r_i_glide_eff_state_penalty>  (336) 
0

>  <ligand_id>  (336) 
96

>  <original_smiles>  (336) 
CC1(O)COC23COC4OCC5(C)CCC6(C)C7(C)CC8(C)COC8C(O)C(C)(C)C7CCC6(C)C(C(C)(CC12)C3O)C45C

>  <smiles>  (336) 
[H]OC1([H])C2([H])OC([H])([H])C2(C([H])([H])[H])C([H])([H])C2(C([H])([H])[H])C([H])(C([H])([H])C([H])([H])C3(C([H])([H])[H])C4([H])C5(C([H])([H])[H])C([H])([H])C6([H])C(O[H])(C([H])([H])[H])C([H])([H])OC6(C([H])([H])OC6([H])OC([H])([H])C(C([H])([H])[H])(C([H])([H])C([H])([H])C23C([H])([H])[H])C64C([H])([H])[H])C5([H])O[H])C1(C([H])([H])[H])C([H])([H])[H]

$$$$
97:0:0
     RDKit          3D

 18 19  0  0  1  0  0  0  0  0999 V2000
   -1.6750    2.0262    8.8478 C   0  0  0  0  0  0  0  0  0  0  0  0
   -1.5748    2.0367    7.4029 N   0  0  0  0  0  0  0  0  0  0  0  0
   -1.9958    0.9379    6.7190 N   0  0  0  0  0  0  0  0  0  0  0  0
   -1.7856    1.1944    5.4483 C   0  0  0  0  0  0  0  0  0  0  0  0
   -1.2296    2.4990    5.2668 C   0  0  0  0  0  0  0  0  0  0  0  0
   -0.8180    3.3358    4.2138 C   0  0  0  0  0  0  0  0  0  0  0  0
   -0.9145    2.9602    2.8793 N   0  0  0  0  0  0  0  0  0  0  0  0
   -0.3350    4.5643    4.5110 N   0  0  0  0  0  0  0  0  0  0  0  0
   -0.2203    4.9299    5.7908 C   0  0  0  0  0  0  0  0  0  0  0  0
   -0.5933    4.2651    6.8851 N   0  0  0  0  0  0  0  0  0  0  0  0
   -1.0898    3.0362    6.5692 C   0  0  0  0  0  0  0  0  0  0  0  0
   -1.3049    2.9662    9.2575 H   0  0  0  0  0  0  0  0  0  0  0  0
   -1.0797    1.2077    9.2513 H   0  0  0  0  0  0  0  0  0  0  0  0
   -2.7148    1.8995    9.1435 H   0  0  0  0  0  0  0  0  0  0  0  0
   -2.0459    0.4677    4.6928 H   0  0  0  0  0  0  0  0  0  0  0  0
   -1.2411    2.0471    2.5965 H   0  0  0  0  0  0  0  0  0  0  0  0
    0.1729    5.9223    5.9541 H   0  0  0  0  0  0  0  0  0  0  0  0
   -0.5462    3.5544    2.1270 H   0  0  0  0  0  0  0  0  0  0  0  0
  1  2  1  0
  1 12  1  0
  1 13  1  0
  1 14  1  0
  2 11  1  0
  2  3  1  0
  3  4  2  0
  4  5  1  0
  4 15  1  0
  5 11  2  0
  5  6  1  0
  6  7  1  0
  6  8  2  0
  7 16  1  0
  7 18  1  0
  8  9  1  0
  9 10  2  0
  9 17  1  0
 10 11  1  0
M  END
>  <i_m_ct_stereo_status>  (337) 
1

>  <s_m_source_file>  (337) 
/var/tmp/pbs.5076255.sched01/tmpfsvwwkaa/138cw1meju8.sdf

>  <i_m_source_file_index>  (337) 
6

>  <i_lp_mmshare_version>  (337) 
48012

>  <i_f3d_flags>  (337) 
0

>  <s_epik_input>  (337) 
W2NIXTFubihbQ0gzXSljKGMxMiluW2NIXVtuSF1jXDI9TlxbSF0=

>  <s_epik_cmdline>  (337) 
J2VwaWtfcHl0aG9uJywgJy1waHQnLCAnMi4wJywgJy1waCcsICc3LjAnLCAnLXRuJywgJzgnLCAnLW1hJywgJzIwMCcsICctaW1hZScsICc8aW5maWxlLm1hZT4nLCAnLW9tYWUnLCAnPG91dGZpbGUubWFlPic=

>  <r_lp_tautomer_probability>  (337) 
1

>  <r_epik_Ionization_Penalty>  (337) 
0.00122366

>  <r_epik_Ionization_Penalty_Charging>  (337) 
0

>  <r_epik_Ionization_Penalty_Neutral>  (337) 
0.00122366

>  <r_epik_State_Penalty>  (337) 
-0

>  <r_epik_Charging_Adjusted_Penalty>  (337) 
0

>  <i_epik_Tot_Q>  (337) 
0

>  <i_epik_Tot_abs_Q>  (337) 
0

>  <s_lp_Force_Field>  (337) 
OPLS3e

>  <r_lp_Energy>  (337) 
10.9136

>  <b_lp_Chiralities_Consistent>  (337) 
1

>  <s_lp_Variant>  (337) 
97:0-1

>  <s_i_glide_gridfile>  (337) 
pfpi4k_grid

>  <i_i_glide_lignum>  (337) 
6

>  <i_i_glide_rotatable_bonds>  (337) 
0

>  <r_i_docking_score>  (337) 
-4.1414

>  <r_i_glide_ligand_efficiency>  (337) 
-0.376491

>  <r_i_glide_ligand_efficiency_sa>  (337) 
-0.837307

>  <r_i_glide_ligand_efficiency_ln>  (337) 
-1.21881

>  <r_i_glide_gscore>  (337) 
-4.1414

>  <r_i_glide_lipo>  (337) 
0

>  <r_i_glide_hbond>  (337) 
-0.32

>  <r_i_glide_metal>  (337) 
-0

>  <r_i_glide_rewards>  (337) 
-2.26818

>  <r_i_glide_evdw>  (337) 
-9.99069

>  <r_i_glide_ecoul>  (337) 
-6.10136

>  <r_i_glide_erotb>  (337) 
0

>  <r_i_glide_esite>  (337) 
-0.138477

>  <r_i_glide_emodel>  (337) 
-22.0504

>  <r_i_glide_energy>  (337) 
-16.0921

>  <r_i_glide_einternal>  (337) 
0

>  <r_i_glide_intrahb_reward>  (337) 
-0

>  <i_i_glide_confnum>  (337) 
2

>  <i_i_glide_posenum>  (337) 
9

>  <r_i_glide_eff_state_penalty>  (337) 
0

>  <ligand_id>  (337) 
97

>  <original_smiles>  (337) 
Cn1ncc2c(=N)[nH]cnc21

>  <smiles>  (337) 
[H]c1nc(N([H])[H])c2c([H])nn(C([H])([H])[H])c2n1

$$$$
97:0:1
     RDKit          3D

 18 19  0  0  1  0  0  0  0  0999 V2000
   -2.9166    2.7634    6.6130 C   0  0  0  0  0  0  0  0  0  0  0  0
   -2.1845    2.6462    5.3667 N   0  0  0  0  0  0  0  0  0  0  0  0
   -2.1830    3.7079    4.5135 N   0  0  0  0  0  0  0  0  0  0  0  0
   -1.4638    3.3391    3.4781 C   0  0  0  0  0  0  0  0  0  0  0  0
   -0.9605    2.0136    3.6397 C   0  0  0  0  0  0  0  0  0  0  0  0
   -0.1538    1.0924    2.9395 C   0  0  0  0  0  0  0  0  0  0  0  0
    0.4215    1.3797    1.7042 N   0  0  0  0  0  0  0  0  0  0  0  0
    0.0822   -0.1158    3.4980 N   0  0  0  0  0  0  0  0  0  0  0  0
   -0.4536   -0.4056    4.6851 C   0  0  0  0  0  0  0  0  0  0  0  0
   -1.2412    0.3461    5.4617 N   0  0  0  0  0  0  0  0  0  0  0  0
   -1.4567    1.5661    4.8872 C   0  0  0  0  0  0  0  0  0  0  0  0
   -2.8232    1.8404    7.1873 H   0  0  0  0  0  0  0  0  0  0  0  0
   -3.9658    2.9440    6.3959 H   0  0  0  0  0  0  0  0  0  0  0  0
   -2.5148    3.5921    7.1954 H   0  0  0  0  0  0  0  0  0  0  0  0
   -1.3133    4.0205    2.6523 H   0  0  0  0  0  0  0  0  0  0  0  0
    0.2440    2.2723    1.2517 H   0  0  0  0  0  0  0  0  0  0  0  0
   -0.2168   -1.3936    5.0500 H   0  0  0  0  0  0  0  0  0  0  0  0
    0.9190    0.6885    1.1578 H   0  0  0  0  0  0  0  0  0  0  0  0
  1  2  1  0
  1 12  1  0
  1 13  1  0
  1 14  1  0
  2 11  1  0
  2  3  1  0
  3  4  2  0
  4  5  1  0
  4 15  1  0
  5 11  2  0
  5  6  1  0
  6  7  1  0
  6  8  2  0
  7 16  1  0
  7 18  1  0
  8  9  1  0
  9 10  2  0
  9 17  1  0
 10 11  1  0
M  END
>  <i_m_ct_stereo_status>  (338) 
1

>  <s_m_source_file>  (338) 
/var/tmp/pbs.5076255.sched01/tmpfsvwwkaa/138cw1meju8.sdf

>  <i_m_source_file_index>  (338) 
6

>  <i_lp_mmshare_version>  (338) 
48012

>  <i_f3d_flags>  (338) 
0

>  <s_epik_input>  (338) 
W2NIXTFubihbQ0gzXSljKGMxMiluW2NIXVtuSF1jXDI9TlxbSF0=

>  <s_epik_cmdline>  (338) 
J2VwaWtfcHl0aG9uJywgJy1waHQnLCAnMi4wJywgJy1waCcsICc3LjAnLCAnLXRuJywgJzgnLCAnLW1hJywgJzIwMCcsICctaW1hZScsICc8aW5maWxlLm1hZT4nLCAnLW9tYWUnLCAnPG91dGZpbGUubWFlPic=

>  <r_lp_tautomer_probability>  (338) 
1

>  <r_epik_Ionization_Penalty>  (338) 
0.00122366

>  <r_epik_Ionization_Penalty_Charging>  (338) 
0

>  <r_epik_Ionization_Penalty_Neutral>  (338) 
0.00122366

>  <r_epik_State_Penalty>  (338) 
-0

>  <r_epik_Charging_Adjusted_Penalty>  (338) 
0

>  <i_epik_Tot_Q>  (338) 
0

>  <i_epik_Tot_abs_Q>  (338) 
0

>  <s_lp_Force_Field>  (338) 
OPLS3e

>  <r_lp_Energy>  (338) 
10.9136

>  <b_lp_Chiralities_Consistent>  (338) 
1

>  <s_lp_Variant>  (338) 
97:0-1

>  <s_i_glide_gridfile>  (338) 
pfpi4k_grid

>  <i_i_glide_lignum>  (338) 
6

>  <i_i_glide_rotatable_bonds>  (338) 
0

>  <r_i_docking_score>  (338) 
-3.98133

>  <r_i_glide_ligand_efficiency>  (338) 
-0.361939

>  <r_i_glide_ligand_efficiency_sa>  (338) 
-0.804945

>  <r_i_glide_ligand_efficiency_ln>  (338) 
-1.1717

>  <r_i_glide_gscore>  (338) 
-3.98133

>  <r_i_glide_lipo>  (338) 
-0.196813

>  <r_i_glide_hbond>  (338) 
-0.131747

>  <r_i_glide_metal>  (338) 
-0

>  <r_i_glide_rewards>  (338) 
-2.29525

>  <r_i_glide_evdw>  (338) 
-15.2627

>  <r_i_glide_ecoul>  (338) 
-3.15088

>  <r_i_glide_erotb>  (338) 
0

>  <r_i_glide_esite>  (338) 
-0.121754

>  <r_i_glide_emodel>  (338) 
-24.1308

>  <r_i_glide_energy>  (338) 
-18.4136

>  <r_i_glide_einternal>  (338) 
0

>  <r_i_glide_intrahb_reward>  (338) 
-0

>  <i_i_glide_confnum>  (338) 
1

>  <i_i_glide_posenum>  (338) 
4

>  <r_i_glide_eff_state_penalty>  (338) 
0

>  <ligand_id>  (338) 
97

>  <original_smiles>  (338) 
Cn1ncc2c(=N)[nH]cnc21

>  <smiles>  (338) 
[H]c1nc(N([H])[H])c2c([H])nn(C([H])([H])[H])c2n1

$$$$
97:0:2
     RDKit          3D

 18 19  0  0  1  0  0  0  0  0999 V2000
   -0.0991   -2.8465    5.6386 C   0  0  0  0  0  0  0  0  0  0  0  0
   -0.4015   -1.5250    5.1302 N   0  0  0  0  0  0  0  0  0  0  0  0
   -1.4044   -0.8197    5.7228 N   0  0  0  0  0  0  0  0  0  0  0  0
   -1.4605    0.3281    5.0906 C   0  0  0  0  0  0  0  0  0  0  0  0
   -0.4946    0.3938    4.0390 C   0  0  0  0  0  0  0  0  0  0  0  0
   -0.0708    1.2923    3.0409 C   0  0  0  0  0  0  0  0  0  0  0  0
   -0.6348    2.5524    2.8801 N   0  0  0  0  0  0  0  0  0  0  0  0
    0.9300    0.9247    2.2139 N   0  0  0  0  0  0  0  0  0  0  0  0
    1.4844   -0.2817    2.3542 C   0  0  0  0  0  0  0  0  0  0  0  0
    1.2077   -1.2303    3.2529 N   0  0  0  0  0  0  0  0  0  0  0  0
    0.1968   -0.8398    4.0806 C   0  0  0  0  0  0  0  0  0  0  0  0
    0.7068   -3.2986    5.0589 H   0  0  0  0  0  0  0  0  0  0  0  0
   -0.9875   -3.4717    5.5736 H   0  0  0  0  0  0  0  0  0  0  0  0
    0.2072   -2.7783    6.6819 H   0  0  0  0  0  0  0  0  0  0  0  0
   -2.1820    1.0770    5.3852 H   0  0  0  0  0  0  0  0  0  0  0  0
   -1.4001    2.8705    3.4489 H   0  0  0  0  0  0  0  0  0  0  0  0
    2.2784   -0.5031    1.6555 H   0  0  0  0  0  0  0  0  0  0  0  0
   -0.3280    3.1824    2.1344 H   0  0  0  0  0  0  0  0  0  0  0  0
  1  2  1  0
  1 12  1  0
  1 13  1  0
  1 14  1  0
  2 11  1  0
  2  3  1  0
  3  4  2  0
  4  5  1  0
  4 15  1  0
  5 11  2  0
  5  6  1  0
  6  7  1  0
  6  8  2  0
  7 16  1  0
  7 18  1  0
  8  9  1  0
  9 10  2  0
  9 17  1  0
 10 11  1  0
M  END
>  <i_m_ct_stereo_status>  (339) 
1

>  <s_m_source_file>  (339) 
/var/tmp/pbs.5076255.sched01/tmpfsvwwkaa/138cw1meju8.sdf

>  <i_m_source_file_index>  (339) 
6

>  <i_lp_mmshare_version>  (339) 
48012

>  <i_f3d_flags>  (339) 
0

>  <s_epik_input>  (339) 
W2NIXTFubihbQ0gzXSljKGMxMiluW2NIXVtuSF1jXDI9TlxbSF0=

>  <s_epik_cmdline>  (339) 
J2VwaWtfcHl0aG9uJywgJy1waHQnLCAnMi4wJywgJy1waCcsICc3LjAnLCAnLXRuJywgJzgnLCAnLW1hJywgJzIwMCcsICctaW1hZScsICc8aW5maWxlLm1hZT4nLCAnLW9tYWUnLCAnPG91dGZpbGUubWFlPic=

>  <r_lp_tautomer_probability>  (339) 
1

>  <r_epik_Ionization_Penalty>  (339) 
0.00122366

>  <r_epik_Ionization_Penalty_Charging>  (339) 
0

>  <r_epik_Ionization_Penalty_Neutral>  (339) 
0.00122366

>  <r_epik_State_Penalty>  (339) 
-0

>  <r_epik_Charging_Adjusted_Penalty>  (339) 
0

>  <i_epik_Tot_Q>  (339) 
0

>  <i_epik_Tot_abs_Q>  (339) 
0

>  <s_lp_Force_Field>  (339) 
OPLS3e

>  <r_lp_Energy>  (339) 
10.9136

>  <b_lp_Chiralities_Consistent>  (339) 
1

>  <s_lp_Variant>  (339) 
97:0-1

>  <s_i_glide_gridfile>  (339) 
pfpi4k_grid

>  <i_i_glide_lignum>  (339) 
6

>  <i_i_glide_rotatable_bonds>  (339) 
0

>  <r_i_docking_score>  (339) 
-3.71975

>  <r_i_glide_ligand_efficiency>  (339) 
-0.338159

>  <r_i_glide_ligand_efficiency_sa>  (339) 
-0.752058

>  <r_i_glide_ligand_efficiency_ln>  (339) 
-1.09472

>  <r_i_glide_gscore>  (339) 
-3.71975

>  <r_i_glide_lipo>  (339) 
0

>  <r_i_glide_hbond>  (339) 
-0.167689

>  <r_i_glide_metal>  (339) 
-0

>  <r_i_glide_rewards>  (339) 
-2.25

>  <r_i_glide_evdw>  (339) 
-13.4484

>  <r_i_glide_ecoul>  (339) 
-3.10303

>  <r_i_glide_erotb>  (339) 
0

>  <r_i_glide_esite>  (339) 
-0.164185

>  <r_i_glide_emodel>  (339) 
-21.9076

>  <r_i_glide_energy>  (339) 
-16.5514

>  <r_i_glide_einternal>  (339) 
0

>  <r_i_glide_intrahb_reward>  (339) 
-0

>  <i_i_glide_confnum>  (339) 
2

>  <i_i_glide_posenum>  (339) 
2

>  <r_i_glide_eff_state_penalty>  (339) 
0

>  <ligand_id>  (339) 
97

>  <original_smiles>  (339) 
Cn1ncc2c(=N)[nH]cnc21

>  <smiles>  (339) 
[H]c1nc(N([H])[H])c2c([H])nn(C([H])([H])[H])c2n1

$$$$
98:0:0
     RDKit          3D

 75 81  0  0  1  0  0  0  0  0999 V2000
    2.8225   -4.6938    1.0195 C   0  0  0  0  0  0  0  0  0  0  0  0
    2.8342   -3.2898    1.6031 C   0  0  0  0  0  0  0  0  0  0  0  0
    3.3761   -3.1782    3.0605 C   0  0  0  0  0  0  0  0  0  0  0  0
    3.3523   -1.7801    3.7989 C   0  0  2  0  0  0  0  0  0  0  0  0
    4.3645   -1.9100    4.9389 C   0  0  0  0  0  0  0  0  0  0  0  0
    4.7967   -0.8717    5.6647 C   0  0  0  0  0  0  0  0  0  0  0  0
    6.0192   -0.9619    6.5846 C   0  0  0  0  0  0  0  0  0  0  0  0
    3.8660    0.3222    5.8647 C   0  0  2  0  0  0  0  0  0  0  0  0
    2.8568   -0.3663    6.7223 C   0  0  0  0  0  0  0  0  0  0  0  0
    1.6523   -0.8580    5.8884 C   0  0  2  0  0  0  0  0  0  0  0  0
    1.1256   -2.1999    6.4975 C   0  0  0  0  0  0  0  0  0  0  0  0
   -0.3035   -2.4719    5.9199 C   0  0  0  0  0  0  0  0  0  0  0  0
   -0.4662   -1.6786    4.6657 N   0  0  0  0  0  0  0  0  0  0  0  0
    0.6846   -2.1903    3.9125 C   0  0  0  0  0  0  0  0  0  0  0  0
    1.8648   -1.2009    4.1347 C   0  0  2  0  0  0  0  0  0  0  0  0
    1.4439   -0.4801    2.6348 C   0  0  0  0  0  0  0  0  0  0  0  0
    1.9056    0.7901    1.7671 C   0  0  0  0  0  0  0  0  0  0  0  0
    1.5560    2.2611    2.0371 C   0  0  0  0  0  0  0  0  0  0  0  0
    1.9127    2.7632    3.3880 N   0  0  1  0  0  0  0  0  0  0  0  0
    1.3155    4.1002    3.6787 C   0  0  0  0  0  0  0  0  0  0  0  0
    2.2755    4.9983    4.4064 C   0  0  0  0  0  0  0  0  0  0  0  0
    2.0439    6.4935    4.4010 C   0  0  0  0  0  0  0  0  0  0  0  0
    3.1996    5.9186    3.6390 C   0  0  0  0  0  0  0  0  0  0  0  0
    1.7315    1.7346    4.4752 C   0  0  1  0  0  0  0  0  0  0  0  0
    0.1392    1.1653    4.2718 C   0  0  0  0  0  0  0  0  0  0  0  0
   -0.7214   -0.1235    4.8201 C   0  0  2  0  0  0  0  0  0  0  0  0
   -0.7593    0.2259    6.2300 C   0  0  0  0  0  0  0  0  0  0  0  0
   -1.7309    0.5527    6.8965 O   0  0  0  0  0  0  0  0  0  0  0  0
    0.6478    0.1260    6.7052 C   0  0  0  0  0  0  0  0  0  0  0  0
    3.2563    1.0656    4.6062 C   0  0  2  0  0  0  0  0  0  0  0  0
    3.9798    0.6657    3.4208 O   0  0  0  0  0  0  0  0  0  0  0  0
    4.1556   -0.7099    3.0002 C   0  0  0  0  0  0  0  0  0  0  0  0
    2.4021   -4.6320    0.0172 H   0  0  0  0  0  0  0  0  0  0  0  0
    2.1664   -5.3193    1.6190 H   0  0  0  0  0  0  0  0  0  0  0  0
    3.8210   -5.1295    0.9664 H   0  0  0  0  0  0  0  0  0  0  0  0
    3.3805   -2.6330    0.9198 H   0  0  0  0  0  0  0  0  0  0  0  0
    1.8024   -3.0335    1.5364 H   0  0  0  0  0  0  0  0  0  0  0  0
    2.8925   -3.9249    3.6906 H   0  0  0  0  0  0  0  0  0  0  0  0
    4.4039   -3.5419    3.0101 H   0  0  0  0  0  0  0  0  0  0  0  0
    4.9633   -2.8054    4.9293 H   0  0  0  0  0  0  0  0  0  0  0  0
    5.7702   -0.7146    7.6152 H   0  0  0  0  0  0  0  0  0  0  0  0
    6.8048   -0.2807    6.2599 H   0  0  0  0  0  0  0  0  0  0  0  0
    6.4397   -1.9635    6.5863 H   0  0  0  0  0  0  0  0  0  0  0  0
    4.4211    1.0456    6.4689 H   0  0  0  0  0  0  0  0  0  0  0  0
    3.2596   -1.2036    7.2965 H   0  0  0  0  0  0  0  0  0  0  0  0
    2.6617    0.3241    7.5478 H   0  0  0  0  0  0  0  0  0  0  0  0
    1.8107   -3.0091    6.2449 H   0  0  0  0  0  0  0  0  0  0  0  0
    1.0902   -2.2040    7.5852 H   0  0  0  0  0  0  0  0  0  0  0  0
   -0.4250   -3.5404    5.7359 H   0  0  0  0  0  0  0  0  0  0  0  0
   -1.0924   -2.2732    6.6424 H   0  0  0  0  0  0  0  0  0  0  0  0
    0.9690   -3.2052    4.1800 H   0  0  0  0  0  0  0  0  0  0  0  0
    0.3341   -2.4075    2.9108 H   0  0  0  0  0  0  0  0  0  0  0  0
    1.7365   -1.1670    1.8953 H   0  0  0  0  0  0  0  0  0  0  0  0
    0.3677   -0.4556    2.4602 H   0  0  0  0  0  0  0  0  0  0  0  0
    2.9100    0.7593    1.3650 H   0  0  0  0  0  0  0  0  0  0  0  0
    1.3570    0.6254    0.8426 H   0  0  0  0  0  0  0  0  0  0  0  0
    2.0958    2.8801    1.3411 H   0  0  0  0  0  0  0  0  0  0  0  0
    0.5204    2.4592    1.8034 H   0  0  0  0  0  0  0  0  0  0  0  0
    1.0492    4.5957    2.7570 H   0  0  0  0  0  0  0  0  0  0  0  0
    0.3939    4.0140    4.2396 H   0  0  0  0  0  0  0  0  0  0  0  0
    2.6489    4.5944    5.3526 H   0  0  0  0  0  0  0  0  0  0  0  0
    1.2108    6.8993    3.8203 H   0  0  0  0  0  0  0  0  0  0  0  0
    2.2842    7.0522    5.3068 H   0  0  0  0  0  0  0  0  0  0  0  0
    4.1997    6.0730    4.0487 H   0  0  0  0  0  0  0  0  0  0  0  0
    3.1426    5.9007    2.5487 H   0  0  0  0  0  0  0  0  0  0  0  0
    1.6879    2.3355    5.3752 H   0  0  0  0  0  0  0  0  0  0  0  0
   -0.4289    2.0155    4.6620 H   0  0  0  0  0  0  0  0  0  0  0  0
   -0.2617    1.2760    3.2749 H   0  0  0  0  0  0  0  0  0  0  0  0
   -1.7309    0.0267    4.4393 H   0  0  0  0  0  0  0  0  0  0  0  0
    0.5696   -0.1885    7.7392 H   0  0  0  0  0  0  0  0  0  0  0  0
    0.9927    1.1520    6.7780 H   0  0  0  0  0  0  0  0  0  0  0  0
    3.8104    1.9988    4.7183 H   0  0  0  0  0  0  0  0  0  0  0  0
    5.2310   -0.9101    3.0306 H   0  0  0  0  0  0  0  0  0  0  0  0
    3.9959   -0.8091    1.9346 H   0  0  0  0  0  0  0  0  0  0  0  0
    2.9321    2.9148    3.3241 H   0  0  0  0  0  0  0  0  0  0  0  0
  1  2  1  0
  1 33  1  0
  1 34  1  0
  1 35  1  0
  2  3  1  0
  2 36  1  0
  2 37  1  0
  4  3  1  6
  3 38  1  0
  3 39  1  0
  4 15  1  0
  4 32  1  0
  4  5  1  0
  5  6  2  0
  5 40  1  0
  6  7  1  0
  6  8  1  0
  7 41  1  0
  7 42  1  0
  7 43  1  0
  8 30  1  0
  8  9  1  0
  8 44  1  1
 10  9  1  1
  9 45  1  0
  9 46  1  0
 10 15  1  0
 10 29  1  0
 10 11  1  0
 11 12  1  0
 11 47  1  0
 11 48  1  0
 12 13  1  0
 12 49  1  0
 12 50  1  0
 13 26  1  0
 13 14  1  0
 14 15  1  0
 14 51  1  0
 14 52  1  0
 15 16  1  6
 16 17  1  0
 16 53  1  0
 16 54  1  0
 17 18  1  0
 17 55  1  0
 17 56  1  0
 18 19  1  0
 18 57  1  0
 18 58  1  0
 19 20  1  0
 19 24  1  0
 19 75  1  6
 20 21  1  0
 20 59  1  0
 20 60  1  0
 21 23  1  0
 21 22  1  0
 21 61  1  0
 22 23  1  0
 22 62  1  0
 22 63  1  0
 23 64  1  0
 23 65  1  0
 24 25  1  0
 24 30  1  0
 24 66  1  1
 25 26  1  0
 25 67  1  0
 25 68  1  0
 26 27  1  0
 26 69  1  6
 27 28  2  0
 27 29  1  0
 29 70  1  0
 29 71  1  0
 30 31  1  0
 30 72  1  1
 31 32  1  0
 32 73  1  0
 32 74  1  0
M  CHG  1  19   1
M  END
>  <i_m_ct_stereo_status>  (340) 
1

>  <s_m_source_file>  (340) 
/var/tmp/pbs.5076255.sched01/tmpfsvwwkaa/138cw1meju8.sdf

>  <i_m_source_file_index>  (340) 
7

>  <i_lp_mmshare_version>  (340) 
48012

>  <i_f3d_flags>  (340) 
0

>  <s_epik_input>  (340) 
W0NIM11bQ0gyXVtDSDJdW0NAQF0xKFtDQF0yM1tDQF00NTYpW0NIXT1DKFtDSDNdKVtDQEhdKFtDSDJdNClbQ0BASF0oT1tDSDJdMSlbQ0BASF0oTihbQ0gyXVtDSDJdW0NIMl0zKVtDSDJdW0NIXTdbQ0gyXVtDSDJdNylbQ0gyXVtDQEhdKEMoPU8pW0NIMl02KU4oW0NIMl0yKVtDSDJdW0NIMl01

>  <s_epik_cmdline>  (340) 
J2VwaWtfcHl0aG9uJywgJy1waHQnLCAnMi4wJywgJy1waCcsICc3LjAnLCAnLXRuJywgJzgnLCAnLW1hJywgJzIwMCcsICctaW1hZScsICc8aW5maWxlLm1hZT4nLCAnLW9tYWUnLCAnPG91dGZpbGUubWFlPic=

>  <r_lp_tautomer_probability>  (340) 
1

>  <r_epik_Ionization_Penalty>  (340) 
0.26967

>  <r_epik_Ionization_Penalty_Charging>  (340) 
0.00243847

>  <r_epik_Ionization_Penalty_Neutral>  (340) 
0.267231

>  <r_epik_State_Penalty>  (340) 
0.213285

>  <r_epik_Charging_Adjusted_Penalty>  (340) 
0.215723

>  <i_epik_Tot_Q>  (340) 
1

>  <i_epik_Tot_abs_Q>  (340) 
1

>  <s_lp_Force_Field>  (340) 
OPLS3e

>  <r_lp_Energy>  (340) 
395.156

>  <b_lp_Chiralities_Consistent>  (340) 
1

>  <s_lp_Variant>  (340) 
98:0-1

>  <s_i_glide_gridfile>  (340) 
pfpi4k_grid

>  <i_i_glide_lignum>  (340) 
7

>  <i_i_glide_rotatable_bonds>  (340) 
4

>  <r_i_docking_score>  (340) 
-2.37933

>  <r_i_glide_ligand_efficiency>  (340) 
-0.0743541

>  <r_i_glide_ligand_efficiency_sa>  (340) 
-0.23606

>  <r_i_glide_ligand_efficiency_ln>  (340) 
-0.532797

>  <r_i_glide_gscore>  (340) 
-2.37933

>  <r_i_glide_lipo>  (340) 
-0.204579

>  <r_i_glide_hbond>  (340) 
-0.16

>  <r_i_glide_metal>  (340) 
-0

>  <r_i_glide_rewards>  (340) 
-0.411455

>  <r_i_glide_evdw>  (340) 
-18.2792

>  <r_i_glide_ecoul>  (340) 
-6.14466

>  <r_i_glide_erotb>  (340) 
0.309786

>  <r_i_glide_esite>  (340) 
-0.0774247

>  <r_i_glide_emodel>  (340) 
-24.9373

>  <r_i_glide_energy>  (340) 
-24.4239

>  <r_i_glide_einternal>  (340) 
5.50047

>  <r_i_glide_intrahb_reward>  (340) 
-0

>  <i_i_glide_confnum>  (340) 
3

>  <i_i_glide_posenum>  (340) 
23

>  <r_i_glide_eff_state_penalty>  (340) 
0

>  <ligand_id>  (340) 
98

>  <original_smiles>  (340) 
CCCC12C=C(C)C3CC45CCN6CC14CCCN(CC1CC1)C(CC6C(=O)C5)C3OC2

>  <smiles>  (340) 
[H]C1=C(C([H])([H])[H])C2([H])C([H])([H])C34C([H])([H])C(=O)C5([H])N(C([H])([H])C3([H])[H])C([H])([H])C43C([H])([H])C([H])([H])C([H])([H])[N+]([H])(C([H])([H])C4([H])C([H])([H])C4([H])[H])C([H])(C5([H])[H])C2([H])OC([H])([H])C13C([H])([H])C([H])([H])C([H])([H])[H]

$$$$
98:0:1
     RDKit          3D

 75 81  0  0  1  0  0  0  0  0999 V2000
    4.8747   -6.3527   10.9572 C   0  0  0  0  0  0  0  0  0  0  0  0
    4.4220   -6.6555    9.5397 C   0  0  0  0  0  0  0  0  0  0  0  0
    5.4918   -6.4038    8.4375 C   0  0  0  0  0  0  0  0  0  0  0  0
    5.1575   -6.7279    6.9265 C   0  0  2  0  0  0  0  0  0  0  0  0
    6.5106   -6.8099    6.2244 C   0  0  0  0  0  0  0  0  0  0  0  0
    6.6604   -7.2873    4.9738 C   0  0  0  0  0  0  0  0  0  0  0  0
    8.0301   -7.6476    4.4008 C   0  0  0  0  0  0  0  0  0  0  0  0
    5.5114   -7.1354    3.9871 C   0  0  2  0  0  0  0  0  0  0  0  0
    5.5708   -5.6480    3.8537 C   0  0  0  0  0  0  0  0  0  0  0  0
    4.5492   -4.9537    4.7792 C   0  0  2  0  0  0  0  0  0  0  0  0
    5.1480   -3.6035    5.2891 C   0  0  0  0  0  0  0  0  0  0  0  0
    3.9839   -2.7381    5.8734 C   0  0  0  0  0  0  0  0  0  0  0  0
    2.8405   -3.6422    6.2050 N   0  0  0  0  0  0  0  0  0  0  0  0
    3.5314   -4.5640    7.1194 C   0  0  0  0  0  0  0  0  0  0  0  0
    3.9869   -5.7941    6.2709 C   0  0  2  0  0  0  0  0  0  0  0  0
    2.5747   -6.5980    6.8207 C   0  0  0  0  0  0  0  0  0  0  0  0
    1.8414   -7.9982    6.5926 C   0  0  0  0  0  0  0  0  0  0  0  0
    0.9958   -8.3785    5.3684 C   0  0  0  0  0  0  0  0  0  0  0  0
    1.6615   -8.2215    4.0345 N   0  0  1  0  0  0  0  0  0  0  0  0
    0.7217   -8.3431    2.8628 C   0  0  0  0  0  0  0  0  0  0  0  0
   -0.4920   -9.2237    3.1397 C   0  0  0  0  0  0  0  0  0  0  0  0
   -1.6468   -9.2754    2.1824 C   0  0  0  0  0  0  0  0  0  0  0  0
   -1.8147   -8.5616    3.4903 C   0  0  0  0  0  0  0  0  0  0  0  0
    2.5859   -7.0364    3.9678 C   0  0  1  0  0  0  0  0  0  0  0  0
    1.6591   -5.7093    4.4948 C   0  0  0  0  0  0  0  0  0  0  0  0
    1.9724   -4.1697    4.9949 C   0  0  2  0  0  0  0  0  0  0  0  0
    2.4889   -3.6199    3.7362 C   0  0  0  0  0  0  0  0  0  0  0  0
    1.9789   -2.7912    2.9909 O   0  0  0  0  0  0  0  0  0  0  0  0
    3.7652   -4.3444    3.4968 C   0  0  0  0  0  0  0  0  0  0  0  0
    4.0722   -7.7074    4.3506 C   0  0  2  0  0  0  0  0  0  0  0  0
    4.1859   -8.6089    5.4746 O   0  0  0  0  0  0  0  0  0  0  0  0
    4.7879   -8.2369    6.7454 C   0  0  0  0  0  0  0  0  0  0  0  0
    4.0478   -6.5634   11.6360 H   0  0  0  0  0  0  0  0  0  0  0  0
    5.1179   -5.2968   11.0547 H   0  0  0  0  0  0  0  0  0  0  0  0
    5.7304   -6.9555   11.2628 H   0  0  0  0  0  0  0  0  0  0  0  0
    4.0746   -7.6891    9.5235 H   0  0  0  0  0  0  0  0  0  0  0  0
    3.5511   -6.0226    9.4170 H   0  0  0  0  0  0  0  0  0  0  0  0
    5.8528   -5.3773    8.5118 H   0  0  0  0  0  0  0  0  0  0  0  0
    6.3588   -6.9918    8.7406 H   0  0  0  0  0  0  0  0  0  0  0  0
    7.3746   -6.7805    6.8660 H   0  0  0  0  0  0  0  0  0  0  0  0
    8.2516   -7.0881    3.4910 H   0  0  0  0  0  0  0  0  0  0  0  0
    8.0771   -8.7085    4.1569 H   0  0  0  0  0  0  0  0  0  0  0  0
    8.8294   -7.4394    5.1136 H   0  0  0  0  0  0  0  0  0  0  0  0
    5.8472   -7.5931    3.0531 H   0  0  0  0  0  0  0  0  0  0  0  0
    6.5625   -5.2195    4.0385 H   0  0  0  0  0  0  0  0  0  0  0  0
    5.5150   -5.4549    2.7781 H   0  0  0  0  0  0  0  0  0  0  0  0
    5.9101   -3.8041    6.0453 H   0  0  0  0  0  0  0  0  0  0  0  0
    5.6739   -3.0422    4.5176 H   0  0  0  0  0  0  0  0  0  0  0  0
    4.3356   -2.2025    6.7575 H   0  0  0  0  0  0  0  0  0  0  0  0
    3.6904   -1.9245    5.2082 H   0  0  0  0  0  0  0  0  0  0  0  0
    4.3813   -4.1308    7.6451 H   0  0  0  0  0  0  0  0  0  0  0  0
    2.8748   -4.6902    7.9792 H   0  0  0  0  0  0  0  0  0  0  0  0
    2.7595   -6.7812    7.8544 H   0  0  0  0  0  0  0  0  0  0  0  0
    1.7124   -5.9387    6.9217 H   0  0  0  0  0  0  0  0  0  0  0  0
    2.3718   -8.8934    6.8840 H   0  0  0  0  0  0  0  0  0  0  0  0
    1.0689   -7.9921    7.3532 H   0  0  0  0  0  0  0  0  0  0  0  0
    0.7591   -9.4381    5.4805 H   0  0  0  0  0  0  0  0  0  0  0  0
    0.0408   -7.8620    5.3951 H   0  0  0  0  0  0  0  0  0  0  0  0
    0.3669   -7.3585    2.5621 H   0  0  0  0  0  0  0  0  0  0  0  0
    1.2845   -8.7538    2.0214 H   0  0  0  0  0  0  0  0  0  0  0  0
   -0.2648  -10.1913    3.5971 H   0  0  0  0  0  0  0  0  0  0  0  0
   -1.5791   -8.6759    1.2832 H   0  0  0  0  0  0  0  0  0  0  0  0
   -2.1413  -10.2363    2.0689 H   0  0  0  0  0  0  0  0  0  0  0  0
   -2.4214   -9.0567    4.2495 H   0  0  0  0  0  0  0  0  0  0  0  0
   -1.8672   -7.4710    3.4718 H   0  0  0  0  0  0  0  0  0  0  0  0
    2.7083   -6.8704    2.8951 H   0  0  0  0  0  0  0  0  0  0  0  0
    1.0397   -5.5484    3.6052 H   0  0  0  0  0  0  0  0  0  0  0  0
    0.8179   -5.9759    5.1139 H   0  0  0  0  0  0  0  0  0  0  0  0
    0.9900   -3.7161    5.1459 H   0  0  0  0  0  0  0  0  0  0  0  0
    4.3890   -3.6172    2.9811 H   0  0  0  0  0  0  0  0  0  0  0  0
    3.5266   -5.0721    2.7282 H   0  0  0  0  0  0  0  0  0  0  0  0
    4.0579   -8.5075    3.6051 H   0  0  0  0  0  0  0  0  0  0  0  0
    5.6665   -8.8761    6.8691 H   0  0  0  0  0  0  0  0  0  0  0  0
    4.1984   -8.5998    7.5803 H   0  0  0  0  0  0  0  0  0  0  0  0
    2.2765   -9.0317    3.9760 H   0  0  0  0  0  0  0  0  0  0  0  0
  1  2  1  0
  1 33  1  0
  1 34  1  0
  1 35  1  0
  2  3  1  0
  2 36  1  0
  2 37  1  0
  4  3  1  1
  3 38  1  0
  3 39  1  0
  4 15  1  0
  4 32  1  0
  4  5  1  0
  5  6  2  0
  5 40  1  0
  6  7  1  0
  6  8  1  0
  7 41  1  0
  7 42  1  0
  7 43  1  0
  8 30  1  0
  8  9  1  0
  8 44  1  6
 10  9  1  6
  9 45  1  0
  9 46  1  0
 10 15  1  0
 10 29  1  0
 10 11  1  0
 11 12  1  0
 11 47  1  0
 11 48  1  0
 12 13  1  0
 12 49  1  0
 12 50  1  0
 13 26  1  0
 13 14  1  0
 14 15  1  0
 14 51  1  0
 14 52  1  0
 15 16  1  6
 16 17  1  0
 16 53  1  0
 16 54  1  0
 17 18  1  0
 17 55  1  0
 17 56  1  0
 18 19  1  0
 18 57  1  0
 18 58  1  0
 19 20  1  0
 19 24  1  0
 19 75  1  6
 20 21  1  0
 20 59  1  0
 20 60  1  0
 21 23  1  0
 21 22  1  0
 21 61  1  0
 22 23  1  0
 22 62  1  0
 22 63  1  0
 23 64  1  0
 23 65  1  0
 24 25  1  0
 24 30  1  0
 24 66  1  6
 25 26  1  0
 25 67  1  0
 25 68  1  0
 26 27  1  0
 26 69  1  1
 27 28  2  0
 27 29  1  0
 29 70  1  0
 29 71  1  0
 30 31  1  0
 30 72  1  6
 31 32  1  0
 32 73  1  0
 32 74  1  0
M  CHG  1  19   1
M  END
>  <i_m_ct_stereo_status>  (341) 
1

>  <s_m_source_file>  (341) 
/var/tmp/pbs.5076255.sched01/tmpfsvwwkaa/138cw1meju8.sdf

>  <i_m_source_file_index>  (341) 
7

>  <i_lp_mmshare_version>  (341) 
48012

>  <i_f3d_flags>  (341) 
0

>  <s_epik_input>  (341) 
W0NIM11bQ0gyXVtDSDJdW0NAQF0xKFtDQF0yM1tDQF00NTYpW0NIXT1DKFtDSDNdKVtDQEhdKFtDSDJdNClbQ0BASF0oT1tDSDJdMSlbQ0BASF0oTihbQ0gyXVtDSDJdW0NIMl0zKVtDSDJdW0NIXTdbQ0gyXVtDSDJdNylbQ0gyXVtDQEhdKEMoPU8pW0NIMl02KU4oW0NIMl0yKVtDSDJdW0NIMl01

>  <s_epik_cmdline>  (341) 
J2VwaWtfcHl0aG9uJywgJy1waHQnLCAnMi4wJywgJy1waCcsICc3LjAnLCAnLXRuJywgJzgnLCAnLW1hJywgJzIwMCcsICctaW1hZScsICc8aW5maWxlLm1hZT4nLCAnLW9tYWUnLCAnPG91dGZpbGUubWFlPic=

>  <r_lp_tautomer_probability>  (341) 
1

>  <r_epik_Ionization_Penalty>  (341) 
0.26967

>  <r_epik_Ionization_Penalty_Charging>  (341) 
0.00243847

>  <r_epik_Ionization_Penalty_Neutral>  (341) 
0.267231

>  <r_epik_State_Penalty>  (341) 
0.213285

>  <r_epik_Charging_Adjusted_Penalty>  (341) 
0.215723

>  <i_epik_Tot_Q>  (341) 
1

>  <i_epik_Tot_abs_Q>  (341) 
1

>  <s_lp_Force_Field>  (341) 
OPLS3e

>  <r_lp_Energy>  (341) 
395.156

>  <b_lp_Chiralities_Consistent>  (341) 
1

>  <s_lp_Variant>  (341) 
98:0-1

>  <s_i_glide_gridfile>  (341) 
pfpi4k_grid

>  <i_i_glide_lignum>  (341) 
7

>  <i_i_glide_rotatable_bonds>  (341) 
4

>  <r_i_docking_score>  (341) 
-1.15278

>  <r_i_glide_ligand_efficiency>  (341) 
-0.0360245

>  <r_i_glide_ligand_efficiency_sa>  (341) 
-0.114371

>  <r_i_glide_ligand_efficiency_ln>  (341) 
-0.25814

>  <r_i_glide_gscore>  (341) 
-1.15278

>  <r_i_glide_lipo>  (341) 
-0.260414

>  <r_i_glide_hbond>  (341) 
0

>  <r_i_glide_metal>  (341) 
-0

>  <r_i_glide_rewards>  (341) 
-0.413149

>  <r_i_glide_evdw>  (341) 
-14.3778

>  <r_i_glide_ecoul>  (341) 
-0.406502

>  <r_i_glide_erotb>  (341) 
0.309786

>  <r_i_glide_esite>  (341) 
-0.00914327

>  <r_i_glide_emodel>  (341) 
-11.9318

>  <r_i_glide_energy>  (341) 
-14.7843

>  <r_i_glide_einternal>  (341) 
6.8554

>  <r_i_glide_intrahb_reward>  (341) 
-0

>  <i_i_glide_confnum>  (341) 
3

>  <i_i_glide_posenum>  (341) 
3

>  <r_i_glide_eff_state_penalty>  (341) 
0

>  <ligand_id>  (341) 
98

>  <original_smiles>  (341) 
CCCC12C=C(C)C3CC45CCN6CC14CCCN(CC1CC1)C(CC6C(=O)C5)C3OC2

>  <smiles>  (341) 
[H]C1=C(C([H])([H])[H])C2([H])C([H])([H])C34C([H])([H])C(=O)C5([H])N(C([H])([H])C3([H])[H])C([H])([H])C43C([H])([H])C([H])([H])C([H])([H])[N+]([H])(C([H])([H])C4([H])C([H])([H])C4([H])[H])C([H])(C5([H])[H])C2([H])OC([H])([H])C13C([H])([H])C([H])([H])C([H])([H])[H]

$$$$
98:1:0
     RDKit          3D

 76 82  0  0  1  0  0  0  0  0999 V2000
    0.3056   -4.3801    6.2769 C   0  0  0  0  0  0  0  0  0  0  0  0
    0.5441   -5.8784    6.5873 C   0  0  0  0  0  0  0  0  0  0  0  0
    1.8014   -6.5408    5.9412 C   0  0  0  0  0  0  0  0  0  0  0  0
    1.8835   -6.7303    4.3722 C   0  0  2  0  0  0  0  0  0  0  0  0
    0.6681   -7.5484    3.9716 C   0  0  0  0  0  0  0  0  0  0  0  0
    0.2936   -7.6787    2.6838 C   0  0  0  0  0  0  0  0  0  0  0  0
   -1.0782   -8.2153    2.3094 C   0  0  0  0  0  0  0  0  0  0  0  0
    1.3819   -7.6484    1.6148 C   0  0  2  0  0  0  0  0  0  0  0  0
    2.0558   -8.9223    2.0134 C   0  0  0  0  0  0  0  0  0  0  0  0
    3.3141   -8.6430    2.8361 C   0  0  2  0  0  0  0  0  0  0  0  0
    3.5623   -9.8641    3.8093 C   0  0  0  0  0  0  0  0  0  0  0  0
    5.0181   -9.8061    4.3492 C   0  0  0  0  0  0  0  0  0  0  0  0
    5.4870   -8.3584    4.1876 N   0  0  2  0  0  0  0  0  0  0  0  0
    4.3820   -7.6237    4.9170 C   0  0  0  0  0  0  0  0  0  0  0  0
    3.3748   -7.1571    3.8511 C   0  0  2  0  0  0  0  0  0  0  0  0
    4.1963   -5.6528    3.8809 C   0  0  0  0  0  0  0  0  0  0  0  0
    4.1413   -4.2424    3.0886 C   0  0  0  0  0  0  0  0  0  0  0  0
    4.6123   -3.9558    1.6485 C   0  0  0  0  0  0  0  0  0  0  0  0
    4.0781   -4.8864    0.5872 N   0  0  1  0  0  0  0  0  0  0  0  0
    4.8143   -4.7286   -0.7260 C   0  0  0  0  0  0  0  0  0  0  0  0
    4.3451   -3.5021   -1.4699 C   0  0  0  0  0  0  0  0  0  0  0  0
    5.0954   -3.0811   -2.7286 C   0  0  0  0  0  0  0  0  0  0  0  0
    5.1842   -2.2364   -1.4962 C   0  0  0  0  0  0  0  0  0  0  0  0
    3.9316   -6.3183    1.0576 C   0  0  1  0  0  0  0  0  0  0  0  0
    5.4025   -6.7034    1.7809 C   0  0  0  0  0  0  0  0  0  0  0  0
    5.9418   -7.9217    2.7196 C   0  0  2  0  0  0  0  0  0  0  0  0
    5.7237   -9.0399    1.8174 C   0  0  0  0  0  0  0  0  0  0  0  0
    6.5710   -9.7172    1.2549 O   0  0  0  0  0  0  0  0  0  0  0  0
    4.2586   -9.1787    1.6503 C   0  0  0  0  0  0  0  0  0  0  0  0
    2.3350   -6.3736    1.4657 C   0  0  2  0  0  0  0  0  0  0  0  0
    1.8476   -5.2816    2.2502 O   0  0  0  0  0  0  0  0  0  0  0  0
    1.4813   -5.4188    3.6442 C   0  0  0  0  0  0  0  0  0  0  0  0
   -0.4941   -3.9835    6.9380 H   0  0  0  0  0  0  0  0  0  0  0  0
    0.0413   -4.1947    5.2533 H   0  0  0  0  0  0  0  0  0  0  0  0
    1.1980   -3.8114    6.5536 H   0  0  0  0  0  0  0  0  0  0  0  0
    0.6686   -6.0167    7.6461 H   0  0  0  0  0  0  0  0  0  0  0  0
   -0.3597   -6.4366    6.3700 H   0  0  0  0  0  0  0  0  0  0  0  0
    2.6773   -6.0268    6.3369 H   0  0  0  0  0  0  0  0  0  0  0  0
    1.8821   -7.5386    6.3820 H   0  0  0  0  0  0  0  0  0  0  0  0
   -0.0594   -7.7413    4.7304 H   0  0  0  0  0  0  0  0  0  0  0  0
   -1.0070   -9.1002    1.6788 H   0  0  0  0  0  0  0  0  0  0  0  0
   -1.6325   -7.4483    1.7729 H   0  0  0  0  0  0  0  0  0  0  0  0
   -1.6627   -8.4807    3.1834 H   0  0  0  0  0  0  0  0  0  0  0  0
    0.8606   -7.7949    0.6649 H   0  0  0  0  0  0  0  0  0  0  0  0
    1.4255   -9.6168    2.5709 H   0  0  0  0  0  0  0  0  0  0  0  0
    2.1688   -9.5028    1.0924 H   0  0  0  0  0  0  0  0  0  0  0  0
    2.8412   -9.8313    4.6328 H   0  0  0  0  0  0  0  0  0  0  0  0
    3.4027  -10.8385    3.3401 H   0  0  0  0  0  0  0  0  0  0  0  0
    5.0352  -10.0589    5.3916 H   0  0  0  0  0  0  0  0  0  0  0  0
    5.6921  -10.5219    3.8958 H   0  0  0  0  0  0  0  0  0  0  0  0
    3.9064   -8.2418    5.6498 H   0  0  0  0  0  0  0  0  0  0  0  0
    4.8507   -6.9369    5.6052 H   0  0  0  0  0  0  0  0  0  0  0  0
    3.9373   -5.2378    4.8664 H   0  0  0  0  0  0  0  0  0  0  0  0
    5.2726   -5.7419    4.0342 H   0  0  0  0  0  0  0  0  0  0  0  0
    3.2481   -3.6423    3.2274 H   0  0  0  0  0  0  0  0  0  0  0  0
    4.8392   -3.6253    3.6687 H   0  0  0  0  0  0  0  0  0  0  0  0
    4.2772   -2.9744    1.3677 H   0  0  0  0  0  0  0  0  0  0  0  0
    5.6858   -3.8933    1.5946 H   0  0  0  0  0  0  0  0  0  0  0  0
    5.8745   -4.6983   -0.5530 H   0  0  0  0  0  0  0  0  0  0  0  0
    4.6270   -5.5663   -1.3635 H   0  0  0  0  0  0  0  0  0  0  0  0
    3.2636   -3.3907   -1.5577 H   0  0  0  0  0  0  0  0  0  0  0  0
    5.9819   -3.6406   -3.0275 H   0  0  0  0  0  0  0  0  0  0  0  0
    4.5161   -2.6668   -3.5592 H   0  0  0  0  0  0  0  0  0  0  0  0
    4.6361   -1.2878   -1.4887 H   0  0  0  0  0  0  0  0  0  0  0  0
    6.1133   -2.2454   -0.9283 H   0  0  0  0  0  0  0  0  0  0  0  0
    3.9074   -6.8915    0.1434 H   0  0  0  0  0  0  0  0  0  0  0  0
    6.0082   -6.8442    0.8831 H   0  0  0  0  0  0  0  0  0  0  0  0
    5.9851   -5.8698    2.1440 H   0  0  0  0  0  0  0  0  0  0  0  0
    7.0030   -7.7859    2.8360 H   0  0  0  0  0  0  0  0  0  0  0  0
    4.1033  -10.2543    1.4917 H   0  0  0  0  0  0  0  0  0  0  0  0
    4.0358   -8.7540    0.6762 H   0  0  0  0  0  0  0  0  0  0  0  0
    1.9166   -5.9990    0.5381 H   0  0  0  0  0  0  0  0  0  0  0  0
    0.4270   -5.2228    3.6836 H   0  0  0  0  0  0  0  0  0  0  0  0
    1.8188   -4.5849    4.2239 H   0  0  0  0  0  0  0  0  0  0  0  0
    3.1299   -4.5802    0.4100 H   0  0  0  0  0  0  0  0  0  0  0  0
    6.3019   -8.2920    4.7575 H   0  0  0  0  0  0  0  0  0  0  0  0
  1  2  1  0
  1 33  1  0
  1 34  1  0
  1 35  1  0
  2  3  1  0
  2 36  1  0
  2 37  1  0
  4  3  1  1
  3 38  1  0
  3 39  1  0
  4 15  1  0
  4 32  1  0
  4  5  1  0
  5  6  2  0
  5 40  1  0
  6  7  1  0
  6  8  1  0
  7 41  1  0
  7 42  1  0
  7 43  1  0
  8 30  1  0
  8  9  1  0
  8 44  1  6
 10  9  1  6
  9 45  1  0
  9 46  1  0
 10 15  1  0
 10 29  1  0
 10 11  1  0
 11 12  1  0
 11 47  1  0
 11 48  1  0
 12 13  1  0
 12 49  1  0
 12 50  1  0
 13 26  1  0
 13 14  1  0
 13 76  1  1
 14 15  1  0
 14 51  1  0
 14 52  1  0
 15 16  1  6
 16 17  1  0
 16 53  1  0
 16 54  1  0
 17 18  1  0
 17 55  1  0
 17 56  1  0
 18 19  1  0
 18 57  1  0
 18 58  1  0
 19 20  1  0
 19 24  1  0
 19 75  1  6
 20 21  1  0
 20 59  1  0
 20 60  1  0
 21 23  1  0
 21 22  1  0
 21 61  1  0
 22 23  1  0
 22 62  1  0
 22 63  1  0
 23 64  1  0
 23 65  1  0
 24 25  1  0
 24 30  1  0
 24 66  1  6
 25 26  1  0
 25 67  1  0
 25 68  1  0
 26 27  1  0
 26 69  1  1
 27 28  2  0
 27 29  1  0
 29 70  1  0
 29 71  1  0
 30 31  1  0
 30 72  1  6
 31 32  1  0
 32 73  1  0
 32 74  1  0
M  CHG  2  13   1  19   1
M  END
>  <i_m_ct_stereo_status>  (342) 
1

>  <s_m_source_file>  (342) 
/var/tmp/pbs.5076255.sched01/tmpfsvwwkaa/138cw1meju8.sdf

>  <i_m_source_file_index>  (342) 
8

>  <i_lp_mmshare_version>  (342) 
48012

>  <i_f3d_flags>  (342) 
0

>  <s_epik_input>  (342) 
W0NIM11bQ0gyXVtDSDJdW0NAQF0xKFtDQF0yM1tDQF00NTYpW0NIXT1DKFtDSDNdKVtDQEhdKFtDSDJdNClbQ0BASF0oT1tDSDJdMSlbQ0BASF0oTihbQ0gyXVtDSDJdW0NIMl0zKVtDSDJdW0NIXTdbQ0gyXVtDSDJdNylbQ0gyXVtDQEhdKEMoPU8pW0NIMl02KU4oW0NIMl0yKVtDSDJdW0NIMl01

>  <s_epik_cmdline>  (342) 
J2VwaWtfcHl0aG9uJywgJy1waHQnLCAnMi4wJywgJy1waCcsICc3LjAnLCAnLXRuJywgJzgnLCAnLW1hJywgJzIwMCcsICctaW1hZScsICc8aW5maWxlLm1hZT4nLCAnLW9tYWUnLCAnPG91dGZpbGUubWFlPic=

>  <r_lp_tautomer_probability>  (342) 
0.99995

>  <r_epik_Ionization_Penalty>  (342) 
0.641432

>  <r_epik_Ionization_Penalty_Charging>  (342) 
0.641432

>  <r_epik_Ionization_Penalty_Neutral>  (342) 
6.14737e-09

>  <r_epik_State_Penalty>  (342) 
0.740135

>  <r_epik_Charging_Adjusted_Penalty>  (342) 
1.38157

>  <i_epik_Tot_Q>  (342) 
2

>  <i_epik_Tot_abs_Q>  (342) 
2

>  <s_lp_Force_Field>  (342) 
OPLS3e

>  <r_lp_Energy>  (342) 
400.542

>  <b_lp_Chiralities_Consistent>  (342) 
1

>  <s_lp_Variant>  (342) 
98:0-2

>  <s_i_glide_gridfile>  (342) 
pfpi4k_grid

>  <i_i_glide_lignum>  (342) 
8

>  <i_i_glide_rotatable_bonds>  (342) 
4

>  <r_i_docking_score>  (342) 
-2.44982

>  <r_i_glide_ligand_efficiency>  (342) 
-0.076557

>  <r_i_glide_ligand_efficiency_sa>  (342) 
-0.243053

>  <r_i_glide_ligand_efficiency_ln>  (342) 
-0.548582

>  <r_i_glide_gscore>  (342) 
-2.44982

>  <r_i_glide_lipo>  (342) 
-0.396056

>  <r_i_glide_hbond>  (342) 
0

>  <r_i_glide_metal>  (342) 
-0

>  <r_i_glide_rewards>  (342) 
-0.414155

>  <r_i_glide_evdw>  (342) 
-24.4494

>  <r_i_glide_ecoul>  (342) 
-4.83763

>  <r_i_glide_erotb>  (342) 
0.308502

>  <r_i_glide_esite>  (342) 
-5.90379e-07

>  <r_i_glide_emodel>  (342) 
-33.9858

>  <r_i_glide_energy>  (342) 
-29.287

>  <r_i_glide_einternal>  (342) 
1.45803

>  <r_i_glide_intrahb_reward>  (342) 
-0

>  <i_i_glide_confnum>  (342) 
3

>  <i_i_glide_posenum>  (342) 
13

>  <r_i_glide_eff_state_penalty>  (342) 
0

>  <ligand_id>  (342) 
98

>  <original_smiles>  (342) 
CCCC12C=C(C)C3CC45CCN6CC14CCCN(CC1CC1)C(CC6C(=O)C5)C3OC2

>  <smiles>  (342) 
[H]C1=C(C([H])([H])[H])C2([H])C([H])([H])C34C([H])([H])C(=O)C5([H])C([H])([H])C6([H])C2([H])OC([H])([H])C1(C([H])([H])C([H])([H])C([H])([H])[H])C3(C([H])([H])C([H])([H])C([H])([H])[N+]6([H])C([H])([H])C1([H])C([H])([H])C1([H])[H])C([H])([H])[N+]5([H])C([H])([H])C4([H])[H]

$$$$
98:1:1
     RDKit          3D

 76 82  0  0  1  0  0  0  0  0999 V2000
   -0.6446   -9.5691    7.1057 C   0  0  0  0  0  0  0  0  0  0  0  0
    0.5819   -8.6964    7.4628 C   0  0  0  0  0  0  0  0  0  0  0  0
    1.8804   -8.9279    6.6183 C   0  0  0  0  0  0  0  0  0  0  0  0
    1.9484   -8.4156    5.1314 C   0  0  2  0  0  0  0  0  0  0  0  0
    0.8074   -9.1191    4.3752 C   0  0  0  0  0  0  0  0  0  0  0  0
    0.3890   -8.6501    3.1711 C   0  0  0  0  0  0  0  0  0  0  0  0
   -0.9304   -9.1130    2.5950 C   0  0  0  0  0  0  0  0  0  0  0  0
    1.4502   -8.1173    2.2127 C   0  0  2  0  0  0  0  0  0  0  0  0
    2.2381   -9.4028    2.0841 C   0  0  0  0  0  0  0  0  0  0  0  0
    3.4872   -9.3983    2.9776 C   0  0  2  0  0  0  0  0  0  0  0  0
    3.8401  -10.8838    3.3653 C   0  0  0  0  0  0  0  0  0  0  0  0
    5.3068  -10.9356    3.9067 C   0  0  0  0  0  0  0  0  0  0  0  0
    5.6575   -9.5254    4.3481 N   0  0  2  0  0  0  0  0  0  0  0  0
    4.5255   -9.2322    5.2922 C   0  0  0  0  0  0  0  0  0  0  0  0
    3.4470   -8.4490    4.4988 C   0  0  2  0  0  0  0  0  0  0  0  0
    4.1570   -7.0359    5.1554 C   0  0  0  0  0  0  0  0  0  0  0  0
    3.9704   -5.4448    4.9985 C   0  0  0  0  0  0  0  0  0  0  0  0
    4.3849   -4.5648    3.7901 C   0  0  0  0  0  0  0  0  0  0  0  0
    3.9097   -5.0151    2.4500 N   0  0  1  0  0  0  0  0  0  0  0  0
    4.5854   -4.2949    1.3209 C   0  0  0  0  0  0  0  0  0  0  0  0
    3.7157   -4.2000    0.0822 C   0  0  0  0  0  0  0  0  0  0  0  0
    4.1767   -3.3713   -1.0950 C   0  0  0  0  0  0  0  0  0  0  0  0
    3.0091   -2.9160   -0.2637 C   0  0  0  0  0  0  0  0  0  0  0  0
    3.8768   -6.5083    2.3138 C   0  0  1  0  0  0  0  0  0  0  0  0
    5.3982   -7.0529    2.8262 C   0  0  0  0  0  0  0  0  0  0  0  0
    6.0488   -8.5046    3.1965 C   0  0  2  0  0  0  0  0  0  0  0  0
    5.8807   -9.1683    1.9115 C   0  0  0  0  0  0  0  0  0  0  0  0
    6.7466   -9.4647    1.1069 O   0  0  0  0  0  0  0  0  0  0  0  0
    4.4400   -9.3229    1.6871 C   0  0  0  0  0  0  0  0  0  0  0  0
    2.2886   -6.8416    2.6703 C   0  0  2  0  0  0  0  0  0  0  0  0
    1.7027   -6.2191    3.8390 O   0  0  0  0  0  0  0  0  0  0  0  0
    1.4288   -6.9453    5.0666 C   0  0  0  0  0  0  0  0  0  0  0  0
   -1.4177   -9.4485    7.8879 H   0  0  0  0  0  0  0  0  0  0  0  0
   -0.3556  -10.6327    7.0669 H   0  0  0  0  0  0  0  0  0  0  0  0
   -1.0687   -9.2792    6.1606 H   0  0  0  0  0  0  0  0  0  0  0  0
    0.2941   -7.6463    7.4555 H   0  0  0  0  0  0  0  0  0  0  0  0
    0.8383   -8.9050    8.4931 H   0  0  0  0  0  0  0  0  0  0  0  0
    2.6839   -8.4845    7.2125 H   0  0  0  0  0  0  0  0  0  0  0  0
    2.0901   -9.9953    6.6438 H   0  0  0  0  0  0  0  0  0  0  0  0
    0.2291   -9.8428    4.8822 H   0  0  0  0  0  0  0  0  0  0  0  0
   -0.8208   -9.7029    1.6792 H   0  0  0  0  0  0  0  0  0  0  0  0
   -1.6071   -8.2852    2.3915 H   0  0  0  0  0  0  0  0  0  0  0  0
   -1.4627   -9.7767    3.2739 H   0  0  0  0  0  0  0  0  0  0  0  0
    0.9368   -7.9131    1.2669 H   0  0  0  0  0  0  0  0  0  0  0  0
    1.6638  -10.3029    2.3027 H   0  0  0  0  0  0  0  0  0  0  0  0
    2.3736   -9.5742    1.0112 H   0  0  0  0  0  0  0  0  0  0  0  0
    3.1425  -11.2546    4.1176 H   0  0  0  0  0  0  0  0  0  0  0  0
    3.7529  -11.5970    2.5471 H   0  0  0  0  0  0  0  0  0  0  0  0
    5.3673  -11.6045    4.7542 H   0  0  0  0  0  0  0  0  0  0  0  0
    6.0272  -11.3586    3.2118 H   0  0  0  0  0  0  0  0  0  0  0  0
    4.1084  -10.1343    5.7141 H   0  0  0  0  0  0  0  0  0  0  0  0
    4.9403   -8.8548    6.2227 H   0  0  0  0  0  0  0  0  0  0  0  0
    3.8940   -7.0751    6.2135 H   0  0  0  0  0  0  0  0  0  0  0  0
    5.2455   -7.0942    5.2650 H   0  0  0  0  0  0  0  0  0  0  0  0
    3.0375   -5.0353    5.3611 H   0  0  0  0  0  0  0  0  0  0  0  0
    4.6219   -5.0497    5.7817 H   0  0  0  0  0  0  0  0  0  0  0  0
    3.9806   -3.5691    3.9342 H   0  0  0  0  0  0  0  0  0  0  0  0
    5.4580   -4.3837    3.7792 H   0  0  0  0  0  0  0  0  0  0  0  0
    4.8410   -3.2897    1.6304 H   0  0  0  0  0  0  0  0  0  0  0  0
    5.5376   -4.7609    1.0638 H   0  0  0  0  0  0  0  0  0  0  0  0
    3.2160   -5.1163   -0.2064 H   0  0  0  0  0  0  0  0  0  0  0  0
    5.1033   -2.8056   -1.0172 H   0  0  0  0  0  0  0  0  0  0  0  0
    3.9433   -3.7307   -2.0961 H   0  0  0  0  0  0  0  0  0  0  0  0
    2.0194   -3.0136   -0.7067 H   0  0  0  0  0  0  0  0  0  0  0  0
    3.1485   -2.0541    0.3900 H   0  0  0  0  0  0  0  0  0  0  0  0
    3.8850   -6.6685    1.2477 H   0  0  0  0  0  0  0  0  0  0  0  0
    5.9980   -6.7735    1.9512 H   0  0  0  0  0  0  0  0  0  0  0  0
    5.9167   -6.3882    3.4902 H   0  0  0  0  0  0  0  0  0  0  0  0
    7.0994   -8.3413    3.3544 H   0  0  0  0  0  0  0  0  0  0  0  0
    4.3725  -10.2419    1.1087 H   0  0  0  0  0  0  0  0  0  0  0  0
    4.1693   -8.5706    0.9600 H   0  0  0  0  0  0  0  0  0  0  0  0
    1.8244   -6.1534    1.9732 H   0  0  0  0  0  0  0  0  0  0  0  0
    0.3449   -6.9037    5.1959 H   0  0  0  0  0  0  0  0  0  0  0  0
    1.7212   -6.4007    5.9651 H   0  0  0  0  0  0  0  0  0  0  0  0
    2.9491   -4.7117    2.4110 H   0  0  0  0  0  0  0  0  0  0  0  0
    6.4744   -9.6310    4.9124 H   0  0  0  0  0  0  0  0  0  0  0  0
  1  2  1  0
  1 33  1  0
  1 34  1  0
  1 35  1  0
  2  3  1  0
  2 36  1  0
  2 37  1  0
  4  3  1  1
  3 38  1  0
  3 39  1  0
  4 15  1  0
  4 32  1  0
  4  5  1  0
  5  6  2  0
  5 40  1  0
  6  7  1  0
  6  8  1  0
  7 41  1  0
  7 42  1  0
  7 43  1  0
  8 30  1  0
  8  9  1  0
  8 44  1  6
 10  9  1  6
  9 45  1  0
  9 46  1  0
 10 15  1  0
 10 29  1  0
 10 11  1  0
 11 12  1  0
 11 47  1  0
 11 48  1  0
 12 13  1  0
 12 49  1  0
 12 50  1  0
 13 26  1  0
 13 14  1  0
 13 76  1  1
 14 15  1  0
 14 51  1  0
 14 52  1  0
 15 16  1  6
 16 17  1  0
 16 53  1  0
 16 54  1  0
 17 18  1  0
 17 55  1  0
 17 56  1  0
 18 19  1  0
 18 57  1  0
 18 58  1  0
 19 20  1  0
 19 24  1  0
 19 75  1  1
 20 21  1  0
 20 59  1  0
 20 60  1  0
 21 23  1  0
 21 22  1  0
 21 61  1  0
 22 23  1  0
 22 62  1  0
 22 63  1  0
 23 64  1  0
 23 65  1  0
 24 25  1  0
 24 30  1  0
 24 66  1  6
 25 26  1  0
 25 67  1  0
 25 68  1  0
 26 27  1  0
 26 69  1  1
 27 28  2  0
 27 29  1  0
 29 70  1  0
 29 71  1  0
 30 31  1  0
 30 72  1  6
 31 32  1  0
 32 73  1  0
 32 74  1  0
M  CHG  2  13   1  19   1
M  END
>  <i_m_ct_stereo_status>  (343) 
1

>  <s_m_source_file>  (343) 
/var/tmp/pbs.5076255.sched01/tmpfsvwwkaa/138cw1meju8.sdf

>  <i_m_source_file_index>  (343) 
8

>  <i_lp_mmshare_version>  (343) 
48012

>  <i_f3d_flags>  (343) 
0

>  <s_epik_input>  (343) 
W0NIM11bQ0gyXVtDSDJdW0NAQF0xKFtDQF0yM1tDQF00NTYpW0NIXT1DKFtDSDNdKVtDQEhdKFtDSDJdNClbQ0BASF0oT1tDSDJdMSlbQ0BASF0oTihbQ0gyXVtDSDJdW0NIMl0zKVtDSDJdW0NIXTdbQ0gyXVtDSDJdNylbQ0gyXVtDQEhdKEMoPU8pW0NIMl02KU4oW0NIMl0yKVtDSDJdW0NIMl01

>  <s_epik_cmdline>  (343) 
J2VwaWtfcHl0aG9uJywgJy1waHQnLCAnMi4wJywgJy1waCcsICc3LjAnLCAnLXRuJywgJzgnLCAnLW1hJywgJzIwMCcsICctaW1hZScsICc8aW5maWxlLm1hZT4nLCAnLW9tYWUnLCAnPG91dGZpbGUubWFlPic=

>  <r_lp_tautomer_probability>  (343) 
0.99995

>  <r_epik_Ionization_Penalty>  (343) 
0.641432

>  <r_epik_Ionization_Penalty_Charging>  (343) 
0.641432

>  <r_epik_Ionization_Penalty_Neutral>  (343) 
6.14737e-09

>  <r_epik_State_Penalty>  (343) 
0.740135

>  <r_epik_Charging_Adjusted_Penalty>  (343) 
1.38157

>  <i_epik_Tot_Q>  (343) 
2

>  <i_epik_Tot_abs_Q>  (343) 
2

>  <s_lp_Force_Field>  (343) 
OPLS3e

>  <r_lp_Energy>  (343) 
400.542

>  <b_lp_Chiralities_Consistent>  (343) 
1

>  <s_lp_Variant>  (343) 
98:0-2

>  <s_i_glide_gridfile>  (343) 
pfpi4k_grid

>  <i_i_glide_lignum>  (343) 
8

>  <i_i_glide_rotatable_bonds>  (343) 
4

>  <r_i_docking_score>  (343) 
-2.22371

>  <r_i_glide_ligand_efficiency>  (343) 
-0.0694908

>  <r_i_glide_ligand_efficiency_sa>  (343) 
-0.22062

>  <r_i_glide_ligand_efficiency_ln>  (343) 
-0.497949

>  <r_i_glide_gscore>  (343) 
-2.22371

>  <r_i_glide_lipo>  (343) 
-0.180344

>  <r_i_glide_hbond>  (343) 
0

>  <r_i_glide_metal>  (343) 
-0

>  <r_i_glide_rewards>  (343) 
-0.423802

>  <r_i_glide_evdw>  (343) 
-21.8062

>  <r_i_glide_ecoul>  (343) 
-5.58443

>  <r_i_glide_erotb>  (343) 
0.308502

>  <r_i_glide_esite>  (343) 
-8.92024e-05

>  <r_i_glide_emodel>  (343) 
-30.6967

>  <r_i_glide_energy>  (343) 
-27.3906

>  <r_i_glide_einternal>  (343) 
2.89777

>  <r_i_glide_intrahb_reward>  (343) 
-0

>  <i_i_glide_confnum>  (343) 
3

>  <i_i_glide_posenum>  (343) 
4

>  <r_i_glide_eff_state_penalty>  (343) 
0

>  <ligand_id>  (343) 
98

>  <original_smiles>  (343) 
CCCC12C=C(C)C3CC45CCN6CC14CCCN(CC1CC1)C(CC6C(=O)C5)C3OC2

>  <smiles>  (343) 
[H]C1=C(C([H])([H])[H])C2([H])C([H])([H])C34C([H])([H])C(=O)C5([H])C([H])([H])C6([H])C2([H])OC([H])([H])C1(C([H])([H])C([H])([H])C([H])([H])[H])C3(C([H])([H])C([H])([H])C([H])([H])[N+]6([H])C([H])([H])C1([H])C([H])([H])C1([H])[H])C([H])([H])[N+]5([H])C([H])([H])C4([H])[H]

$$$$
98:1:2
     RDKit          3D

 76 82  0  0  1  0  0  0  0  0999 V2000
    8.5246   -5.9000    0.5954 C   0  0  0  0  0  0  0  0  0  0  0  0
    7.2497   -6.0811    1.4327 C   0  0  0  0  0  0  0  0  0  0  0  0
    6.9880   -7.5646    1.8061 C   0  0  0  0  0  0  0  0  0  0  0  0
    6.0745   -7.8567    3.0472 C   0  0  2  0  0  0  0  0  0  0  0  0
    6.8003   -7.2899    4.2635 C   0  0  0  0  0  0  0  0  0  0  0  0
    6.2256   -7.1978    5.4750 C   0  0  0  0  0  0  0  0  0  0  0  0
    6.8393   -6.3813    6.6019 C   0  0  0  0  0  0  0  0  0  0  0  0
    5.1576   -8.2136    5.8390 C   0  0  2  0  0  0  0  0  0  0  0  0
    6.0512   -9.4219    5.8840 C   0  0  0  0  0  0  0  0  0  0  0  0
    5.9351  -10.2496    4.5930 C   0  0  2  0  0  0  0  0  0  0  0  0
    7.3018  -10.9968    4.3458 C   0  0  0  0  0  0  0  0  0  0  0  0
    7.0642  -12.1291    3.2913 C   0  0  0  0  0  0  0  0  0  0  0  0
    5.8084  -11.7731    2.5392 N   0  0  2  0  0  0  0  0  0  0  0  0
    6.1356  -10.3976    2.0683 C   0  0  0  0  0  0  0  0  0  0  0  0
    5.5146   -9.3905    3.0731 C   0  0  2  0  0  0  0  0  0  0  0  0
    4.1917   -9.2847    1.9788 C   0  0  0  0  0  0  0  0  0  0  0  0
    2.7404   -8.5870    1.9300 C   0  0  0  0  0  0  0  0  0  0  0  0
    1.4736   -9.0174    2.7300 C   0  0  0  0  0  0  0  0  0  0  0  0
    1.6424   -9.1793    4.1940 N   0  0  1  0  0  0  0  0  0  0  0  0
    0.4863   -9.8549    4.8444 C   0  0  0  0  0  0  0  0  0  0  0  0
    0.0219   -9.1004    6.0762 C   0  0  0  0  0  0  0  0  0  0  0  0
    0.7818   -9.1980    7.3835 C   0  0  0  0  0  0  0  0  0  0  0  0
   -0.5605   -9.8598    7.2461 C   0  0  0  0  0  0  0  0  0  0  0  0
    2.9751   -9.7241    4.5739 C   0  0  1  0  0  0  0  0  0  0  0  0
    3.1854  -11.1068    3.6197 C   0  0  0  0  0  0  0  0  0  0  0  0
    4.4396  -12.0923    3.2560 C   0  0  2  0  0  0  0  0  0  0  0  0
    4.7211  -12.6122    4.5935 C   0  0  0  0  0  0  0  0  0  0  0  0
    4.6120  -13.7602    5.0002 O   0  0  0  0  0  0  0  0  0  0  0  0
    5.2145  -11.4603    5.3918 C   0  0  0  0  0  0  0  0  0  0  0  0
    3.8565   -8.3429    4.9175 C   0  0  2  0  0  0  0  0  0  0  0  0
    3.7823   -7.2407    3.9842 O   0  0  0  0  0  0  0  0  0  0  0  0
    4.8638   -6.8786    3.0891 C   0  0  0  0  0  0  0  0  0  0  0  0
    8.6669   -4.8553    0.3138 H   0  0  0  0  0  0  0  0  0  0  0  0
    8.4922   -6.4960   -0.3164 H   0  0  0  0  0  0  0  0  0  0  0  0
    9.4056   -6.2120    1.1557 H   0  0  0  0  0  0  0  0  0  0  0  0
    7.3350   -5.4422    2.3103 H   0  0  0  0  0  0  0  0  0  0  0  0
    6.3979   -5.6966    0.8693 H   0  0  0  0  0  0  0  0  0  0  0  0
    6.6050   -8.0369    0.9017 H   0  0  0  0  0  0  0  0  0  0  0  0
    7.9533   -8.0435    1.9864 H   0  0  0  0  0  0  0  0  0  0  0  0
    7.6735   -6.6880    4.0580 H   0  0  0  0  0  0  0  0  0  0  0  0
    7.0436   -6.9922    7.4807 H   0  0  0  0  0  0  0  0  0  0  0  0
    6.1735   -5.5728    6.8970 H   0  0  0  0  0  0  0  0  0  0  0  0
    7.7834   -5.9310    6.2923 H   0  0  0  0  0  0  0  0  0  0  0  0
    4.8405   -7.9852    6.8565 H   0  0  0  0  0  0  0  0  0  0  0  0
    7.1122   -9.2019    6.0550 H   0  0  0  0  0  0  0  0  0  0  0  0
    5.8437   -9.9221    6.8362 H   0  0  0  0  0  0  0  0  0  0  0  0
    8.0501  -10.2828    3.9903 H   0  0  0  0  0  0  0  0  0  0  0  0
    7.7423  -11.4277    5.2487 H   0  0  0  0  0  0  0  0  0  0  0  0
    7.9129  -12.1691    2.6056 H   0  0  0  0  0  0  0  0  0  0  0  0
    7.0535  -13.1307    3.7279 H   0  0  0  0  0  0  0  0  0  0  0  0
    7.2044  -10.2083    1.9997 H   0  0  0  0  0  0  0  0  0  0  0  0
    5.9240  -10.3404    0.9971 H   0  0  0  0  0  0  0  0  0  0  0  0
    4.6085   -8.7479    1.1286 H   0  0  0  0  0  0  0  0  0  0  0  0
    3.9595  -10.2263    1.4813 H   0  0  0  0  0  0  0  0  0  0  0  0
    2.7408   -7.5049    1.9055 H   0  0  0  0  0  0  0  0  0  0  0  0
    2.4272   -8.7918    0.9078 H   0  0  0  0  0  0  0  0  0  0  0  0
    0.7194   -8.2394    2.5890 H   0  0  0  0  0  0  0  0  0  0  0  0
    1.0191   -9.9019    2.2803 H   0  0  0  0  0  0  0  0  0  0  0  0
   -0.3671   -9.8920    4.1638 H   0  0  0  0  0  0  0  0  0  0  0  0
    0.7025  -10.8927    5.1117 H   0  0  0  0  0  0  0  0  0  0  0  0
   -0.4754   -8.1513    5.8506 H   0  0  0  0  0  0  0  0  0  0  0  0
    1.6475   -9.8578    7.4261 H   0  0  0  0  0  0  0  0  0  0  0  0
    0.8379   -8.2989    7.9936 H   0  0  0  0  0  0  0  0  0  0  0  0
   -1.3844   -9.4165    7.7906 H   0  0  0  0  0  0  0  0  0  0  0  0
   -0.5816  -10.9486    7.1878 H   0  0  0  0  0  0  0  0  0  0  0  0
    2.8251  -10.1227    5.5730 H   0  0  0  0  0  0  0  0  0  0  0  0
    2.5086  -11.7896    4.1363 H   0  0  0  0  0  0  0  0  0  0  0  0
    2.6228  -11.1208    2.6966 H   0  0  0  0  0  0  0  0  0  0  0  0
    4.0206  -12.9169    2.6744 H   0  0  0  0  0  0  0  0  0  0  0  0
    5.9127  -11.9105    6.1010 H   0  0  0  0  0  0  0  0  0  0  0  0
    4.3935  -11.1595    6.0326 H   0  0  0  0  0  0  0  0  0  0  0  0
    3.1541   -7.9090    5.6336 H   0  0  0  0  0  0  0  0  0  0  0  0
    5.1621   -5.8718    3.3893 H   0  0  0  0  0  0  0  0  0  0  0  0
    4.5316   -6.6692    2.0755 H   0  0  0  0  0  0  0  0  0  0  0  0
    1.6393   -8.2347    4.5573 H   0  0  0  0  0  0  0  0  0  0  0  0
    5.7627  -12.3423    1.7009 H   0  0  0  0  0  0  0  0  0  0  0  0
  1  2  1  0
  1 33  1  0
  1 34  1  0
  1 35  1  0
  2  3  1  0
  2 36  1  0
  2 37  1  0
  4  3  1  6
  3 38  1  0
  3 39  1  0
  4 15  1  0
  4 32  1  0
  4  5  1  0
  5  6  2  0
  5 40  1  0
  6  7  1  0
  6  8  1  0
  7 41  1  0
  7 42  1  0
  7 43  1  0
  8 30  1  0
  8  9  1  0
  8 44  1  1
 10  9  1  1
  9 45  1  0
  9 46  1  0
 10 15  1  0
 10 29  1  0
 10 11  1  0
 11 12  1  0
 11 47  1  0
 11 48  1  0
 12 13  1  0
 12 49  1  0
 12 50  1  0
 13 26  1  0
 13 14  1  0
 13 76  1  6
 14 15  1  0
 14 51  1  0
 14 52  1  0
 15 16  1  6
 16 17  1  0
 16 53  1  0
 16 54  1  0
 17 18  1  0
 17 55  1  0
 17 56  1  0
 18 19  1  0
 18 57  1  0
 18 58  1  0
 19 20  1  0
 19 24  1  0
 19 75  1  1
 20 21  1  0
 20 59  1  0
 20 60  1  0
 21 23  1  0
 21 22  1  0
 21 61  1  0
 22 23  1  0
 22 62  1  0
 22 63  1  0
 23 64  1  0
 23 65  1  0
 24 25  1  0
 24 30  1  0
 24 66  1  1
 25 26  1  0
 25 67  1  0
 25 68  1  0
 26 27  1  0
 26 69  1  6
 27 28  2  0
 27 29  1  0
 29 70  1  0
 29 71  1  0
 30 31  1  0
 30 72  1  1
 31 32  1  0
 32 73  1  0
 32 74  1  0
M  CHG  2  13   1  19   1
M  END
>  <i_m_ct_stereo_status>  (344) 
1

>  <s_m_source_file>  (344) 
/var/tmp/pbs.5076255.sched01/tmpfsvwwkaa/138cw1meju8.sdf

>  <i_m_source_file_index>  (344) 
8

>  <i_lp_mmshare_version>  (344) 
48012

>  <i_f3d_flags>  (344) 
0

>  <s_epik_input>  (344) 
W0NIM11bQ0gyXVtDSDJdW0NAQF0xKFtDQF0yM1tDQF00NTYpW0NIXT1DKFtDSDNdKVtDQEhdKFtDSDJdNClbQ0BASF0oT1tDSDJdMSlbQ0BASF0oTihbQ0gyXVtDSDJdW0NIMl0zKVtDSDJdW0NIXTdbQ0gyXVtDSDJdNylbQ0gyXVtDQEhdKEMoPU8pW0NIMl02KU4oW0NIMl0yKVtDSDJdW0NIMl01

>  <s_epik_cmdline>  (344) 
J2VwaWtfcHl0aG9uJywgJy1waHQnLCAnMi4wJywgJy1waCcsICc3LjAnLCAnLXRuJywgJzgnLCAnLW1hJywgJzIwMCcsICctaW1hZScsICc8aW5maWxlLm1hZT4nLCAnLW9tYWUnLCAnPG91dGZpbGUubWFlPic=

>  <r_lp_tautomer_probability>  (344) 
0.99995

>  <r_epik_Ionization_Penalty>  (344) 
0.641432

>  <r_epik_Ionization_Penalty_Charging>  (344) 
0.641432

>  <r_epik_Ionization_Penalty_Neutral>  (344) 
6.14737e-09

>  <r_epik_State_Penalty>  (344) 
0.740135

>  <r_epik_Charging_Adjusted_Penalty>  (344) 
1.38157

>  <i_epik_Tot_Q>  (344) 
2

>  <i_epik_Tot_abs_Q>  (344) 
2

>  <s_lp_Force_Field>  (344) 
OPLS3e

>  <r_lp_Energy>  (344) 
400.542

>  <b_lp_Chiralities_Consistent>  (344) 
1

>  <s_lp_Variant>  (344) 
98:0-2

>  <s_i_glide_gridfile>  (344) 
pfpi4k_grid

>  <i_i_glide_lignum>  (344) 
8

>  <i_i_glide_rotatable_bonds>  (344) 
4

>  <r_i_docking_score>  (344) 
-2.20263

>  <r_i_glide_ligand_efficiency>  (344) 
-0.0688321

>  <r_i_glide_ligand_efficiency_sa>  (344) 
-0.218528

>  <r_i_glide_ligand_efficiency_ln>  (344) 
-0.493229

>  <r_i_glide_gscore>  (344) 
-2.20263

>  <r_i_glide_lipo>  (344) 
-0.166481

>  <r_i_glide_hbond>  (344) 
-0.0575229

>  <r_i_glide_metal>  (344) 
-0

>  <r_i_glide_rewards>  (344) 
-0.404583

>  <r_i_glide_evdw>  (344) 
-21.5801

>  <r_i_glide_ecoul>  (344) 
-4.55752

>  <r_i_glide_erotb>  (344) 
0.308502

>  <r_i_glide_esite>  (344) 
-0.119911

>  <r_i_glide_emodel>  (344) 
-29.7813

>  <r_i_glide_energy>  (344) 
-26.1376

>  <r_i_glide_einternal>  (344) 
3.57121

>  <r_i_glide_intrahb_reward>  (344) 
-0

>  <i_i_glide_confnum>  (344) 
3

>  <i_i_glide_posenum>  (344) 
36

>  <r_i_glide_eff_state_penalty>  (344) 
0

>  <ligand_id>  (344) 
98

>  <original_smiles>  (344) 
CCCC12C=C(C)C3CC45CCN6CC14CCCN(CC1CC1)C(CC6C(=O)C5)C3OC2

>  <smiles>  (344) 
[H]C1=C(C([H])([H])[H])C2([H])C([H])([H])C34C([H])([H])C(=O)C5([H])C([H])([H])C6([H])C2([H])OC([H])([H])C1(C([H])([H])C([H])([H])C([H])([H])[H])C3(C([H])([H])C([H])([H])C([H])([H])[N+]6([H])C([H])([H])C1([H])C([H])([H])C1([H])[H])C([H])([H])[N+]5([H])C([H])([H])C4([H])[H]

$$$$
98:2:0
     RDKit          3D

 75 81  0  0  1  0  0  0  0  0999 V2000
    0.4028   -8.8267    8.8500 C   0  0  0  0  0  0  0  0  0  0  0  0
    0.2122   -8.4730    7.3715 C   0  0  0  0  0  0  0  0  0  0  0  0
    1.4821   -8.7372    6.5233 C   0  0  0  0  0  0  0  0  0  0  0  0
    1.4865   -8.2831    5.0207 C   0  0  2  0  0  0  0  0  0  0  0  0
    0.2922   -8.9512    4.3487 C   0  0  0  0  0  0  0  0  0  0  0  0
   -0.1013   -8.6724    3.0886 C   0  0  0  0  0  0  0  0  0  0  0  0
   -1.4411   -9.1265    2.5387 C   0  0  0  0  0  0  0  0  0  0  0  0
    0.9459   -8.1881    2.1090 C   0  0  2  0  0  0  0  0  0  0  0  0
    1.7442   -9.4622    2.0266 C   0  0  0  0  0  0  0  0  0  0  0  0
    3.0174   -9.3796    2.8719 C   0  0  2  0  0  0  0  0  0  0  0  0
    3.4390  -10.8395    3.2941 C   0  0  0  0  0  0  0  0  0  0  0  0
    4.9078  -10.7920    3.8029 C   0  0  0  0  0  0  0  0  0  0  0  0
    5.2032   -9.3844    4.1808 N   0  0  2  0  0  0  0  0  0  0  0  0
    4.0953   -9.1079    5.1239 C   0  0  0  0  0  0  0  0  0  0  0  0
    2.9750   -8.3729    4.3489 C   0  0  2  0  0  0  0  0  0  0  0  0
    3.6697   -6.9212    4.9235 C   0  0  0  0  0  0  0  0  0  0  0  0
    3.5422   -5.3289    4.7120 C   0  0  0  0  0  0  0  0  0  0  0  0
    3.1998   -4.5104    3.4262 C   0  0  0  0  0  0  0  0  0  0  0  0
    3.5207   -5.0431    2.1171 N   0  0  0  0  0  0  0  0  0  0  0  0
    2.9545   -4.2687    1.0179 C   0  0  0  0  0  0  0  0  0  0  0  0
    3.8400   -4.1934   -0.2036 C   0  0  0  0  0  0  0  0  0  0  0  0
    4.6397   -2.9371   -0.4746 C   0  0  0  0  0  0  0  0  0  0  0  0
    3.4610   -3.2784   -1.3470 C   0  0  0  0  0  0  0  0  0  0  0  0
    3.3556   -6.4809    2.0430 C   0  0  1  0  0  0  0  0  0  0  0  0
    4.8659   -6.9779    2.5741 C   0  0  0  0  0  0  0  0  0  0  0  0
    5.5483   -8.4044    3.0225 C   0  0  2  0  0  0  0  0  0  0  0  0
    5.4019   -9.1089    1.7420 C   0  0  0  0  0  0  0  0  0  0  0  0
    6.2679   -9.4596    0.9444 O   0  0  0  0  0  0  0  0  0  0  0  0
    3.9421   -9.3002    1.5463 C   0  0  0  0  0  0  0  0  0  0  0  0
    1.7705   -6.8711    2.4684 C   0  0  2  0  0  0  0  0  0  0  0  0
    1.1232   -6.2215    3.5897 O   0  0  0  0  0  0  0  0  0  0  0  0
    0.9653   -6.8234    4.8897 C   0  0  0  0  0  0  0  0  0  0  0  0
   -0.5089   -8.6361    9.4163 H   0  0  0  0  0  0  0  0  0  0  0  0
    1.2035   -8.2359    9.2949 H   0  0  0  0  0  0  0  0  0  0  0  0
    0.6522   -9.8820    8.9695 H   0  0  0  0  0  0  0  0  0  0  0  0
   -0.6239   -9.0699    7.0098 H   0  0  0  0  0  0  0  0  0  0  0  0
   -0.0881   -7.4282    7.3101 H   0  0  0  0  0  0  0  0  0  0  0  0
    2.3061   -8.2795    7.0646 H   0  0  0  0  0  0  0  0  0  0  0  0
    1.6664   -9.8128    6.5667 H   0  0  0  0  0  0  0  0  0  0  0  0
   -0.4148   -9.4662    4.9751 H   0  0  0  0  0  0  0  0  0  0  0  0
   -1.3160   -9.7727    1.6759 H   0  0  0  0  0  0  0  0  0  0  0  0
   -2.0686   -8.2813    2.2618 H   0  0  0  0  0  0  0  0  0  0  0  0
   -1.9823   -9.7100    3.2824 H   0  0  0  0  0  0  0  0  0  0  0  0
    0.4393   -8.0260    1.1593 H   0  0  0  0  0  0  0  0  0  0  0  0
    1.1899  -10.3631    2.3252 H   0  0  0  0  0  0  0  0  0  0  0  0
    1.8663   -9.6968    0.9629 H   0  0  0  0  0  0  0  0  0  0  0  0
    2.7499  -11.2038    4.0644 H   0  0  0  0  0  0  0  0  0  0  0  0
    3.3436  -11.5774    2.4903 H   0  0  0  0  0  0  0  0  0  0  0  0
    4.9938  -11.4519    4.6686 H   0  0  0  0  0  0  0  0  0  0  0  0
    5.6134  -11.2362    3.0989 H   0  0  0  0  0  0  0  0  0  0  0  0
    3.6666   -9.9941    5.5907 H   0  0  0  0  0  0  0  0  0  0  0  0
    4.4870   -8.6849    6.0545 H   0  0  0  0  0  0  0  0  0  0  0  0
    3.4468   -6.9109    5.9859 H   0  0  0  0  0  0  0  0  0  0  0  0
    4.7562   -6.9739    5.0094 H   0  0  0  0  0  0  0  0  0  0  0  0
    2.9320   -4.9006    5.5057 H   0  0  0  0  0  0  0  0  0  0  0  0
    4.5268   -4.9506    5.0003 H   0  0  0  0  0  0  0  0  0  0  0  0
    2.1539   -4.2160    3.4496 H   0  0  0  0  0  0  0  0  0  0  0  0
    3.7179   -3.5561    3.5220 H   0  0  0  0  0  0  0  0  0  0  0  0
    1.9966   -4.6536    0.6906 H   0  0  0  0  0  0  0  0  0  0  0  0
    2.7626   -3.2480    1.3448 H   0  0  0  0  0  0  0  0  0  0  0  0
    4.2928   -5.1370   -0.5026 H   0  0  0  0  0  0  0  0  0  0  0  0
    4.5302   -2.1176    0.2326 H   0  0  0  0  0  0  0  0  0  0  0  0
    5.6354   -3.0615   -0.8959 H   0  0  0  0  0  0  0  0  0  0  0  0
    3.6688   -3.6274   -2.3571 H   0  0  0  0  0  0  0  0  0  0  0  0
    2.5567   -2.6845   -1.2361 H   0  0  0  0  0  0  0  0  0  0  0  0
    3.3718   -6.7208    0.9807 H   0  0  0  0  0  0  0  0  0  0  0  0
    5.4502   -6.7025    1.6870 H   0  0  0  0  0  0  0  0  0  0  0  0
    5.3304   -6.2172    3.2011 H   0  0  0  0  0  0  0  0  0  0  0  0
    6.6165   -8.1889    3.1266 H   0  0  0  0  0  0  0  0  0  0  0  0
    3.8817  -10.2484    1.0060 H   0  0  0  0  0  0  0  0  0  0  0  0
    3.6137   -8.5876    0.7967 H   0  0  0  0  0  0  0  0  0  0  0  0
    1.2633   -6.2470    1.7345 H   0  0  0  0  0  0  0  0  0  0  0  0
   -0.1061   -6.7619    5.0954 H   0  0  0  0  0  0  0  0  0  0  0  0
    1.3399   -6.1896    5.6858 H   0  0  0  0  0  0  0  0  0  0  0  0
    6.0233   -9.4345    4.7367 H   0  0  0  0  0  0  0  0  0  0  0  0
  1  2  1  0
  1 33  1  0
  1 34  1  0
  1 35  1  0
  2  3  1  0
  2 36  1  0
  2 37  1  0
  4  3  1  1
  3 38  1  0
  3 39  1  0
  4 15  1  0
  4 32  1  0
  4  5  1  0
  5  6  2  0
  5 40  1  0
  6  7  1  0
  6  8  1  0
  7 41  1  0
  7 42  1  0
  7 43  1  0
  8 30  1  0
  8  9  1  0
  8 44  1  6
 10  9  1  6
  9 45  1  0
  9 46  1  0
 10 15  1  0
 10 29  1  0
 10 11  1  0
 11 12  1  0
 11 47  1  0
 11 48  1  0
 12 13  1  0
 12 49  1  0
 12 50  1  0
 13 26  1  0
 13 14  1  0
 13 75  1  1
 14 15  1  0
 14 51  1  0
 14 52  1  0
 15 16  1  6
 16 17  1  0
 16 53  1  0
 16 54  1  0
 17 18  1  0
 17 55  1  0
 17 56  1  0
 18 19  1  0
 18 57  1  0
 18 58  1  0
 19 20  1  0
 19 24  1  0
 20 21  1  0
 20 59  1  0
 20 60  1  0
 21 23  1  0
 21 22  1  0
 21 61  1  0
 22 23  1  0
 22 62  1  0
 22 63  1  0
 23 64  1  0
 23 65  1  0
 24 25  1  0
 24 30  1  0
 24 66  1  6
 25 26  1  0
 25 67  1  0
 25 68  1  0
 26 27  1  0
 26 69  1  1
 27 28  2  0
 27 29  1  0
 29 70  1  0
 29 71  1  0
 30 31  1  0
 30 72  1  6
 31 32  1  0
 32 73  1  0
 32 74  1  0
M  CHG  1  13   1
M  END
>  <i_m_ct_stereo_status>  (345) 
1

>  <s_m_source_file>  (345) 
/var/tmp/pbs.5076255.sched01/tmpfsvwwkaa/138cw1meju8.sdf

>  <i_m_source_file_index>  (345) 
9

>  <i_lp_mmshare_version>  (345) 
48012

>  <i_f3d_flags>  (345) 
0

>  <s_epik_input>  (345) 
W0NIM11bQ0gyXVtDSDJdW0NAQF0xKFtDQF0yM1tDQF00NTYpW0NIXT1DKFtDSDNdKVtDQEhdKFtDSDJdNClbQ0BASF0oT1tDSDJdMSlbQ0BASF0oTihbQ0gyXVtDSDJdW0NIMl0zKVtDSDJdW0NIXTdbQ0gyXVtDSDJdNylbQ0gyXVtDQEhdKEMoPU8pW0NIMl02KU4oW0NIMl0yKVtDSDJdW0NIMl01

>  <s_epik_cmdline>  (345) 
J2VwaWtfcHl0aG9uJywgJy1waHQnLCAnMi4wJywgJy1waCcsICc3LjAnLCAnLXRuJywgJzgnLCAnLW1hJywgJzIwMCcsICctaW1hZScsICc8aW5maWxlLm1hZT4nLCAnLW9tYWUnLCAnPG91dGZpbGUubWFlPic=

>  <r_epik_Ionization_Penalty>  (345) 
1.75614

>  <r_epik_Ionization_Penalty_Charging>  (345) 
0.154556

>  <r_epik_Ionization_Penalty_Neutral>  (345) 
1.60158

>  <r_epik_State_Penalty>  (345) 
2.5767

>  <r_epik_Charging_Adjusted_Penalty>  (345) 
2.73125

>  <i_epik_Tot_Q>  (345) 
1

>  <i_epik_Tot_abs_Q>  (345) 
1

>  <s_lp_Force_Field>  (345) 
OPLS3e

>  <r_lp_Energy>  (345) 
403.107

>  <b_lp_Chiralities_Consistent>  (345) 
1

>  <s_lp_Variant>  (345) 
98:0-3

>  <s_i_glide_gridfile>  (345) 
pfpi4k_grid

>  <i_i_glide_lignum>  (345) 
9

>  <i_i_glide_rotatable_bonds>  (345) 
4

>  <r_i_docking_score>  (345) 
-2.33328

>  <r_i_glide_ligand_efficiency>  (345) 
-0.0729151

>  <r_i_glide_ligand_efficiency_sa>  (345) 
-0.231491

>  <r_i_glide_ligand_efficiency_ln>  (345) 
-0.522486

>  <r_i_glide_gscore>  (345) 
-2.33328

>  <r_i_glide_lipo>  (345) 
-0.318957

>  <r_i_glide_hbond>  (345) 
0

>  <r_i_glide_metal>  (345) 
-0

>  <r_i_glide_rewards>  (345) 
-0.411455

>  <r_i_glide_evdw>  (345) 
-25.3161

>  <r_i_glide_ecoul>  (345) 
-4.20577

>  <r_i_glide_erotb>  (345) 
0.309786

>  <r_i_glide_esite>  (345) 
-0.0159862

>  <r_i_glide_emodel>  (345) 
-32.4007

>  <r_i_glide_energy>  (345) 
-29.5219

>  <r_i_glide_einternal>  (345) 
3.56566

>  <r_i_glide_intrahb_reward>  (345) 
-0

>  <i_i_glide_confnum>  (345) 
3

>  <i_i_glide_posenum>  (345) 
21

>  <r_i_glide_eff_state_penalty>  (345) 
0

>  <ligand_id>  (345) 
98

>  <original_smiles>  (345) 
CCCC12C=C(C)C3CC45CCN6CC14CCCN(CC1CC1)C(CC6C(=O)C5)C3OC2

>  <smiles>  (345) 
[H]C1=C(C([H])([H])[H])C2([H])C([H])([H])C34C([H])([H])C(=O)C5([H])C([H])([H])C6([H])N(C([H])([H])C7([H])C([H])([H])C7([H])[H])C([H])([H])C([H])([H])C([H])([H])C3(C1(C([H])([H])C([H])([H])C([H])([H])[H])C([H])([H])OC26[H])C([H])([H])[N+]5([H])C([H])([H])C4([H])[H]

$$$$
98:2:1
     RDKit          3D

 75 81  0  0  1  0  0  0  0  0999 V2000
    9.1320   -3.2712    0.1698 C   0  0  0  0  0  0  0  0  0  0  0  0
    7.8306   -4.0690    0.0680 C   0  0  0  0  0  0  0  0  0  0  0  0
    6.8530   -3.7452    1.2236 C   0  0  0  0  0  0  0  0  0  0  0  0
    5.3327   -4.0621    1.0419 C   0  0  2  0  0  0  0  0  0  0  0  0
    4.8857   -3.3060   -0.2055 C   0  0  0  0  0  0  0  0  0  0  0  0
    3.6715   -3.4598   -0.7665 C   0  0  0  0  0  0  0  0  0  0  0  0
    3.3347   -2.9316   -2.1494 C   0  0  0  0  0  0  0  0  0  0  0  0
    2.5288   -3.8604    0.1336 C   0  0  2  0  0  0  0  0  0  0  0  0
    2.4731   -2.5913    0.9449 C   0  0  0  0  0  0  0  0  0  0  0  0
    3.1257   -2.7709    2.3169 C   0  0  2  0  0  0  0  0  0  0  0  0
    3.6262   -1.3636    2.8228 C   0  0  0  0  0  0  0  0  0  0  0  0
    3.9385   -1.4780    4.3446 C   0  0  0  0  0  0  0  0  0  0  0  0
    4.1351   -2.9226    4.6515 N   0  0  2  0  0  0  0  0  0  0  0  0
    5.1777   -3.2831    3.6657 C   0  0  0  0  0  0  0  0  0  0  0  0
    4.4888   -3.9236    2.4376 C   0  0  2  0  0  0  0  0  0  0  0  0
    4.8278   -5.4328    3.1656 C   0  0  0  0  0  0  0  0  0  0  0  0
    4.4808   -6.9942    2.9756 C   0  0  0  0  0  0  0  0  0  0  0  0
    3.1744   -7.6762    2.4550 C   0  0  0  0  0  0  0  0  0  0  0  0
    1.8929   -7.0134    2.6143 N   0  0  0  0  0  0  0  0  0  0  0  0
    0.8099   -7.6743    1.8930 C   0  0  0  0  0  0  0  0  0  0  0  0
   -0.4983   -7.6802    2.6458 C   0  0  0  0  0  0  0  0  0  0  0  0
   -0.9019   -8.9065    3.4356 C   0  0  0  0  0  0  0  0  0  0  0  0
   -1.6253   -8.5601    2.1633 C   0  0  0  0  0  0  0  0  0  0  0  0
    1.9841   -5.5745    2.4771 C   0  0  1  0  0  0  0  0  0  0  0  0
    2.3619   -5.1548    4.0554 C   0  0  0  0  0  0  0  0  0  0  0  0
    2.8500   -3.7894    4.8249 C   0  0  2  0  0  0  0  0  0  0  0  0
    1.6741   -2.9616    4.5315 C   0  0  0  0  0  0  0  0  0  0  0  0
    0.7936   -2.5688    5.2905 O   0  0  0  0  0  0  0  0  0  0  0  0
    1.6925   -2.7184    3.0663 C   0  0  0  0  0  0  0  0  0  0  0  0
    2.6454   -5.2175    0.9664 C   0  0  2  0  0  0  0  0  0  0  0  0
    3.7805   -5.9717    0.4790 O   0  0  0  0  0  0  0  0  0  0  0  0
    5.1383   -5.4944    0.4746 C   0  0  0  0  0  0  0  0  0  0  0  0
    9.7656   -3.5182   -0.6781 H   0  0  0  0  0  0  0  0  0  0  0  0
    9.6736   -3.4798    1.0921 H   0  0  0  0  0  0  0  0  0  0  0  0
    8.9517   -2.1964    0.1197 H   0  0  0  0  0  0  0  0  0  0  0  0
    7.4220   -3.8553   -0.9158 H   0  0  0  0  0  0  0  0  0  0  0  0
    8.0535   -5.1382    0.0768 H   0  0  0  0  0  0  0  0  0  0  0  0
    7.2609   -4.2761    2.0765 H   0  0  0  0  0  0  0  0  0  0  0  0
    6.9488   -2.6841    1.4527 H   0  0  0  0  0  0  0  0  0  0  0  0
    5.6380   -2.8275   -0.8057 H   0  0  0  0  0  0  0  0  0  0  0  0
    2.5006   -2.2306   -2.1181 H   0  0  0  0  0  0  0  0  0  0  0  0
    3.0711   -3.7461   -2.8233 H   0  0  0  0  0  0  0  0  0  0  0  0
    4.1864   -2.4091   -2.5844 H   0  0  0  0  0  0  0  0  0  0  0  0
    1.6599   -3.9178   -0.5203 H   0  0  0  0  0  0  0  0  0  0  0  0
    2.9231   -1.7149    0.4571 H   0  0  0  0  0  0  0  0  0  0  0  0
    1.4354   -2.2470    0.9341 H   0  0  0  0  0  0  0  0  0  0  0  0
    4.5085   -1.0694    2.2448 H   0  0  0  0  0  0  0  0  0  0  0  0
    2.9082   -0.5547    2.6430 H   0  0  0  0  0  0  0  0  0  0  0  0
    4.8486   -0.9118    4.5552 H   0  0  0  0  0  0  0  0  0  0  0  0
    3.1981   -0.9778    4.9714 H   0  0  0  0  0  0  0  0  0  0  0  0
    5.7804   -2.4444    3.3215 H   0  0  0  0  0  0  0  0  0  0  0  0
    5.9820   -3.8066    4.1868 H   0  0  0  0  0  0  0  0  0  0  0  0
    5.9052   -5.5418    3.0759 H   0  0  0  0  0  0  0  0  0  0  0  0
    4.7754   -5.4066    4.2551 H   0  0  0  0  0  0  0  0  0  0  0  0
    5.2993   -7.4913    2.4574 H   0  0  0  0  0  0  0  0  0  0  0  0
    4.6034   -7.4117    3.9788 H   0  0  0  0  0  0  0  0  0  0  0  0
    3.3047   -7.9649    1.4142 H   0  0  0  0  0  0  0  0  0  0  0  0
    3.1064   -8.6402    2.9606 H   0  0  0  0  0  0  0  0  0  0  0  0
    0.6252   -7.2352    0.9184 H   0  0  0  0  0  0  0  0  0  0  0  0
    1.0741   -8.7129    1.6965 H   0  0  0  0  0  0  0  0  0  0  0  0
   -0.7949   -6.7207    3.0629 H   0  0  0  0  0  0  0  0  0  0  0  0
   -0.2255   -9.7595    3.4216 H   0  0  0  0  0  0  0  0  0  0  0  0
   -1.4312   -8.7502    4.3742 H   0  0  0  0  0  0  0  0  0  0  0  0
   -2.6322   -8.1728    2.2572 H   0  0  0  0  0  0  0  0  0  0  0  0
   -1.4407   -9.1751    1.2877 H   0  0  0  0  0  0  0  0  0  0  0  0
    0.9574   -5.2328    2.3731 H   0  0  0  0  0  0  0  0  0  0  0  0
    1.3863   -5.3501    4.5171 H   0  0  0  0  0  0  0  0  0  0  0  0
    2.8474   -5.9788    4.5774 H   0  0  0  0  0  0  0  0  0  0  0  0
    2.8011   -4.0235    5.8917 H   0  0  0  0  0  0  0  0  0  0  0  0
    1.2416   -1.7249    2.9556 H   0  0  0  0  0  0  0  0  0  0  0  0
    0.9405   -3.3625    2.6337 H   0  0  0  0  0  0  0  0  0  0  0  0
    1.9322   -5.7647    0.3508 H   0  0  0  0  0  0  0  0  0  0  0  0
    5.4642   -5.5599   -0.5653 H   0  0  0  0  0  0  0  0  0  0  0  0
    5.8196   -6.2059    0.9288 H   0  0  0  0  0  0  0  0  0  0  0  0
    4.5868   -2.9424    5.5392 H   0  0  0  0  0  0  0  0  0  0  0  0
  1  2  1  0
  1 33  1  0
  1 34  1  0
  1 35  1  0
  2  3  1  0
  2 36  1  0
  2 37  1  0
  4  3  1  1
  3 38  1  0
  3 39  1  0
  4 15  1  0
  4 32  1  0
  4  5  1  0
  5  6  2  0
  5 40  1  0
  6  7  1  0
  6  8  1  0
  7 41  1  0
  7 42  1  0
  7 43  1  0
  8 30  1  0
  8  9  1  0
  8 44  1  6
 10  9  1  6
  9 45  1  0
  9 46  1  0
 10 15  1  0
 10 29  1  0
 10 11  1  0
 11 12  1  0
 11 47  1  0
 11 48  1  0
 12 13  1  0
 12 49  1  0
 12 50  1  0
 13 26  1  0
 13 14  1  0
 13 75  1  1
 14 15  1  0
 14 51  1  0
 14 52  1  0
 15 16  1  1
 16 17  1  0
 16 53  1  0
 16 54  1  0
 17 18  1  0
 17 55  1  0
 17 56  1  0
 18 19  1  0
 18 57  1  0
 18 58  1  0
 19 20  1  0
 19 24  1  0
 20 21  1  0
 20 59  1  0
 20 60  1  0
 21 23  1  0
 21 22  1  0
 21 61  1  0
 22 23  1  0
 22 62  1  0
 22 63  1  0
 23 64  1  0
 23 65  1  0
 24 25  1  0
 24 30  1  0
 24 66  1  6
 25 26  1  0
 25 67  1  0
 25 68  1  0
 26 27  1  0
 26 69  1  1
 27 28  2  0
 27 29  1  0
 29 70  1  0
 29 71  1  0
 30 31  1  0
 30 72  1  6
 31 32  1  0
 32 73  1  0
 32 74  1  0
M  CHG  1  13   1
M  END
>  <i_m_ct_stereo_status>  (346) 
1

>  <s_m_source_file>  (346) 
/var/tmp/pbs.5076255.sched01/tmpfsvwwkaa/138cw1meju8.sdf

>  <i_m_source_file_index>  (346) 
9

>  <i_lp_mmshare_version>  (346) 
48012

>  <i_f3d_flags>  (346) 
0

>  <s_epik_input>  (346) 
W0NIM11bQ0gyXVtDSDJdW0NAQF0xKFtDQF0yM1tDQF00NTYpW0NIXT1DKFtDSDNdKVtDQEhdKFtDSDJdNClbQ0BASF0oT1tDSDJdMSlbQ0BASF0oTihbQ0gyXVtDSDJdW0NIMl0zKVtDSDJdW0NIXTdbQ0gyXVtDSDJdNylbQ0gyXVtDQEhdKEMoPU8pW0NIMl02KU4oW0NIMl0yKVtDSDJdW0NIMl01

>  <s_epik_cmdline>  (346) 
J2VwaWtfcHl0aG9uJywgJy1waHQnLCAnMi4wJywgJy1waCcsICc3LjAnLCAnLXRuJywgJzgnLCAnLW1hJywgJzIwMCcsICctaW1hZScsICc8aW5maWxlLm1hZT4nLCAnLW9tYWUnLCAnPG91dGZpbGUubWFlPic=

>  <r_epik_Ionization_Penalty>  (346) 
1.75614

>  <r_epik_Ionization_Penalty_Charging>  (346) 
0.154556

>  <r_epik_Ionization_Penalty_Neutral>  (346) 
1.60158

>  <r_epik_State_Penalty>  (346) 
2.5767

>  <r_epik_Charging_Adjusted_Penalty>  (346) 
2.73125

>  <i_epik_Tot_Q>  (346) 
1

>  <i_epik_Tot_abs_Q>  (346) 
1

>  <s_lp_Force_Field>  (346) 
OPLS3e

>  <r_lp_Energy>  (346) 
403.107

>  <b_lp_Chiralities_Consistent>  (346) 
1

>  <s_lp_Variant>  (346) 
98:0-3

>  <s_i_glide_gridfile>  (346) 
pfpi4k_grid

>  <i_i_glide_lignum>  (346) 
9

>  <i_i_glide_rotatable_bonds>  (346) 
4

>  <r_i_docking_score>  (346) 
-2.31701

>  <r_i_glide_ligand_efficiency>  (346) 
-0.0724067

>  <r_i_glide_ligand_efficiency_sa>  (346) 
-0.229877

>  <r_i_glide_ligand_efficiency_ln>  (346) 
-0.518843

>  <r_i_glide_gscore>  (346) 
-2.31701

>  <r_i_glide_lipo>  (346) 
-0.698064

>  <r_i_glide_hbond>  (346) 
0

>  <r_i_glide_metal>  (346) 
-0

>  <r_i_glide_rewards>  (346) 
-0.419294

>  <r_i_glide_evdw>  (346) 
-24.987

>  <r_i_glide_ecoul>  (346) 
-1.73395

>  <r_i_glide_erotb>  (346) 
0.309786

>  <r_i_glide_esite>  (346) 
0

>  <r_i_glide_emodel>  (346) 
-28.8978

>  <r_i_glide_energy>  (346) 
-26.7209

>  <r_i_glide_einternal>  (346) 
4.47241

>  <r_i_glide_intrahb_reward>  (346) 
-0

>  <i_i_glide_confnum>  (346) 
3

>  <i_i_glide_posenum>  (346) 
2

>  <r_i_glide_eff_state_penalty>  (346) 
0

>  <ligand_id>  (346) 
98

>  <original_smiles>  (346) 
CCCC12C=C(C)C3CC45CCN6CC14CCCN(CC1CC1)C(CC6C(=O)C5)C3OC2

>  <smiles>  (346) 
[H]C1=C(C([H])([H])[H])C2([H])C([H])([H])C34C([H])([H])C(=O)C5([H])C([H])([H])C6([H])N(C([H])([H])C7([H])C([H])([H])C7([H])[H])C([H])([H])C([H])([H])C([H])([H])C3(C1(C([H])([H])C([H])([H])C([H])([H])[H])C([H])([H])OC26[H])C([H])([H])[N+]5([H])C([H])([H])C4([H])[H]

$$$$
98:2:2
     RDKit          3D

 75 81  0  0  1  0  0  0  0  0999 V2000
    7.8749   -3.2556   -0.6339 C   0  0  0  0  0  0  0  0  0  0  0  0
    6.4164   -3.3755   -0.1655 C   0  0  0  0  0  0  0  0  0  0  0  0
    6.2929   -4.0993    1.2014 C   0  0  0  0  0  0  0  0  0  0  0  0
    4.8783   -4.1797    1.8789 C   0  0  2  0  0  0  0  0  0  0  0  0
    4.4155   -2.7419    2.1174 C   0  0  0  0  0  0  0  0  0  0  0  0
    3.1834   -2.4249    2.5426 C   0  0  0  0  0  0  0  0  0  0  0  0
    2.6535   -0.9992    2.5119 C   0  0  0  0  0  0  0  0  0  0  0  0
    2.4367   -3.4359    3.3949 C   0  0  2  0  0  0  0  0  0  0  0  0
    3.3326   -3.3666    4.6046 C   0  0  0  0  0  0  0  0  0  0  0  0
    4.2873   -4.5728    4.6558 C   0  0  2  0  0  0  0  0  0  0  0  0
    5.5697   -4.1570    5.4757 C   0  0  0  0  0  0  0  0  0  0  0  0
    6.3534   -5.4569    5.8463 C   0  0  0  0  0  0  0  0  0  0  0  0
    5.9069   -6.5243    4.9063 N   0  0  2  0  0  0  0  0  0  0  0  0
    6.1652   -5.8787    3.5911 C   0  0  0  0  0  0  0  0  0  0  0  0
    4.8266   -5.2710    3.0946 C   0  0  2  0  0  0  0  0  0  0  0  0
    4.6319   -6.7264    2.2187 C   0  0  0  0  0  0  0  0  0  0  0  0
    3.5257   -7.4757    1.3311 C   0  0  0  0  0  0  0  0  0  0  0  0
    1.9717   -7.4999    1.4760 C   0  0  0  0  0  0  0  0  0  0  0  0
    1.3577   -7.3055    2.7825 N   0  0  0  0  0  0  0  0  0  0  0  0
   -0.0925   -7.1313    2.7397 C   0  0  0  0  0  0  0  0  0  0  0  0
   -0.8276   -8.2350    2.0225 C   0  0  0  0  0  0  0  0  0  0  0  0
   -2.1774   -8.7166    2.4860 C   0  0  0  0  0  0  0  0  0  0  0  0
   -0.9625   -9.5920    2.6684 C   0  0  0  0  0  0  0  0  0  0  0  0
    2.0797   -6.3555    3.6059 C   0  0  1  0  0  0  0  0  0  0  0  0
    3.1841   -7.3971    4.3142 C   0  0  0  0  0  0  0  0  0  0  0  0
    4.5325   -7.2261    5.2299 C   0  0  2  0  0  0  0  0  0  0  0  0
    3.9171   -6.5532    6.3795 C   0  0  0  0  0  0  0  0  0  0  0  0
    3.7456   -6.9805    7.5147 O   0  0  0  0  0  0  0  0  0  0  0  0
    3.4830   -5.2121    5.9056 C   0  0  0  0  0  0  0  0  0  0  0  0
    2.1757   -4.8873    2.7852 C   0  0  2  0  0  0  0  0  0  0  0  0
    2.4872   -4.8659    1.3691 O   0  0  0  0  0  0  0  0  0  0  0  0
    3.7884   -4.5473    0.8309 C   0  0  0  0  0  0  0  0  0  0  0  0
    7.9372   -2.7643   -1.6061 H   0  0  0  0  0  0  0  0  0  0  0  0
    8.3412   -4.2357   -0.7311 H   0  0  0  0  0  0  0  0  0  0  0  0
    8.4733   -2.6724    0.0673 H   0  0  0  0  0  0  0  0  0  0  0  0
    5.9942   -2.3729   -0.1366 H   0  0  0  0  0  0  0  0  0  0  0  0
    5.8498   -3.9166   -0.9238 H   0  0  0  0  0  0  0  0  0  0  0  0
    6.7144   -5.0912    1.0503 H   0  0  0  0  0  0  0  0  0  0  0  0
    6.9712   -3.6041    1.8950 H   0  0  0  0  0  0  0  0  0  0  0  0
    5.0098   -1.9578    1.6710 H   0  0  0  0  0  0  0  0  0  0  0  0
    2.3650   -0.6557    3.5044 H   0  0  0  0  0  0  0  0  0  0  0  0
    1.7884   -0.9237    1.8546 H   0  0  0  0  0  0  0  0  0  0  0  0
    3.4104   -0.3088    2.1341 H   0  0  0  0  0  0  0  0  0  0  0  0
    1.4773   -2.9855    3.6501 H   0  0  0  0  0  0  0  0  0  0  0  0
    3.9342   -2.4522    4.6822 H   0  0  0  0  0  0  0  0  0  0  0  0
    2.6794   -3.1998    5.4675 H   0  0  0  0  0  0  0  0  0  0  0  0
    6.1815   -3.4823    4.8760 H   0  0  0  0  0  0  0  0  0  0  0  0
    5.3496   -3.5839    6.3789 H   0  0  0  0  0  0  0  0  0  0  0  0
    7.4269   -5.2694    5.7337 H   0  0  0  0  0  0  0  0  0  0  0  0
    6.2643   -5.7232    6.9041 H   0  0  0  0  0  0  0  0  0  0  0  0
    6.9154   -5.0876    3.6237 H   0  0  0  0  0  0  0  0  0  0  0  0
    6.7487   -6.5566    2.9591 H   0  0  0  0  0  0  0  0  0  0  0  0
    5.3785   -6.6667    1.4310 H   0  0  0  0  0  0  0  0  0  0  0  0
    5.0301   -7.6036    2.7320 H   0  0  0  0  0  0  0  0  0  0  0  0
    3.7452   -7.2956    0.2821 H   0  0  0  0  0  0  0  0  0  0  0  0
    3.7968   -8.5323    1.4052 H   0  0  0  0  0  0  0  0  0  0  0  0
    1.5234   -6.8157    0.7557 H   0  0  0  0  0  0  0  0  0  0  0  0
    1.6566   -8.4778    1.1110 H   0  0  0  0  0  0  0  0  0  0  0  0
   -0.4846   -7.0677    3.7578 H   0  0  0  0  0  0  0  0  0  0  0  0
   -0.3505   -6.2096    2.2313 H   0  0  0  0  0  0  0  0  0  0  0  0
   -0.7147   -8.1838    0.9398 H   0  0  0  0  0  0  0  0  0  0  0  0
   -2.6010   -8.2424    3.3688 H   0  0  0  0  0  0  0  0  0  0  0  0
   -2.8892   -9.0308    1.7266 H   0  0  0  0  0  0  0  0  0  0  0  0
   -0.8588  -10.4592    2.0212 H   0  0  0  0  0  0  0  0  0  0  0  0
   -0.5549   -9.7066    3.6729 H   0  0  0  0  0  0  0  0  0  0  0  0
    1.4017   -6.1172    4.4238 H   0  0  0  0  0  0  0  0  0  0  0  0
    2.5069   -7.9262    4.9928 H   0  0  0  0  0  0  0  0  0  0  0  0
    3.3599   -8.2758    3.6938 H   0  0  0  0  0  0  0  0  0  0  0  0
    4.8025   -8.2317    5.5611 H   0  0  0  0  0  0  0  0  0  0  0  0
    3.5911   -4.5764    6.7892 H   0  0  0  0  0  0  0  0  0  0  0  0
    2.4068   -5.2505    5.7808 H   0  0  0  0  0  0  0  0  0  0  0  0
    1.1035   -4.7451    2.6388 H   0  0  0  0  0  0  0  0  0  0  0  0
    3.6159   -3.7261    0.1308 H   0  0  0  0  0  0  0  0  0  0  0  0
    4.1396   -5.3000    0.1337 H   0  0  0  0  0  0  0  0  0  0  0  0
    6.6015   -7.2657    4.9933 H   0  0  0  0  0  0  0  0  0  0  0  0
  1  2  1  0
  1 33  1  0
  1 34  1  0
  1 35  1  0
  2  3  1  0
  2 36  1  0
  2 37  1  0
  4  3  1  6
  3 38  1  0
  3 39  1  0
  4 15  1  0
  4 32  1  0
  4  5  1  0
  5  6  2  0
  5 40  1  0
  6  7  1  0
  6  8  1  0
  7 41  1  0
  7 42  1  0
  7 43  1  0
  8 30  1  0
  8  9  1  0
  8 44  1  1
 10  9  1  6
  9 45  1  0
  9 46  1  0
 10 15  1  0
 10 29  1  0
 10 11  1  0
 11 12  1  0
 11 47  1  0
 11 48  1  0
 12 13  1  0
 12 49  1  0
 12 50  1  0
 13 26  1  0
 13 14  1  0
 13 75  1  6
 14 15  1  0
 14 51  1  0
 14 52  1  0
 15 16  1  6
 16 17  1  0
 16 53  1  0
 16 54  1  0
 17 18  1  0
 17 55  1  0
 17 56  1  0
 18 19  1  0
 18 57  1  0
 18 58  1  0
 19 20  1  0
 19 24  1  0
 20 21  1  0
 20 59  1  0
 20 60  1  0
 21 23  1  0
 21 22  1  0
 21 61  1  0
 22 23  1  0
 22 62  1  0
 22 63  1  0
 23 64  1  0
 23 65  1  0
 24 25  1  0
 24 30  1  0
 24 66  1  1
 25 26  1  0
 25 67  1  0
 25 68  1  0
 26 27  1  0
 26 69  1  1
 27 28  2  0
 27 29  1  0
 29 70  1  0
 29 71  1  0
 30 31  1  0
 30 72  1  6
 31 32  1  0
 32 73  1  0
 32 74  1  0
M  CHG  1  13   1
M  END
>  <i_m_ct_stereo_status>  (347) 
1

>  <s_m_source_file>  (347) 
/var/tmp/pbs.5076255.sched01/tmpfsvwwkaa/138cw1meju8.sdf

>  <i_m_source_file_index>  (347) 
9

>  <i_lp_mmshare_version>  (347) 
48012

>  <i_f3d_flags>  (347) 
0

>  <s_epik_input>  (347) 
W0NIM11bQ0gyXVtDSDJdW0NAQF0xKFtDQF0yM1tDQF00NTYpW0NIXT1DKFtDSDNdKVtDQEhdKFtDSDJdNClbQ0BASF0oT1tDSDJdMSlbQ0BASF0oTihbQ0gyXVtDSDJdW0NIMl0zKVtDSDJdW0NIXTdbQ0gyXVtDSDJdNylbQ0gyXVtDQEhdKEMoPU8pW0NIMl02KU4oW0NIMl0yKVtDSDJdW0NIMl01

>  <s_epik_cmdline>  (347) 
J2VwaWtfcHl0aG9uJywgJy1waHQnLCAnMi4wJywgJy1waCcsICc3LjAnLCAnLXRuJywgJzgnLCAnLW1hJywgJzIwMCcsICctaW1hZScsICc8aW5maWxlLm1hZT4nLCAnLW9tYWUnLCAnPG91dGZpbGUubWFlPic=

>  <r_epik_Ionization_Penalty>  (347) 
1.75614

>  <r_epik_Ionization_Penalty_Charging>  (347) 
0.154556

>  <r_epik_Ionization_Penalty_Neutral>  (347) 
1.60158

>  <r_epik_State_Penalty>  (347) 
2.5767

>  <r_epik_Charging_Adjusted_Penalty>  (347) 
2.73125

>  <i_epik_Tot_Q>  (347) 
1

>  <i_epik_Tot_abs_Q>  (347) 
1

>  <s_lp_Force_Field>  (347) 
OPLS3e

>  <r_lp_Energy>  (347) 
403.107

>  <b_lp_Chiralities_Consistent>  (347) 
1

>  <s_lp_Variant>  (347) 
98:0-3

>  <s_i_glide_gridfile>  (347) 
pfpi4k_grid

>  <i_i_glide_lignum>  (347) 
9

>  <i_i_glide_rotatable_bonds>  (347) 
4

>  <r_i_docking_score>  (347) 
-1.93089

>  <r_i_glide_ligand_efficiency>  (347) 
-0.0603403

>  <r_i_glide_ligand_efficiency_sa>  (347) 
-0.191568

>  <r_i_glide_ligand_efficiency_ln>  (347) 
-0.432379

>  <r_i_glide_gscore>  (347) 
-1.93089

>  <r_i_glide_lipo>  (347) 
-0.718939

>  <r_i_glide_hbond>  (347) 
0

>  <r_i_glide_metal>  (347) 
-0

>  <r_i_glide_rewards>  (347) 
-0.411455

>  <r_i_glide_evdw>  (347) 
-20.7711

>  <r_i_glide_ecoul>  (347) 
-0.478175

>  <r_i_glide_erotb>  (347) 
0.309786

>  <r_i_glide_esite>  (347) 
0

>  <r_i_glide_emodel>  (347) 
-24.4799

>  <r_i_glide_energy>  (347) 
-21.2493

>  <r_i_glide_einternal>  (347) 
1.38216

>  <r_i_glide_intrahb_reward>  (347) 
-0

>  <i_i_glide_confnum>  (347) 
3

>  <i_i_glide_posenum>  (347) 
11

>  <r_i_glide_eff_state_penalty>  (347) 
0

>  <ligand_id>  (347) 
98

>  <original_smiles>  (347) 
CCCC12C=C(C)C3CC45CCN6CC14CCCN(CC1CC1)C(CC6C(=O)C5)C3OC2

>  <smiles>  (347) 
[H]C1=C(C([H])([H])[H])C2([H])C([H])([H])C34C([H])([H])C(=O)C5([H])C([H])([H])C6([H])N(C([H])([H])C7([H])C([H])([H])C7([H])[H])C([H])([H])C([H])([H])C([H])([H])C3(C1(C([H])([H])C([H])([H])C([H])([H])[H])C([H])([H])OC26[H])C([H])([H])[N+]5([H])C([H])([H])C4([H])[H]

$$$$
99:0:0
     RDKit          3D

 46 50  0  0  1  0  0  0  0  0999 V2000
   -7.1978  -13.2148   -6.5587 C   0  0  0  0  0  0  0  0  0  0  0  0
   -7.8575  -11.8185   -6.5912 C   0  0  0  0  0  0  0  0  0  0  0  0
   -7.0394  -10.8336   -7.3325 N   0  0  1  0  0  0  0  0  0  0  0  0
   -7.0241  -11.0599   -8.7828 C   0  0  0  0  0  0  0  0  0  0  0  0
   -8.2048  -10.2631   -9.3260 C   0  0  0  0  0  0  0  0  0  0  0  0
   -8.2734   -8.9810   -8.4686 C   0  0  2  0  0  0  0  0  0  0  0  0
   -9.7498   -8.3874   -8.3367 C   0  0  2  0  0  0  0  0  0  0  0  0
  -10.4039   -8.2474   -9.7227 C   0  0  0  0  0  0  0  0  0  0  0  0
   -9.6693   -7.1855  -10.5747 C   0  0  1  0  0  0  0  0  0  0  0  0
  -10.1113   -5.8738  -10.2818 O   0  0  0  0  0  0  0  0  0  0  0  0
   -8.1316   -7.2586  -10.4187 C   0  0  0  0  0  0  0  0  0  0  0  0
   -7.5437   -7.7972   -9.0695 C   0  0  1  0  0  0  0  0  0  0  0  0
   -7.5381   -6.8698   -7.8606 C   0  0  0  0  0  0  0  0  0  0  0  0
   -6.5536   -7.0609   -6.8777 C   0  0  0  0  0  0  0  0  0  0  0  0
   -6.5307   -6.1806   -5.7817 C   0  0  0  0  0  0  0  0  0  0  0  0
   -7.5933   -5.2642   -5.6285 C   0  0  0  0  0  0  0  0  0  0  0  0
   -8.7488   -5.4110   -6.4251 C   0  0  0  0  0  0  0  0  0  0  0  0
   -9.8861   -4.7495   -6.0675 O   0  0  0  0  0  0  0  0  0  0  0  0
   -8.7705   -6.3410   -7.4962 C   0  0  0  0  0  0  0  0  0  0  0  0
   -9.9047   -7.0018   -7.9032 O   0  0  0  0  0  0  0  0  0  0  0  0
   -6.1988   -8.5427   -6.8482 C   0  0  0  0  0  0  0  0  0  0  0  0
   -7.4766   -9.4256   -7.1582 C   0  0  2  0  0  0  0  0  0  0  0  0
   -7.7812  -13.8958   -5.9389 H   0  0  0  0  0  0  0  0  0  0  0  0
   -6.1938  -13.1881   -6.1261 H   0  0  0  0  0  0  0  0  0  0  0  0
   -7.1439  -13.6842   -7.5457 H   0  0  0  0  0  0  0  0  0  0  0  0
   -8.8656  -11.8855   -6.9997 H   0  0  0  0  0  0  0  0  0  0  0  0
   -7.9675  -11.4669   -5.5668 H   0  0  0  0  0  0  0  0  0  0  0  0
   -6.0971  -10.6321   -9.1638 H   0  0  0  0  0  0  0  0  0  0  0  0
   -7.0562  -12.1099   -9.0777 H   0  0  0  0  0  0  0  0  0  0  0  0
   -8.1170  -10.0820  -10.4001 H   0  0  0  0  0  0  0  0  0  0  0  0
   -9.1141  -10.8494   -9.1586 H   0  0  0  0  0  0  0  0  0  0  0  0
  -10.3431   -9.0526   -7.7031 H   0  0  0  0  0  0  0  0  0  0  0  0
  -10.4047   -9.2037  -10.2397 H   0  0  0  0  0  0  0  0  0  0  0  0
  -11.4512   -7.9615   -9.6074 H   0  0  0  0  0  0  0  0  0  0  0  0
   -9.9359   -7.3431  -11.6179 H   0  0  0  0  0  0  0  0  0  0  0  0
  -10.0567   -5.7760   -9.3379 H   0  0  0  0  0  0  0  0  0  0  0  0
   -7.8093   -7.9597  -11.1812 H   0  0  0  0  0  0  0  0  0  0  0  0
   -7.6579   -6.3223  -10.7125 H   0  0  0  0  0  0  0  0  0  0  0  0
   -6.5105   -8.0576   -9.3089 H   0  0  0  0  0  0  0  0  0  0  0  0
   -5.7658   -6.2597   -5.0186 H   0  0  0  0  0  0  0  0  0  0  0  0
   -7.5935   -4.6107   -4.7751 H   0  0  0  0  0  0  0  0  0  0  0  0
   -9.8006   -4.2752   -5.2537 H   0  0  0  0  0  0  0  0  0  0  0  0
   -5.3734   -8.7285   -7.5466 H   0  0  0  0  0  0  0  0  0  0  0  0
   -5.8152   -8.7686   -5.8496 H   0  0  0  0  0  0  0  0  0  0  0  0
   -8.1458   -9.3295   -6.3063 H   0  0  0  0  0  0  0  0  0  0  0  0
   -6.0992  -10.9155   -6.9733 H   0  0  0  0  0  0  0  0  0  0  0  0
  1  2  1  0
  1 23  1  0
  1 24  1  0
  1 25  1  0
  2  3  1  0
  2 26  1  0
  2 27  1  0
  3 22  1  0
  3  4  1  0
  3 46  1  1
  4  5  1  0
  4 28  1  0
  4 29  1  0
  6  5  1  6
  5 30  1  0
  5 31  1  0
  6 12  1  0
  6 22  1  0
  6  7  1  0
  7 20  1  0
  7  8  1  0
  7 32  1  1
  8  9  1  0
  8 33  1  0
  8 34  1  0
  9 10  1  0
  9 11  1  0
  9 35  1  6
 10 36  1  0
 11 12  1  0
 11 37  1  0
 11 38  1  0
 12 13  1  0
 12 39  1  6
 13 19  2  0
 13 14  1  0
 14 15  2  0
 14 21  1  0
 15 16  1  0
 15 40  1  0
 16 17  2  0
 16 41  1  0
 17 18  1  0
 17 19  1  0
 18 42  1  0
 19 20  1  0
 21 22  1  0
 21 43  1  0
 21 44  1  0
 22 45  1  1
M  CHG  1   3   1
M  END
>  <i_m_ct_stereo_status>  (348) 
1

>  <s_m_source_file>  (348) 
/var/tmp/pbs.5076255.sched01/tmpfsvwwkaa/138cw1meju8.sdf

>  <i_m_source_file_index>  (348) 
10

>  <i_lp_mmshare_version>  (348) 
48012

>  <i_f3d_flags>  (348) 
0

>  <s_epik_input>  (348) 
W0NIM11bQ0gyXU4oW0NIMl1bQ0gyXTEpW0NASF0yW0NIMl1jKFtjSF1bY0hdYyhbT0hdKWMzTzQpYzNbQ0BASF01W0NIMl1bQ0BIXShbT0hdKVtDSDJdW0NASF00W0NAXTEyNQ==

>  <s_epik_cmdline>  (348) 
J2VwaWtfcHl0aG9uJywgJy1waHQnLCAnMi4wJywgJy1waCcsICc3LjAnLCAnLXRuJywgJzgnLCAnLW1hJywgJzIwMCcsICctaW1hZScsICc8aW5maWxlLm1hZT4nLCAnLW9tYWUnLCAnPG91dGZpbGUubWFlPic=

>  <r_lp_tautomer_probability>  (348) 
1

>  <r_epik_Ionization_Penalty>  (348) 
0.0051843

>  <r_epik_Ionization_Penalty_Charging>  (348) 
0.0035402

>  <r_epik_Ionization_Penalty_Neutral>  (348) 
0.0016441

>  <r_epik_State_Penalty>  (348) 
-0

>  <r_epik_Charging_Adjusted_Penalty>  (348) 
0.0035402

>  <i_epik_Tot_Q>  (348) 
1

>  <i_epik_Tot_abs_Q>  (348) 
1

>  <s_lp_Force_Field>  (348) 
OPLS3e

>  <r_lp_Energy>  (348) 
98.9571

>  <b_lp_Chiralities_Consistent>  (348) 
1

>  <s_lp_Variant>  (348) 
99:0-1

>  <s_i_glide_gridfile>  (348) 
pfpi4k_grid

>  <i_i_glide_lignum>  (348) 
10

>  <i_i_glide_rotatable_bonds>  (348) 
3

>  <r_i_docking_score>  (348) 
-5.97097

>  <r_i_glide_ligand_efficiency>  (348) 
-0.271408

>  <r_i_glide_ligand_efficiency_sa>  (348) 
-0.760495

>  <r_i_glide_ligand_efficiency_ln>  (348) 
-1.45952

>  <r_i_glide_gscore>  (348) 
-5.97097

>  <r_i_glide_lipo>  (348) 
-2.68154

>  <r_i_glide_hbond>  (348) 
0

>  <r_i_glide_metal>  (348) 
-0

>  <r_i_glide_rewards>  (348) 
-1.95265

>  <r_i_glide_evdw>  (348) 
-23.691

>  <r_i_glide_ecoul>  (348) 
-1.01483

>  <r_i_glide_erotb>  (348) 
0

>  <r_i_glide_esite>  (348) 
0

>  <r_i_glide_emodel>  (348) 
-36.1009

>  <r_i_glide_energy>  (348) 
-24.7058

>  <r_i_glide_einternal>  (348) 
0.144318

>  <r_i_glide_intrahb_reward>  (348) 
-0

>  <i_i_glide_confnum>  (348) 
1

>  <i_i_glide_posenum>  (348) 
8

>  <r_i_glide_eff_state_penalty>  (348) 
0

>  <ligand_id>  (348) 
99

>  <original_smiles>  (348) 
CCN1CCC23C4CC(O)CC2c2c(ccc(O)c2O4)CC13

>  <smiles>  (348) 
[H]Oc1c([H])c([H])c2c3c1OC1([H])C([H])([H])C([H])(O[H])C([H])([H])C3([H])C13C([H])([H])C([H])([H])[N+]([H])(C([H])([H])C([H])([H])[H])C3([H])C2([H])[H]

$$$$
99:0:1
     RDKit          3D

 46 50  0  0  1  0  0  0  0  0999 V2000
   -7.3945  -12.3501   -6.5276 C   0  0  0  0  0  0  0  0  0  0  0  0
   -8.2409  -11.0624   -6.5998 C   0  0  0  0  0  0  0  0  0  0  0  0
   -7.6703  -10.0817   -7.5617 N   0  0  1  0  0  0  0  0  0  0  0  0
   -7.9518  -10.3962   -8.9709 C   0  0  0  0  0  0  0  0  0  0  0  0
   -9.2727   -9.6928   -9.2812 C   0  0  0  0  0  0  0  0  0  0  0  0
   -9.2451   -8.3653   -8.4916 C   0  0  2  0  0  0  0  0  0  0  0  0
  -10.6979   -7.8593   -8.0561 C   0  0  2  0  0  0  0  0  0  0  0  0
  -11.6390   -7.8170   -9.2704 C   0  0  0  0  0  0  0  0  0  0  0  0
  -11.1771   -6.7731  -10.3090 C   0  0  1  0  0  0  0  0  0  0  0  0
  -11.6207   -5.4636  -10.0002 O   0  0  0  0  0  0  0  0  0  0  0  0
   -9.6406   -6.7628  -10.5034 C   0  0  0  0  0  0  0  0  0  0  0  0
   -8.7470   -7.1688   -9.2825 C   0  0  1  0  0  0  0  0  0  0  0  0
   -8.5540   -6.1714   -8.1392 C   0  0  0  0  0  0  0  0  0  0  0  0
   -7.3843   -6.2615   -7.3757 C   0  0  0  0  0  0  0  0  0  0  0  0
   -7.1830   -5.3361   -6.3251 C   0  0  0  0  0  0  0  0  0  0  0  0
   -8.2327   -4.4526   -6.0113 C   0  0  0  0  0  0  0  0  0  0  0  0
   -9.5159   -4.7040   -6.5417 C   0  0  0  0  0  0  0  0  0  0  0  0
  -10.5848   -4.0720   -5.9955 O   0  0  0  0  0  0  0  0  0  0  0  0
   -9.7092   -5.7137   -7.5198 C   0  0  0  0  0  0  0  0  0  0  0  0
  -10.8484   -6.4918   -7.5634 O   0  0  0  0  0  0  0  0  0  0  0  0
   -6.9153   -7.7124   -7.3825 C   0  0  0  0  0  0  0  0  0  0  0  0
   -8.1556   -8.6893   -7.3768 C   0  0  2  0  0  0  0  0  0  0  0  0
   -7.7758  -13.0060   -5.7447 H   0  0  0  0  0  0  0  0  0  0  0  0
   -6.3539  -12.1387   -6.2600 H   0  0  0  0  0  0  0  0  0  0  0  0
   -7.4143  -12.9193   -7.4638 H   0  0  0  0  0  0  0  0  0  0  0  0
   -9.2773  -11.3006   -6.8519 H   0  0  0  0  0  0  0  0  0  0  0  0
   -8.2644  -10.6349   -5.5944 H   0  0  0  0  0  0  0  0  0  0  0  0
   -7.1602   -9.9404   -9.5706 H   0  0  0  0  0  0  0  0  0  0  0  0
   -7.9765  -11.4690   -9.1803 H   0  0  0  0  0  0  0  0  0  0  0  0
   -9.4257   -9.5741  -10.3566 H   0  0  0  0  0  0  0  0  0  0  0  0
  -10.0822  -10.3152   -8.8881 H   0  0  0  0  0  0  0  0  0  0  0  0
  -11.0973   -8.5465   -7.3080 H   0  0  0  0  0  0  0  0  0  0  0  0
  -11.6858   -8.8042   -9.7313 H   0  0  0  0  0  0  0  0  0  0  0  0
  -12.6509   -7.5789   -8.9408 H   0  0  0  0  0  0  0  0  0  0  0  0
  -11.6533   -7.0177  -11.2573 H   0  0  0  0  0  0  0  0  0  0  0  0
  -12.4524   -5.5075   -9.5246 H   0  0  0  0  0  0  0  0  0  0  0  0
   -9.4360   -7.4905  -11.2889 H   0  0  0  0  0  0  0  0  0  0  0  0
   -9.3004   -5.8222  -10.9331 H   0  0  0  0  0  0  0  0  0  0  0  0
   -7.7722   -7.3834   -9.7196 H   0  0  0  0  0  0  0  0  0  0  0  0
   -6.2564   -5.3310   -5.7751 H   0  0  0  0  0  0  0  0  0  0  0  0
   -8.0753   -3.7358   -5.2251 H   0  0  0  0  0  0  0  0  0  0  0  0
  -10.3703   -3.3431   -5.4360 H   0  0  0  0  0  0  0  0  0  0  0  0
   -6.2475   -7.8835   -8.2358 H   0  0  0  0  0  0  0  0  0  0  0  0
   -6.3201   -7.8660   -6.4831 H   0  0  0  0  0  0  0  0  0  0  0  0
   -8.6058   -8.5785   -6.4039 H   0  0  0  0  0  0  0  0  0  0  0  0
   -6.6720  -10.0822   -7.4106 H   0  0  0  0  0  0  0  0  0  0  0  0
  1  2  1  0
  1 23  1  0
  1 24  1  0
  1 25  1  0
  2  3  1  0
  2 26  1  0
  2 27  1  0
  3 22  1  0
  3  4  1  0
  3 46  1  6
  4  5  1  0
  4 28  1  0
  4 29  1  0
  6  5  1  6
  5 30  1  0
  5 31  1  0
  6 12  1  0
  6 22  1  0
  6  7  1  0
  7 20  1  0
  7  8  1  0
  7 32  1  1
  8  9  1  0
  8 33  1  0
  8 34  1  0
  9 10  1  0
  9 11  1  0
  9 35  1  6
 10 36  1  0
 11 12  1  0
 11 37  1  0
 11 38  1  0
 12 13  1  0
 12 39  1  6
 13 19  2  0
 13 14  1  0
 14 15  2  0
 14 21  1  0
 15 16  1  0
 15 40  1  0
 16 17  2  0
 16 41  1  0
 17 18  1  0
 17 19  1  0
 18 42  1  0
 19 20  1  0
 21 22  1  0
 21 43  1  0
 21 44  1  0
 22 45  1  1
M  CHG  1   3   1
M  END
>  <i_m_ct_stereo_status>  (349) 
1

>  <s_m_source_file>  (349) 
/var/tmp/pbs.5076255.sched01/tmpfsvwwkaa/138cw1meju8.sdf

>  <i_m_source_file_index>  (349) 
10

>  <i_lp_mmshare_version>  (349) 
48012

>  <i_f3d_flags>  (349) 
0

>  <s_epik_input>  (349) 
W0NIM11bQ0gyXU4oW0NIMl1bQ0gyXTEpW0NASF0yW0NIMl1jKFtjSF1bY0hdYyhbT0hdKWMzTzQpYzNbQ0BASF01W0NIMl1bQ0BIXShbT0hdKVtDSDJdW0NASF00W0NAXTEyNQ==

>  <s_epik_cmdline>  (349) 
J2VwaWtfcHl0aG9uJywgJy1waHQnLCAnMi4wJywgJy1waCcsICc3LjAnLCAnLXRuJywgJzgnLCAnLW1hJywgJzIwMCcsICctaW1hZScsICc8aW5maWxlLm1hZT4nLCAnLW9tYWUnLCAnPG91dGZpbGUubWFlPic=

>  <r_lp_tautomer_probability>  (349) 
1

>  <r_epik_Ionization_Penalty>  (349) 
0.0051843

>  <r_epik_Ionization_Penalty_Charging>  (349) 
0.0035402

>  <r_epik_Ionization_Penalty_Neutral>  (349) 
0.0016441

>  <r_epik_State_Penalty>  (349) 
-0

>  <r_epik_Charging_Adjusted_Penalty>  (349) 
0.0035402

>  <i_epik_Tot_Q>  (349) 
1

>  <i_epik_Tot_abs_Q>  (349) 
1

>  <s_lp_Force_Field>  (349) 
OPLS3e

>  <r_lp_Energy>  (349) 
98.9571

>  <b_lp_Chiralities_Consistent>  (349) 
1

>  <s_lp_Variant>  (349) 
99:0-1

>  <s_i_glide_gridfile>  (349) 
pfpi4k_grid

>  <i_i_glide_lignum>  (349) 
10

>  <i_i_glide_rotatable_bonds>  (349) 
3

>  <r_i_docking_score>  (349) 
-5.88772

>  <r_i_glide_ligand_efficiency>  (349) 
-0.267623

>  <r_i_glide_ligand_efficiency_sa>  (349) 
-0.749891

>  <r_i_glide_ligand_efficiency_ln>  (349) 
-1.43917

>  <r_i_glide_gscore>  (349) 
-5.88772

>  <r_i_glide_lipo>  (349) 
-2.11851

>  <r_i_glide_hbond>  (349) 
0

>  <r_i_glide_metal>  (349) 
-0

>  <r_i_glide_rewards>  (349) 
-1.80288

>  <r_i_glide_evdw>  (349) 
-19.5407

>  <r_i_glide_ecoul>  (349) 
-6.59527

>  <r_i_glide_erotb>  (349) 
0

>  <r_i_glide_esite>  (349) 
0

>  <r_i_glide_emodel>  (349) 
-36.5835

>  <r_i_glide_energy>  (349) 
-26.1359

>  <r_i_glide_einternal>  (349) 
1.52569

>  <r_i_glide_intrahb_reward>  (349) 
-0

>  <i_i_glide_confnum>  (349) 
2

>  <i_i_glide_posenum>  (349) 
5

>  <r_i_glide_eff_state_penalty>  (349) 
0

>  <ligand_id>  (349) 
99

>  <original_smiles>  (349) 
CCN1CCC23C4CC(O)CC2c2c(ccc(O)c2O4)CC13

>  <smiles>  (349) 
[H]Oc1c([H])c([H])c2c3c1OC1([H])C([H])([H])C([H])(O[H])C([H])([H])C3([H])C13C([H])([H])C([H])([H])[N+]([H])(C([H])([H])C([H])([H])[H])C3([H])C2([H])[H]

$$$$
99:0:2
     RDKit          3D

 46 50  0  0  1  0  0  0  0  0999 V2000
    3.6675   -1.5675    0.8201 C   0  0  0  0  0  0  0  0  0  0  0  0
    3.0692   -0.2226    1.2878 C   0  0  0  0  0  0  0  0  0  0  0  0
    2.2779   -0.3403    2.5423 N   0  0  1  0  0  0  0  0  0  0  0  0
    3.0898   -0.6721    3.7271 C   0  0  0  0  0  0  0  0  0  0  0  0
    3.5139    0.6727    4.3006 C   0  0  0  0  0  0  0  0  0  0  0  0
    2.3111    1.6167    4.0869 C   0  0  2  0  0  0  0  0  0  0  0  0
    2.7415    3.1376    3.9028 C   0  0  2  0  0  0  0  0  0  0  0  0
    3.6570    3.5835    5.0631 C   0  0  0  0  0  0  0  0  0  0  0  0
    2.9294    3.5535    6.4236 C   0  0  1  0  0  0  0  0  0  0  0  0
    2.1872    4.7334    6.6613 O   0  0  0  0  0  0  0  0  0  0  0  0
    2.0089    2.3229    6.5812 C   0  0  0  0  0  0  0  0  0  0  0  0
    1.3826    1.7089    5.2861 C   0  0  1  0  0  0  0  0  0  0  0  0
    0.1942    2.4197    4.6497 C   0  0  0  0  0  0  0  0  0  0  0  0
   -0.7463    1.6248    3.9770 C   0  0  0  0  0  0  0  0  0  0  0  0
   -1.8323    2.2930    3.3781 C   0  0  0  0  0  0  0  0  0  0  0  0
   -1.8626    3.7040    3.3571 C   0  0  0  0  0  0  0  0  0  0  0  0
   -0.6919    4.4181    3.6871 C   0  0  0  0  0  0  0  0  0  0  0  0
   -0.5836    5.7284    3.3180 O   0  0  0  0  0  0  0  0  0  0  0  0
    0.4269    3.7304    4.2052 C   0  0  0  0  0  0  0  0  0  0  0  0
    1.7076    4.1527    3.9505 O   0  0  0  0  0  0  0  0  0  0  0  0
    0.0324    0.4784    3.3089 C   0  0  0  0  0  0  0  0  0  0  0  0
    1.5165    0.8871    2.9145 C   0  0  2  0  0  0  0  0  0  0  0  0
    4.1558   -1.4469   -0.1497 H   0  0  0  0  0  0  0  0  0  0  0  0
    2.8933   -2.3294    0.6951 H   0  0  0  0  0  0  0  0  0  0  0  0
    4.4249   -1.9618    1.5024 H   0  0  0  0  0  0  0  0  0  0  0  0
    3.8647    0.5157    1.4004 H   0  0  0  0  0  0  0  0  0  0  0  0
    2.4163    0.1418    0.4938 H   0  0  0  0  0  0  0  0  0  0  0  0
    2.4478   -1.1810    4.4470 H   0  0  0  0  0  0  0  0  0  0  0  0
    3.9404   -1.3261    3.5344 H   0  0  0  0  0  0  0  0  0  0  0  0
    3.8444    0.5900    5.3379 H   0  0  0  0  0  0  0  0  0  0  0  0
    4.3618    1.0369    3.7157 H   0  0  0  0  0  0  0  0  0  0  0  0
    3.2594    3.2529    2.9508 H   0  0  0  0  0  0  0  0  0  0  0  0
    4.5273    2.9302    5.1128 H   0  0  0  0  0  0  0  0  0  0  0  0
    4.0478    4.5836    4.8718 H   0  0  0  0  0  0  0  0  0  0  0  0
    3.6834    3.5386    7.2121 H   0  0  0  0  0  0  0  0  0  0  0  0
    2.7552    5.4800    6.5481 H   0  0  0  0  0  0  0  0  0  0  0  0
    2.6366    1.5498    7.0209 H   0  0  0  0  0  0  0  0  0  0  0  0
    1.2487    2.4975    7.3413 H   0  0  0  0  0  0  0  0  0  0  0  0
    1.0601    0.7128    5.5923 H   0  0  0  0  0  0  0  0  0  0  0  0
   -2.5554    1.7536    2.7806 H   0  0  0  0  0  0  0  0  0  0  0  0
   -2.6685    4.2073    2.8560 H   0  0  0  0  0  0  0  0  0  0  0  0
    0.0564    5.8502    2.6299 H   0  0  0  0  0  0  0  0  0  0  0  0
    0.0114   -0.3884    3.9745 H   0  0  0  0  0  0  0  0  0  0  0  0
   -0.5023    0.1767    2.4073 H   0  0  0  0  0  0  0  0  0  0  0  0
    1.4571    1.5627    2.0620 H   0  0  0  0  0  0  0  0  0  0  0  0
    1.6205   -1.0874    2.3726 H   0  0  0  0  0  0  0  0  0  0  0  0
  1  2  1  0
  1 23  1  0
  1 24  1  0
  1 25  1  0
  2  3  1  0
  2 26  1  0
  2 27  1  0
  3 22  1  0
  3  4  1  0
  3 46  1  6
  4  5  1  0
  4 28  1  0
  4 29  1  0
  6  5  1  1
  5 30  1  0
  5 31  1  0
  6 12  1  0
  6 22  1  0
  6  7  1  0
  7 20  1  0
  7  8  1  0
  7 32  1  6
  8  9  1  0
  8 33  1  0
  8 34  1  0
  9 10  1  0
  9 11  1  0
  9 35  1  1
 10 36  1  0
 11 12  1  0
 11 37  1  0
 11 38  1  0
 12 13  1  0
 12 39  1  1
 13 19  2  0
 13 14  1  0
 14 15  2  0
 14 21  1  0
 15 16  1  0
 15 40  1  0
 16 17  2  0
 16 41  1  0
 17 18  1  0
 17 19  1  0
 18 42  1  0
 19 20  1  0
 21 22  1  0
 21 43  1  0
 21 44  1  0
 22 45  1  6
M  CHG  1   3   1
M  END
>  <i_m_ct_stereo_status>  (350) 
1

>  <s_m_source_file>  (350) 
/var/tmp/pbs.5076255.sched01/tmpfsvwwkaa/138cw1meju8.sdf

>  <i_m_source_file_index>  (350) 
10

>  <i_lp_mmshare_version>  (350) 
48012

>  <i_f3d_flags>  (350) 
0

>  <s_epik_input>  (350) 
W0NIM11bQ0gyXU4oW0NIMl1bQ0gyXTEpW0NASF0yW0NIMl1jKFtjSF1bY0hdYyhbT0hdKWMzTzQpYzNbQ0BASF01W0NIMl1bQ0BIXShbT0hdKVtDSDJdW0NASF00W0NAXTEyNQ==

>  <s_epik_cmdline>  (350) 
J2VwaWtfcHl0aG9uJywgJy1waHQnLCAnMi4wJywgJy1waCcsICc3LjAnLCAnLXRuJywgJzgnLCAnLW1hJywgJzIwMCcsICctaW1hZScsICc8aW5maWxlLm1hZT4nLCAnLW9tYWUnLCAnPG91dGZpbGUubWFlPic=

>  <r_lp_tautomer_probability>  (350) 
1

>  <r_epik_Ionization_Penalty>  (350) 
0.0051843

>  <r_epik_Ionization_Penalty_Charging>  (350) 
0.0035402

>  <r_epik_Ionization_Penalty_Neutral>  (350) 
0.0016441

>  <r_epik_State_Penalty>  (350) 
-0

>  <r_epik_Charging_Adjusted_Penalty>  (350) 
0.0035402

>  <i_epik_Tot_Q>  (350) 
1

>  <i_epik_Tot_abs_Q>  (350) 
1

>  <s_lp_Force_Field>  (350) 
OPLS3e

>  <r_lp_Energy>  (350) 
98.9571

>  <b_lp_Chiralities_Consistent>  (350) 
1

>  <s_lp_Variant>  (350) 
99:0-1

>  <s_i_glide_gridfile>  (350) 
pfpi4k_grid

>  <i_i_glide_lignum>  (350) 
10

>  <i_i_glide_rotatable_bonds>  (350) 
3

>  <r_i_docking_score>  (350) 
-3.42142

>  <r_i_glide_ligand_efficiency>  (350) 
-0.155519

>  <r_i_glide_ligand_efficiency_sa>  (350) 
-0.43577

>  <r_i_glide_ligand_efficiency_ln>  (350) 
-0.836319

>  <r_i_glide_gscore>  (350) 
-3.42142

>  <r_i_glide_lipo>  (350) 
-0.000858597

>  <r_i_glide_hbond>  (350) 
0

>  <r_i_glide_metal>  (350) 
-0

>  <r_i_glide_rewards>  (350) 
-1.34735

>  <r_i_glide_evdw>  (350) 
-18.6574

>  <r_i_glide_ecoul>  (350) 
-7.47743

>  <r_i_glide_erotb>  (350) 
0

>  <r_i_glide_esite>  (350) 
-0.0187181

>  <r_i_glide_emodel>  (350) 
-30.1013

>  <r_i_glide_energy>  (350) 
-26.1349

>  <r_i_glide_einternal>  (350) 
3.30887

>  <r_i_glide_intrahb_reward>  (350) 
-0

>  <i_i_glide_confnum>  (350) 
2

>  <i_i_glide_posenum>  (350) 
14

>  <r_i_glide_eff_state_penalty>  (350) 
0

>  <ligand_id>  (350) 
99

>  <original_smiles>  (350) 
CCN1CCC23C4CC(O)CC2c2c(ccc(O)c2O4)CC13

>  <smiles>  (350) 
[H]Oc1c([H])c([H])c2c3c1OC1([H])C([H])([H])C([H])(O[H])C([H])([H])C3([H])C13C([H])([H])C([H])([H])[N+]([H])(C([H])([H])C([H])([H])[H])C3([H])C2([H])[H]

$$$$
100:0:0
     RDKit          3D

 36 38  0  0  1  0  0  0  0  0999 V2000
    1.5641   -6.0513    5.1200 C   0  0  0  0  0  0  0  0  0  0  0  0
    1.3080   -6.3330    3.6424 C   0  0  0  0  0  0  0  0  0  0  0  0
    1.7790   -5.7200    2.5333 C   0  0  0  0  0  0  0  0  0  0  0  0
    1.3481   -6.2479    1.3629 C   0  0  0  0  0  0  0  0  0  0  0  0
    1.4295   -5.8576    0.1620 N   0  0  0  0  0  0  0  0  0  0  0  0
    2.0236   -4.6826   -0.3097 C   0  0  0  0  0  0  0  0  0  0  0  0
    2.7749   -3.8115    0.3741 C   0  0  0  0  0  0  0  0  0  0  0  0
    3.1015   -3.8814    1.6638 C   0  0  0  0  0  0  0  0  0  0  0  0
    2.6577   -4.6932    2.6295 C   0  0  0  0  0  0  0  0  0  0  0  0
    4.0251   -2.9240    1.9897 O   0  0  0  0  0  0  0  0  0  0  0  0
    4.4931   -2.2329    0.8168 C   0  0  0  0  0  0  0  0  0  0  0  0
    4.5820   -0.7143    1.0653 C   0  0  0  0  0  0  0  0  0  0  0  0
    5.9009   -2.8093    0.5424 C   0  0  0  0  0  0  0  0  0  0  0  0
    3.4145   -2.5852   -0.2344 C   0  0  1  0  0  0  0  0  0  0  0  0
    3.8794   -2.6938   -1.6196 N   0  0  0  0  0  0  0  0  0  0  0  0
    4.6524   -3.6953   -2.1992 C   0  0  0  0  0  0  0  0  0  0  0  0
    4.8376   -3.3475   -3.5170 C   0  0  0  0  0  0  0  0  0  0  0  0
    4.2061   -2.1296   -3.7697 N   0  0  0  0  0  0  0  0  0  0  0  0
    3.6542   -1.8084   -2.6048 C   0  0  0  0  0  0  0  0  0  0  0  0
    2.1436   -6.8698    5.5550 H   0  0  0  0  0  0  0  0  0  0  0  0
    0.6096   -6.0164    5.6529 H   0  0  0  0  0  0  0  0  0  0  0  0
    2.0807   -5.1144    5.3080 H   0  0  0  0  0  0  0  0  0  0  0  0
    0.6343   -7.1737    3.5204 H   0  0  0  0  0  0  0  0  0  0  0  0
    0.8030   -7.1695    1.4053 H   0  0  0  0  0  0  0  0  0  0  0  0
    1.8516   -4.4370   -1.3502 H   0  0  0  0  0  0  0  0  0  0  0  0
    3.1009   -4.4754    3.5803 H   0  0  0  0  0  0  0  0  0  0  0  0
    4.9014   -0.1813    0.1694 H   0  0  0  0  0  0  0  0  0  0  0  0
    5.2956   -0.4799    1.8535 H   0  0  0  0  0  0  0  0  0  0  0  0
    3.6190   -0.3029    1.3617 H   0  0  0  0  0  0  0  0  0  0  0  0
    6.3651   -2.3786   -0.3443 H   0  0  0  0  0  0  0  0  0  0  0  0
    5.8610   -3.8911    0.4090 H   0  0  0  0  0  0  0  0  0  0  0  0
    6.5737   -2.6266    1.3800 H   0  0  0  0  0  0  0  0  0  0  0  0
    2.6311   -1.8276   -0.2075 H   0  0  0  0  0  0  0  0  0  0  0  0
    4.9894   -4.5615   -1.6510 H   0  0  0  0  0  0  0  0  0  0  0  0
    5.3856   -3.8706   -4.2963 H   0  0  0  0  0  0  0  0  0  0  0  0
    3.0772   -0.9031   -2.4681 H   0  0  0  0  0  0  0  0  0  0  0  0
  1  2  1  0
  1 20  1  0
  1 21  1  0
  1 22  1  0
  2  3  2  3
  2 23  1  0
  3  9  1  0
  3  4  1  0
  4  5  2  0
  4 24  1  0
  5  6  1  0
  6  7  2  0
  6 25  1  0
  7 14  1  0
  7  8  1  0
  8  9  2  0
  8 10  1  0
  9 26  1  0
 10 11  1  0
 11 12  1  0
 11 13  1  0
 11 14  1  0
 12 27  1  0
 12 28  1  0
 12 29  1  0
 13 30  1  0
 13 31  1  0
 13 32  1  0
 14 15  1  0
 14 33  1  6
 15 19  1  0
 15 16  1  0
 16 17  2  0
 16 34  1  0
 17 18  1  0
 17 35  1  0
 18 19  2  0
 19 36  1  0
M  END
>  <i_m_ct_stereo_status>  (351) 
1

>  <s_m_source_file>  (351) 
/var/tmp/pbs.5076255.sched01/tmpfsvwwkaa/138cw1meju8.sdf

>  <i_m_source_file_index>  (351) 
11

>  <i_lp_mmshare_version>  (351) 
48012

>  <i_f3d_flags>  (351) 
0

>  <s_epik_input>  (351) 
W0NIXT0xTj1bQ0hdXEMoPVtDSF1cW0NIM10pW0NIXT1DKEMxMilPQyhbQ0gzXSkoW0NIM10pW0NASF0ybjNbY0hdW2NIXW5bY0hdMw==

>  <s_epik_cmdline>  (351) 
J2VwaWtfcHl0aG9uJywgJy1waHQnLCAnMi4wJywgJy1waCcsICc3LjAnLCAnLXRuJywgJzgnLCAnLW1hJywgJzIwMCcsICctaW1hZScsICc8aW5maWxlLm1hZT4nLCAnLW9tYWUnLCAnPG91dGZpbGUubWFlPic=

>  <r_lp_tautomer_probability>  (351) 
1

>  <r_epik_Ionization_Penalty>  (351) 
0.186628

>  <r_epik_Ionization_Penalty_Charging>  (351) 
0.186628

>  <r_epik_Ionization_Penalty_Neutral>  (351) 
0

>  <r_epik_State_Penalty>  (351) 
0.176215

>  <r_epik_Charging_Adjusted_Penalty>  (351) 
0.362843

>  <i_epik_Tot_Q>  (351) 
0

>  <i_epik_Tot_abs_Q>  (351) 
0

>  <s_epik_Chemistry_Notes>  (351) 
This compound has an imine and may undergo hydrolysis.

>  <s_lp_Force_Field>  (351) 
OPLS3e

>  <r_lp_Energy>  (351) 
16.1642

>  <b_lp_Chiralities_Consistent>  (351) 
1

>  <s_lp_Variant>  (351) 
100:0-1

>  <s_i_glide_gridfile>  (351) 
pfpi4k_grid

>  <i_i_glide_lignum>  (351) 
11

>  <i_i_glide_rotatable_bonds>  (351) 
1

>  <r_i_docking_score>  (351) 
-3.98032

>  <r_i_glide_ligand_efficiency>  (351) 
-0.20949

>  <r_i_glide_ligand_efficiency_sa>  (351) 
-0.559004

>  <r_i_glide_ligand_efficiency_ln>  (351) 
-1.0091

>  <r_i_glide_gscore>  (351) 
-3.98032

>  <r_i_glide_lipo>  (351) 
-0.431782

>  <r_i_glide_hbond>  (351) 
-0.228125

>  <r_i_glide_metal>  (351) 
-0

>  <r_i_glide_rewards>  (351) 
-1.66831

>  <r_i_glide_evdw>  (351) 
-21.9405

>  <r_i_glide_ecoul>  (351) 
-4.63287

>  <r_i_glide_erotb>  (351) 
0.27007

>  <r_i_glide_esite>  (351) 
-0.130218

>  <r_i_glide_emodel>  (351) 
-33.1506

>  <r_i_glide_energy>  (351) 
-26.5733

>  <r_i_glide_einternal>  (351) 
0.0782142

>  <r_i_glide_intrahb_reward>  (351) 
-0

>  <i_i_glide_confnum>  (351) 
6

>  <i_i_glide_posenum>  (351) 
27

>  <r_i_glide_eff_state_penalty>  (351) 
0

>  <ligand_id>  (351) 
100

>  <original_smiles>  (351) 
CC=C1C=NC=C2C(=C1)OC(C)(C)C2n1ccnc1

>  <smiles>  (351) 
[H]C1=NC([H])=C2C(=C([H])C1=C([H])C([H])([H])[H])OC(C([H])([H])[H])(C([H])([H])[H])C2([H])n1c([H])nc([H])c1[H]

$$$$
100:0:1
     RDKit          3D

 36 38  0  0  1  0  0  0  0  0999 V2000
    3.6235    0.7356   -5.0977 C   0  0  0  0  0  0  0  0  0  0  0  0
    2.9151   -0.4592   -4.4902 C   0  0  0  0  0  0  0  0  0  0  0  0
    3.2419   -1.2441   -3.4320 C   0  0  0  0  0  0  0  0  0  0  0  0
    2.3628   -2.2481   -3.1762 C   0  0  0  0  0  0  0  0  0  0  0  0
    2.3928   -3.2330   -2.3811 N   0  0  0  0  0  0  0  0  0  0  0  0
    3.4451   -3.6208   -1.5595 C   0  0  0  0  0  0  0  0  0  0  0  0
    4.5530   -2.9372   -1.2597 C   0  0  0  0  0  0  0  0  0  0  0  0
    4.8903   -1.7317   -1.7137 C   0  0  0  0  0  0  0  0  0  0  0  0
    4.3383   -0.9843   -2.6838 C   0  0  0  0  0  0  0  0  0  0  0  0
    5.9904   -1.2537   -1.0602 O   0  0  0  0  0  0  0  0  0  0  0  0
    6.3557   -2.1089    0.0345 C   0  0  0  0  0  0  0  0  0  0  0  0
    7.8840   -2.3118    0.0700 C   0  0  0  0  0  0  0  0  0  0  0  0
    5.8810   -1.3647    1.3019 C   0  0  0  0  0  0  0  0  0  0  0  0
    5.6009   -3.4209   -0.2893 C   0  0  1  0  0  0  0  0  0  0  0  0
    5.1184   -4.1770    0.8671 N   0  0  0  0  0  0  0  0  0  0  0  0
    5.7145   -5.3068    1.4213 C   0  0  0  0  0  0  0  0  0  0  0  0
    4.9317   -5.6861    2.4884 C   0  0  0  0  0  0  0  0  0  0  0  0
    3.8622   -4.7999    2.6152 N   0  0  0  0  0  0  0  0  0  0  0  0
    4.0388   -3.9353    1.6271 C   0  0  0  0  0  0  0  0  0  0  0  0
    3.0361    1.6351   -4.9232 H   0  0  0  0  0  0  0  0  0  0  0  0
    3.7039    0.5908   -6.1748 H   0  0  0  0  0  0  0  0  0  0  0  0
    4.6137    0.8883   -4.7077 H   0  0  0  0  0  0  0  0  0  0  0  0
    2.0009   -0.6614   -5.0353 H   0  0  0  0  0  0  0  0  0  0  0  0
    1.4440   -2.2636   -3.7265 H   0  0  0  0  0  0  0  0  0  0  0  0
    3.3459   -4.5928   -1.0972 H   0  0  0  0  0  0  0  0  0  0  0  0
    4.8557   -0.0525   -2.8226 H   0  0  0  0  0  0  0  0  0  0  0  0
    8.1768   -2.9913    0.8725 H   0  0  0  0  0  0  0  0  0  0  0  0
    8.4163   -1.3747    0.2387 H   0  0  0  0  0  0  0  0  0  0  0  0
    8.2598   -2.7369   -0.8604 H   0  0  0  0  0  0  0  0  0  0  0  0
    6.0909   -1.9172    2.2181 H   0  0  0  0  0  0  0  0  0  0  0  0
    4.8094   -1.1674    1.2664 H   0  0  0  0  0  0  0  0  0  0  0  0
    6.3648   -0.3937    1.3943 H   0  0  0  0  0  0  0  0  0  0  0  0
    6.2473   -4.0825   -0.8674 H   0  0  0  0  0  0  0  0  0  0  0  0
    6.6147   -5.7490    1.0258 H   0  0  0  0  0  0  0  0  0  0  0  0
    5.0501   -6.5192    3.1716 H   0  0  0  0  0  0  0  0  0  0  0  0
    3.3691   -3.1088    1.4458 H   0  0  0  0  0  0  0  0  0  0  0  0
  1  2  1  0
  1 20  1  0
  1 21  1  0
  1 22  1  0
  2  3  2  3
  2 23  1  0
  3  9  1  0
  3  4  1  0
  4  5  2  0
  4 24  1  0
  5  6  1  0
  6  7  2  0
  6 25  1  0
  7 14  1  0
  7  8  1  0
  8  9  2  0
  8 10  1  0
  9 26  1  0
 10 11  1  0
 11 12  1  0
 11 13  1  0
 11 14  1  0
 12 27  1  0
 12 28  1  0
 12 29  1  0
 13 30  1  0
 13 31  1  0
 13 32  1  0
 14 15  1  0
 14 33  1  6
 15 19  1  0
 15 16  1  0
 16 17  2  0
 16 34  1  0
 17 18  1  0
 17 35  1  0
 18 19  2  0
 19 36  1  0
M  END
>  <i_m_ct_stereo_status>  (352) 
1

>  <s_m_source_file>  (352) 
/var/tmp/pbs.5076255.sched01/tmpfsvwwkaa/138cw1meju8.sdf

>  <i_m_source_file_index>  (352) 
11

>  <i_lp_mmshare_version>  (352) 
48012

>  <i_f3d_flags>  (352) 
0

>  <s_epik_input>  (352) 
W0NIXT0xTj1bQ0hdXEMoPVtDSF1cW0NIM10pW0NIXT1DKEMxMilPQyhbQ0gzXSkoW0NIM10pW0NASF0ybjNbY0hdW2NIXW5bY0hdMw==

>  <s_epik_cmdline>  (352) 
J2VwaWtfcHl0aG9uJywgJy1waHQnLCAnMi4wJywgJy1waCcsICc3LjAnLCAnLXRuJywgJzgnLCAnLW1hJywgJzIwMCcsICctaW1hZScsICc8aW5maWxlLm1hZT4nLCAnLW9tYWUnLCAnPG91dGZpbGUubWFlPic=

>  <r_lp_tautomer_probability>  (352) 
1

>  <r_epik_Ionization_Penalty>  (352) 
0.186628

>  <r_epik_Ionization_Penalty_Charging>  (352) 
0.186628

>  <r_epik_Ionization_Penalty_Neutral>  (352) 
0

>  <r_epik_State_Penalty>  (352) 
0.176215

>  <r_epik_Charging_Adjusted_Penalty>  (352) 
0.362843

>  <i_epik_Tot_Q>  (352) 
0

>  <i_epik_Tot_abs_Q>  (352) 
0

>  <s_epik_Chemistry_Notes>  (352) 
This compound has an imine and may undergo hydrolysis.

>  <s_lp_Force_Field>  (352) 
OPLS3e

>  <r_lp_Energy>  (352) 
16.1642

>  <b_lp_Chiralities_Consistent>  (352) 
1

>  <s_lp_Variant>  (352) 
100:0-1

>  <s_i_glide_gridfile>  (352) 
pfpi4k_grid

>  <i_i_glide_lignum>  (352) 
11

>  <i_i_glide_rotatable_bonds>  (352) 
1

>  <r_i_docking_score>  (352) 
-3.85584

>  <r_i_glide_ligand_efficiency>  (352) 
-0.202939

>  <r_i_glide_ligand_efficiency_sa>  (352) 
-0.541523

>  <r_i_glide_ligand_efficiency_ln>  (352) 
-0.977539

>  <r_i_glide_gscore>  (352) 
-3.85584

>  <r_i_glide_lipo>  (352) 
-0.895668

>  <r_i_glide_hbond>  (352) 
-0.0914405

>  <r_i_glide_metal>  (352) 
-0

>  <r_i_glide_rewards>  (352) 
-1.81459

>  <r_i_glide_evdw>  (352) 
-22.9111

>  <r_i_glide_ecoul>  (352) 
-1.19108

>  <r_i_glide_erotb>  (352) 
0.27007

>  <r_i_glide_esite>  (352) 
0

>  <r_i_glide_emodel>  (352) 
-30.4658

>  <r_i_glide_energy>  (352) 
-24.1022

>  <r_i_glide_einternal>  (352) 
0.1132

>  <r_i_glide_intrahb_reward>  (352) 
-0

>  <i_i_glide_confnum>  (352) 
3

>  <i_i_glide_posenum>  (352) 
3

>  <r_i_glide_eff_state_penalty>  (352) 
0

>  <ligand_id>  (352) 
100

>  <original_smiles>  (352) 
CC=C1C=NC=C2C(=C1)OC(C)(C)C2n1ccnc1

>  <smiles>  (352) 
[H]C1=NC([H])=C2C(=C([H])C1=C([H])C([H])([H])[H])OC(C([H])([H])[H])(C([H])([H])[H])C2([H])n1c([H])nc([H])c1[H]

$$$$
100:0:2
     RDKit          3D

 36 38  0  0  1  0  0  0  0  0999 V2000
    3.5802    0.4588   -4.9367 C   0  0  0  0  0  0  0  0  0  0  0  0
    2.8822   -0.7070   -4.2502 C   0  0  0  0  0  0  0  0  0  0  0  0
    3.2463   -1.4640   -3.1894 C   0  0  0  0  0  0  0  0  0  0  0  0
    2.3668   -2.4366   -2.8482 C   0  0  0  0  0  0  0  0  0  0  0  0
    2.4073   -3.3968   -2.0236 N   0  0  0  0  0  0  0  0  0  0  0  0
    3.4961   -3.7889   -1.2534 C   0  0  0  0  0  0  0  0  0  0  0  0
    4.6321   -3.1162   -1.0405 C   0  0  0  0  0  0  0  0  0  0  0  0
    4.9755   -1.9350   -1.5557 C   0  0  0  0  0  0  0  0  0  0  0  0
    4.3917   -1.2057   -2.5147 C   0  0  0  0  0  0  0  0  0  0  0  0
    6.1276   -1.4634   -0.9901 O   0  0  0  0  0  0  0  0  0  0  0  0
    6.5291   -2.2982    0.1099 C   0  0  0  0  0  0  0  0  0  0  0  0
    8.0499   -2.5427    0.0704 C   0  0  0  0  0  0  0  0  0  0  0  0
    6.1343   -1.5144    1.3790 C   0  0  0  0  0  0  0  0  0  0  0  0
    5.7284   -3.5990   -0.1274 C   0  0  1  0  0  0  0  0  0  0  0  0
    5.3215   -4.3239    1.0773 N   0  0  0  0  0  0  0  0  0  0  0  0
    4.2436   -4.0805    1.9245 C   0  0  0  0  0  0  0  0  0  0  0  0
    4.3003   -5.0268    2.9239 C   0  0  0  0  0  0  0  0  0  0  0  0
    5.4060   -5.8509    2.7194 N   0  0  0  0  0  0  0  0  0  0  0  0
    5.9626   -5.3744    1.6148 C   0  0  0  0  0  0  0  0  0  0  0  0
    3.0214    1.3783   -4.7559 H   0  0  0  0  0  0  0  0  0  0  0  0
    3.5907    0.2891   -6.0162 H   0  0  0  0  0  0  0  0  0  0  0  0
    4.6049    0.6001   -4.6160 H   0  0  0  0  0  0  0  0  0  0  0  0
    1.9291   -0.9261   -4.7129 H   0  0  0  0  0  0  0  0  0  0  0  0
    1.4262   -2.4492   -3.3587 H   0  0  0  0  0  0  0  0  0  0  0  0
    3.3983   -4.7339   -0.7406 H   0  0  0  0  0  0  0  0  0  0  0  0
    4.9199   -0.2979   -2.7217 H   0  0  0  0  0  0  0  0  0  0  0  0
    8.3670   -3.2019    0.8772 H   0  0  0  0  0  0  0  0  0  0  0  0
    8.6129   -1.6154    0.1777 H   0  0  0  0  0  0  0  0  0  0  0  0
    8.3609   -3.0075   -0.8650 H   0  0  0  0  0  0  0  0  0  0  0  0
    6.3803   -2.0440    2.2976 H   0  0  0  0  0  0  0  0  0  0  0  0
    5.0681   -1.2920    1.3989 H   0  0  0  0  0  0  0  0  0  0  0  0
    6.6409   -0.5552    1.4163 H   0  0  0  0  0  0  0  0  0  0  0  0
    6.3204   -4.2802   -0.7364 H   0  0  0  0  0  0  0  0  0  0  0  0
    3.5442   -3.2803    1.7520 H   0  0  0  0  0  0  0  0  0  0  0  0
    3.6432   -5.1799    3.7741 H   0  0  0  0  0  0  0  0  0  0  0  0
    6.8574   -5.8113    1.1907 H   0  0  0  0  0  0  0  0  0  0  0  0
  1  2  1  0
  1 20  1  0
  1 21  1  0
  1 22  1  0
  2  3  2  3
  2 23  1  0
  3  9  1  0
  3  4  1  0
  4  5  2  0
  4 24  1  0
  5  6  1  0
  6  7  2  0
  6 25  1  0
  7 14  1  0
  7  8  1  0
  8  9  2  0
  8 10  1  0
  9 26  1  0
 10 11  1  0
 11 12  1  0
 11 13  1  0
 11 14  1  0
 12 27  1  0
 12 28  1  0
 12 29  1  0
 13 30  1  0
 13 31  1  0
 13 32  1  0
 14 15  1  0
 14 33  1  6
 15 19  1  0
 15 16  1  0
 16 17  2  0
 16 34  1  0
 17 18  1  0
 17 35  1  0
 18 19  2  0
 19 36  1  0
M  END
>  <i_m_ct_stereo_status>  (353) 
1

>  <s_m_source_file>  (353) 
/var/tmp/pbs.5076255.sched01/tmpfsvwwkaa/138cw1meju8.sdf

>  <i_m_source_file_index>  (353) 
11

>  <i_lp_mmshare_version>  (353) 
48012

>  <i_f3d_flags>  (353) 
0

>  <s_epik_input>  (353) 
W0NIXT0xTj1bQ0hdXEMoPVtDSF1cW0NIM10pW0NIXT1DKEMxMilPQyhbQ0gzXSkoW0NIM10pW0NASF0ybjNbY0hdW2NIXW5bY0hdMw==

>  <s_epik_cmdline>  (353) 
J2VwaWtfcHl0aG9uJywgJy1waHQnLCAnMi4wJywgJy1waCcsICc3LjAnLCAnLXRuJywgJzgnLCAnLW1hJywgJzIwMCcsICctaW1hZScsICc8aW5maWxlLm1hZT4nLCAnLW9tYWUnLCAnPG91dGZpbGUubWFlPic=

>  <r_lp_tautomer_probability>  (353) 
1

>  <r_epik_Ionization_Penalty>  (353) 
0.186628

>  <r_epik_Ionization_Penalty_Charging>  (353) 
0.186628

>  <r_epik_Ionization_Penalty_Neutral>  (353) 
0

>  <r_epik_State_Penalty>  (353) 
0.176215

>  <r_epik_Charging_Adjusted_Penalty>  (353) 
0.362843

>  <i_epik_Tot_Q>  (353) 
0

>  <i_epik_Tot_abs_Q>  (353) 
0

>  <s_epik_Chemistry_Notes>  (353) 
This compound has an imine and may undergo hydrolysis.

>  <s_lp_Force_Field>  (353) 
OPLS3e

>  <r_lp_Energy>  (353) 
16.1642

>  <b_lp_Chiralities_Consistent>  (353) 
1

>  <s_lp_Variant>  (353) 
100:0-1

>  <s_i_glide_gridfile>  (353) 
pfpi4k_grid

>  <i_i_glide_lignum>  (353) 
11

>  <i_i_glide_rotatable_bonds>  (353) 
1

>  <r_i_docking_score>  (353) 
-3.7643

>  <r_i_glide_ligand_efficiency>  (353) 
-0.198121

>  <r_i_glide_ligand_efficiency_sa>  (353) 
-0.528666

>  <r_i_glide_ligand_efficiency_ln>  (353) 
-0.95433

>  <r_i_glide_gscore>  (353) 
-3.7643

>  <r_i_glide_lipo>  (353) 
-0.746333

>  <r_i_glide_hbond>  (353) 
-0.11367

>  <r_i_glide_metal>  (353) 
-0

>  <r_i_glide_rewards>  (353) 
-1.82161

>  <r_i_glide_evdw>  (353) 
-23.0223

>  <r_i_glide_ecoul>  (353) 
-1.19449

>  <r_i_glide_erotb>  (353) 
0.27007

>  <r_i_glide_esite>  (353) 
-0.0224695

>  <r_i_glide_emodel>  (353) 
-30.4981

>  <r_i_glide_energy>  (353) 
-24.2168

>  <r_i_glide_einternal>  (353) 
0.00176211

>  <r_i_glide_intrahb_reward>  (353) 
-0

>  <i_i_glide_confnum>  (353) 
1

>  <i_i_glide_posenum>  (353) 
31

>  <r_i_glide_eff_state_penalty>  (353) 
0

>  <ligand_id>  (353) 
100

>  <original_smiles>  (353) 
CC=C1C=NC=C2C(=C1)OC(C)(C)C2n1ccnc1

>  <smiles>  (353) 
[H]C1=NC([H])=C2C(=C([H])C1=C([H])C([H])([H])[H])OC(C([H])([H])[H])(C([H])([H])[H])C2([H])n1c([H])nc([H])c1[H]

$$$$
100:1:0
     RDKit          3D

 36 38  0  0  1  0  0  0  0  0999 V2000
    2.6344    0.6693   -5.4620 C   0  0  0  0  0  0  0  0  0  0  0  0
    3.5742    0.4738   -4.2855 C   0  0  0  0  0  0  0  0  0  0  0  0
    3.7928   -0.6497   -3.5636 C   0  0  0  0  0  0  0  0  0  0  0  0
    3.0987   -1.7732   -3.8339 C   0  0  0  0  0  0  0  0  0  0  0  0
    3.2673   -2.9726   -3.4754 N   0  0  0  0  0  0  0  0  0  0  0  0
    4.2692   -3.4743   -2.6422 C   0  0  0  0  0  0  0  0  0  0  0  0
    5.1012   -2.8061   -1.8410 C   0  0  0  0  0  0  0  0  0  0  0  0
    5.2206   -1.4921   -1.7718 C   0  0  0  0  0  0  0  0  0  0  0  0
    4.6761   -0.5423   -2.5445 C   0  0  0  0  0  0  0  0  0  0  0  0
    6.0906   -1.1286   -0.7789 O   0  0  0  0  0  0  0  0  0  0  0  0
    6.4949   -2.2696   -0.0015 C   0  0  0  0  0  0  0  0  0  0  0  0
    8.0137   -2.2651    0.2689 C   0  0  0  0  0  0  0  0  0  0  0  0
    5.7114   -2.1447    1.3210 C   0  0  0  0  0  0  0  0  0  0  0  0
    6.0780   -3.4596   -0.8899 C   0  0  1  0  0  0  0  0  0  0  0  0
    5.6240   -4.6439   -0.1475 N   0  0  0  0  0  0  0  0  0  0  0  0
    4.3320   -5.1342    0.0355 C   0  0  0  0  0  0  0  0  0  0  0  0
    4.4372   -6.3060    0.7452 C   0  0  0  0  0  0  0  0  0  0  0  0
    5.7785   -6.5361    1.0527 N   0  0  0  0  0  0  0  0  0  0  0  0
    6.4174   -5.5108    0.5062 C   0  0  0  0  0  0  0  0  0  0  0  0
    3.0985    1.2904   -6.2209 H   0  0  0  0  0  0  0  0  0  0  0  0
    1.7205    1.1799   -5.1545 H   0  0  0  0  0  0  0  0  0  0  0  0
    2.3761   -0.2517   -5.9481 H   0  0  0  0  0  0  0  0  0  0  0  0
    4.0908    1.3984   -4.0072 H   0  0  0  0  0  0  0  0  0  0  0  0
    2.2436   -1.6873   -4.4606 H   0  0  0  0  0  0  0  0  0  0  0  0
    4.3163   -4.5452   -2.5560 H   0  0  0  0  0  0  0  0  0  0  0  0
    5.0571    0.4338   -2.3439 H   0  0  0  0  0  0  0  0  0  0  0  0
    8.3205   -3.1372    0.8479 H   0  0  0  0  0  0  0  0  0  0  0  0
    8.3115   -1.3916    0.8487 H   0  0  0  0  0  0  0  0  0  0  0  0
    8.6009   -2.2674   -0.6488 H   0  0  0  0  0  0  0  0  0  0  0  0
    5.8958   -2.9686    2.0094 H   0  0  0  0  0  0  0  0  0  0  0  0
    4.6382   -2.1046    1.1324 H   0  0  0  0  0  0  0  0  0  0  0  0
    5.9767   -1.2242    1.8409 H   0  0  0  0  0  0  0  0  0  0  0  0
    6.9214   -3.7563   -1.5179 H   0  0  0  0  0  0  0  0  0  0  0  0
    3.4634   -4.6673   -0.3923 H   0  0  0  0  0  0  0  0  0  0  0  0
    3.6570   -6.9982    1.0486 H   0  0  0  0  0  0  0  0  0  0  0  0
    7.4960   -5.4339    0.5394 H   0  0  0  0  0  0  0  0  0  0  0  0
  1  2  1  0
  1 20  1  0
  1 21  1  0
  1 22  1  0
  2  3  2  3
  2 23  1  0
  3  9  1  0
  3  4  1  0
  4  5  2  0
  4 24  1  0
  5  6  1  0
  6  7  2  0
  6 25  1  0
  7 14  1  0
  7  8  1  0
  8  9  2  0
  8 10  1  0
  9 26  1  0
 10 11  1  0
 11 12  1  0
 11 13  1  0
 11 14  1  0
 12 27  1  0
 12 28  1  0
 12 29  1  0
 13 30  1  0
 13 31  1  0
 13 32  1  0
 14 15  1  0
 14 33  1  6
 15 19  1  0
 15 16  1  0
 16 17  2  0
 16 34  1  0
 17 18  1  0
 17 35  1  0
 18 19  2  0
 19 36  1  0
M  END
>  <i_m_ct_stereo_status>  (354) 
1

>  <s_m_source_file>  (354) 
/var/tmp/pbs.5076255.sched01/tmpfsvwwkaa/138cw1meju8.sdf

>  <i_m_source_file_index>  (354) 
12

>  <i_lp_mmshare_version>  (354) 
48012

>  <i_f3d_flags>  (354) 
0

>  <s_epik_input>  (354) 
W0NIXT0xTj1bQ0hdXEMoPVtDSF1cW0NIM10pW0NIXT1DKEMxMilPQyhbQ0gzXSkoW0NIM10pW0NASF0ybjNbY0hdW2NIXW5bY0hdMw==

>  <s_epik_cmdline>  (354) 
J2VwaWtfcHl0aG9uJywgJy1waHQnLCAnMi4wJywgJy1waCcsICc3LjAnLCAnLXRuJywgJzgnLCAnLW1hJywgJzIwMCcsICctaW1hZScsICc8aW5maWxlLm1hZT4nLCAnLW9tYWUnLCAnPG91dGZpbGUubWFlPic=

>  <r_lp_tautomer_probability>  (354) 
1

>  <r_epik_Ionization_Penalty>  (354) 
0.186628

>  <r_epik_Ionization_Penalty_Charging>  (354) 
0.186628

>  <r_epik_Ionization_Penalty_Neutral>  (354) 
0

>  <r_epik_State_Penalty>  (354) 
0.176215

>  <r_epik_Charging_Adjusted_Penalty>  (354) 
0.362843

>  <i_epik_Tot_Q>  (354) 
0

>  <i_epik_Tot_abs_Q>  (354) 
0

>  <s_epik_Chemistry_Notes>  (354) 
This compound has an imine and may undergo hydrolysis.

>  <s_lp_Force_Field>  (354) 
OPLS3e

>  <r_lp_Energy>  (354) 
17.637

>  <b_lp_Chiralities_Consistent>  (354) 
1

>  <s_lp_Variant>  (354) 
100:0-2

>  <s_i_glide_gridfile>  (354) 
pfpi4k_grid

>  <i_i_glide_lignum>  (354) 
12

>  <i_i_glide_rotatable_bonds>  (354) 
1

>  <r_i_docking_score>  (354) 
-4.33288

>  <r_i_glide_ligand_efficiency>  (354) 
-0.228046

>  <r_i_glide_ligand_efficiency_sa>  (354) 
-0.608519

>  <r_i_glide_ligand_efficiency_ln>  (354) 
-1.09848

>  <r_i_glide_gscore>  (354) 
-4.33288

>  <r_i_glide_lipo>  (354) 
-0.90787

>  <r_i_glide_hbond>  (354) 
-0.0830434

>  <r_i_glide_metal>  (354) 
-0

>  <r_i_glide_rewards>  (354) 
-2.07879

>  <r_i_glide_evdw>  (354) 
-22.6397

>  <r_i_glide_ecoul>  (354) 
-2.67505

>  <r_i_glide_erotb>  (354) 
0.27007

>  <r_i_glide_esite>  (354) 
0

>  <r_i_glide_emodel>  (354) 
-30.7191

>  <r_i_glide_energy>  (354) 
-25.3147

>  <r_i_glide_einternal>  (354) 
0.860494

>  <r_i_glide_intrahb_reward>  (354) 
-0

>  <i_i_glide_confnum>  (354) 
1

>  <i_i_glide_posenum>  (354) 
26

>  <r_i_glide_eff_state_penalty>  (354) 
0

>  <ligand_id>  (354) 
100

>  <original_smiles>  (354) 
CC=C1C=NC=C2C(=C1)OC(C)(C)C2n1ccnc1

>  <smiles>  (354) 
[H]C1=NC([H])=C2C(=C([H])C1=C([H])C([H])([H])[H])OC(C([H])([H])[H])(C([H])([H])[H])C2([H])n1c([H])nc([H])c1[H]

$$$$
100:1:1
     RDKit          3D

 36 38  0  0  1  0  0  0  0  0999 V2000
    2.7001    0.6594   -5.4283 C   0  0  0  0  0  0  0  0  0  0  0  0
    3.6673    0.4788   -4.2663 C   0  0  0  0  0  0  0  0  0  0  0  0
    3.7436   -0.5595   -3.4037 C   0  0  0  0  0  0  0  0  0  0  0  0
    2.8677   -1.5845   -3.5029 C   0  0  0  0  0  0  0  0  0  0  0  0
    2.8167   -2.7132   -2.9414 N   0  0  0  0  0  0  0  0  0  0  0  0
    3.7538   -3.2608   -2.0656 C   0  0  0  0  0  0  0  0  0  0  0  0
    4.7731   -2.6682   -1.4515 C   0  0  0  0  0  0  0  0  0  0  0  0
    5.1316   -1.3998   -1.5751 C   0  0  0  0  0  0  0  0  0  0  0  0
    4.6900   -0.4773   -2.4375 C   0  0  0  0  0  0  0  0  0  0  0  0
    6.1189   -1.0710   -0.6823 O   0  0  0  0  0  0  0  0  0  0  0  0
    6.3450   -2.1544    0.2341 C   0  0  0  0  0  0  0  0  0  0  0  0
    7.8525   -2.3873    0.4375 C   0  0  0  0  0  0  0  0  0  0  0  0
    5.6902   -1.7031    1.5554 C   0  0  0  0  0  0  0  0  0  0  0  0
    5.6729   -3.3613   -0.4608 C   0  0  1  0  0  0  0  0  0  0  0  0
    5.0333   -4.3380    0.4273 N   0  0  0  0  0  0  0  0  0  0  0  0
    5.5906   -5.5364    0.8708 C   0  0  0  0  0  0  0  0  0  0  0  0
    4.6562   -6.1397    1.6795 C   0  0  0  0  0  0  0  0  0  0  0  0
    3.5252   -5.3274    1.7597 N   0  0  0  0  0  0  0  0  0  0  0  0
    3.8211   -4.2790    1.0026 C   0  0  0  0  0  0  0  0  0  0  0  0
    3.2325    1.0391   -6.2949 H   0  0  0  0  0  0  0  0  0  0  0  0
    1.9087    1.3615   -5.1664 H   0  0  0  0  0  0  0  0  0  0  0  0
    2.2284   -0.2484   -5.7712 H   0  0  0  0  0  0  0  0  0  0  0  0
    4.3345    1.3241   -4.1504 H   0  0  0  0  0  0  0  0  0  0  0  0
    2.0343   -1.4639   -4.1616 H   0  0  0  0  0  0  0  0  0  0  0  0
    3.5778   -4.2577   -1.7647 H   0  0  0  0  0  0  0  0  0  0  0  0
    5.2339    0.4280   -2.3666 H   0  0  0  0  0  0  0  0  0  0  0  0
    8.0365   -3.2195    1.1180 H   0  0  0  0  0  0  0  0  0  0  0  0
    8.3362   -1.5125    0.8719 H   0  0  0  0  0  0  0  0  0  0  0  0
    8.3687   -2.6178   -0.4935 H   0  0  0  0  0  0  0  0  0  0  0  0
    5.7759   -2.4471    2.3472 H   0  0  0  0  0  0  0  0  0  0  0  0
    4.6314   -1.4884    1.4124 H   0  0  0  0  0  0  0  0  0  0  0  0
    6.1485   -0.7855    1.9245 H   0  0  0  0  0  0  0  0  0  0  0  0
    6.4088   -3.8839   -1.0736 H   0  0  0  0  0  0  0  0  0  0  0  0
    6.5753   -5.8657    0.5799 H   0  0  0  0  0  0  0  0  0  0  0  0
    4.7087   -7.0859    2.2085 H   0  0  0  0  0  0  0  0  0  0  0  0
    3.1369   -3.4532    0.8564 H   0  0  0  0  0  0  0  0  0  0  0  0
  1  2  1  0
  1 20  1  0
  1 21  1  0
  1 22  1  0
  2  3  2  3
  2 23  1  0
  3  9  1  0
  3  4  1  0
  4  5  2  0
  4 24  1  0
  5  6  1  0
  6  7  2  0
  6 25  1  0
  7 14  1  0
  7  8  1  0
  8  9  2  0
  8 10  1  0
  9 26  1  0
 10 11  1  0
 11 12  1  0
 11 13  1  0
 11 14  1  0
 12 27  1  0
 12 28  1  0
 12 29  1  0
 13 30  1  0
 13 31  1  0
 13 32  1  0
 14 15  1  0
 14 33  1  6
 15 19  1  0
 15 16  1  0
 16 17  2  0
 16 34  1  0
 17 18  1  0
 17 35  1  0
 18 19  2  0
 19 36  1  0
M  END
>  <i_m_ct_stereo_status>  (355) 
1

>  <s_m_source_file>  (355) 
/var/tmp/pbs.5076255.sched01/tmpfsvwwkaa/138cw1meju8.sdf

>  <i_m_source_file_index>  (355) 
12

>  <i_lp_mmshare_version>  (355) 
48012

>  <i_f3d_flags>  (355) 
0

>  <s_epik_input>  (355) 
W0NIXT0xTj1bQ0hdXEMoPVtDSF1cW0NIM10pW0NIXT1DKEMxMilPQyhbQ0gzXSkoW0NIM10pW0NASF0ybjNbY0hdW2NIXW5bY0hdMw==

>  <s_epik_cmdline>  (355) 
J2VwaWtfcHl0aG9uJywgJy1waHQnLCAnMi4wJywgJy1waCcsICc3LjAnLCAnLXRuJywgJzgnLCAnLW1hJywgJzIwMCcsICctaW1hZScsICc8aW5maWxlLm1hZT4nLCAnLW9tYWUnLCAnPG91dGZpbGUubWFlPic=

>  <r_lp_tautomer_probability>  (355) 
1

>  <r_epik_Ionization_Penalty>  (355) 
0.186628

>  <r_epik_Ionization_Penalty_Charging>  (355) 
0.186628

>  <r_epik_Ionization_Penalty_Neutral>  (355) 
0

>  <r_epik_State_Penalty>  (355) 
0.176215

>  <r_epik_Charging_Adjusted_Penalty>  (355) 
0.362843

>  <i_epik_Tot_Q>  (355) 
0

>  <i_epik_Tot_abs_Q>  (355) 
0

>  <s_epik_Chemistry_Notes>  (355) 
This compound has an imine and may undergo hydrolysis.

>  <s_lp_Force_Field>  (355) 
OPLS3e

>  <r_lp_Energy>  (355) 
17.637

>  <b_lp_Chiralities_Consistent>  (355) 
1

>  <s_lp_Variant>  (355) 
100:0-2

>  <s_i_glide_gridfile>  (355) 
pfpi4k_grid

>  <i_i_glide_lignum>  (355) 
12

>  <i_i_glide_rotatable_bonds>  (355) 
1

>  <r_i_docking_score>  (355) 
-4.04045

>  <r_i_glide_ligand_efficiency>  (355) 
-0.212655

>  <r_i_glide_ligand_efficiency_sa>  (355) 
-0.567449

>  <r_i_glide_ligand_efficiency_ln>  (355) 
-1.02434

>  <r_i_glide_gscore>  (355) 
-4.04045

>  <r_i_glide_lipo>  (355) 
-0.959129

>  <r_i_glide_hbond>  (355) 
-0.0780258

>  <r_i_glide_metal>  (355) 
-0

>  <r_i_glide_rewards>  (355) 
-1.95538

>  <r_i_glide_evdw>  (355) 
-21.8489

>  <r_i_glide_ecoul>  (355) 
-1.50356

>  <r_i_glide_erotb>  (355) 
0.27007

>  <r_i_glide_esite>  (355) 
0

>  <r_i_glide_emodel>  (355) 
-28.888

>  <r_i_glide_energy>  (355) 
-23.3525

>  <r_i_glide_einternal>  (355) 
0.140403

>  <r_i_glide_intrahb_reward>  (355) 
-0

>  <i_i_glide_confnum>  (355) 
3

>  <i_i_glide_posenum>  (355) 
7

>  <r_i_glide_eff_state_penalty>  (355) 
0

>  <ligand_id>  (355) 
100

>  <original_smiles>  (355) 
CC=C1C=NC=C2C(=C1)OC(C)(C)C2n1ccnc1

>  <smiles>  (355) 
[H]C1=NC([H])=C2C(=C([H])C1=C([H])C([H])([H])[H])OC(C([H])([H])[H])(C([H])([H])[H])C2([H])n1c([H])nc([H])c1[H]

$$$$
100:1:2
     RDKit          3D

 36 38  0  0  1  0  0  0  0  0999 V2000
    3.0125    0.6251   -5.6173 C   0  0  0  0  0  0  0  0  0  0  0  0
    3.8461    0.3849   -4.3818 C   0  0  0  0  0  0  0  0  0  0  0  0
    3.7086   -0.6238   -3.5018 C   0  0  0  0  0  0  0  0  0  0  0  0
    2.7057   -1.5146   -3.6650 C   0  0  0  0  0  0  0  0  0  0  0  0
    2.4575   -2.6144   -3.0955 N   0  0  0  0  0  0  0  0  0  0  0  0
    3.1776   -3.2369   -2.0832 C   0  0  0  0  0  0  0  0  0  0  0  0
    4.2454   -2.7796   -1.4259 C   0  0  0  0  0  0  0  0  0  0  0  0
    4.8117   -1.5927   -1.5729 C   0  0  0  0  0  0  0  0  0  0  0  0
    4.5873   -0.6441   -2.4911 C   0  0  0  0  0  0  0  0  0  0  0  0
    5.7915   -1.3665   -0.6266 O   0  0  0  0  0  0  0  0  0  0  0  0
    5.7720   -2.4280    0.3506 C   0  0  0  0  0  0  0  0  0  0  0  0
    7.1976   -2.8866    0.6655 C   0  0  0  0  0  0  0  0  0  0  0  0
    5.1221   -1.8094    1.6042 C   0  0  0  0  0  0  0  0  0  0  0  0
    4.9589   -3.5489   -0.3433 C   0  0  1  0  0  0  0  0  0  0  0  0
    4.1081   -4.3718    0.5229 N   0  0  0  0  0  0  0  0  0  0  0  0
    4.3321   -5.7052    0.8560 C   0  0  0  0  0  0  0  0  0  0  0  0
    3.3154   -6.0865    1.7018 C   0  0  0  0  0  0  0  0  0  0  0  0
    2.4524   -5.0005    1.8964 N   0  0  0  0  0  0  0  0  0  0  0  0
    2.9855   -4.0270    1.1744 C   0  0  0  0  0  0  0  0  0  0  0  0
    3.6733    0.8755   -6.4457 H   0  0  0  0  0  0  0  0  0  0  0  0
    2.3348    1.4698   -5.4727 H   0  0  0  0  0  0  0  0  0  0  0  0
    2.4475   -0.2382   -5.9480 H   0  0  0  0  0  0  0  0  0  0  0  0
    4.6012    1.1285   -4.2540 H   0  0  0  0  0  0  0  0  0  0  0  0
    1.9497   -1.3135   -4.3911 H   0  0  0  0  0  0  0  0  0  0  0  0
    2.7931   -4.1617   -1.7138 H   0  0  0  0  0  0  0  0  0  0  0  0
    5.2757    0.1443   -2.3878 H   0  0  0  0  0  0  0  0  0  0  0  0
    7.2036   -3.6890    1.3980 H   0  0  0  0  0  0  0  0  0  0  0  0
    7.7717   -2.0664    1.0835 H   0  0  0  0  0  0  0  0  0  0  0  0
    7.7337   -3.2394   -0.2113 H   0  0  0  0  0  0  0  0  0  0  0  0
    5.0325   -2.5208    2.4225 H   0  0  0  0  0  0  0  0  0  0  0  0
    4.1268   -1.4249    1.3794 H   0  0  0  0  0  0  0  0  0  0  0  0
    5.6945   -0.9616    1.9778 H   0  0  0  0  0  0  0  0  0  0  0  0
    5.6464   -4.2027   -0.8897 H   0  0  0  0  0  0  0  0  0  0  0  0
    5.1647   -6.2743    0.4800 H   0  0  0  0  0  0  0  0  0  0  0  0
    3.1313   -7.0478    2.1834 H   0  0  0  0  0  0  0  0  0  0  0  0
    2.5495   -3.0432    1.1304 H   0  0  0  0  0  0  0  0  0  0  0  0
  1  2  1  0
  1 20  1  0
  1 21  1  0
  1 22  1  0
  2  3  2  3
  2 23  1  0
  3  9  1  0
  3  4  1  0
  4  5  2  0
  4 24  1  0
  5  6  1  0
  6  7  2  0
  6 25  1  0
  7 14  1  0
  7  8  1  0
  8  9  2  0
  8 10  1  0
  9 26  1  0
 10 11  1  0
 11 12  1  0
 11 13  1  0
 11 14  1  0
 12 27  1  0
 12 28  1  0
 12 29  1  0
 13 30  1  0
 13 31  1  0
 13 32  1  0
 14 15  1  0
 14 33  1  6
 15 19  1  0
 15 16  1  0
 16 17  2  0
 16 34  1  0
 17 18  1  0
 17 35  1  0
 18 19  2  0
 19 36  1  0
M  END
>  <i_m_ct_stereo_status>  (356) 
1

>  <s_m_source_file>  (356) 
/var/tmp/pbs.5076255.sched01/tmpfsvwwkaa/138cw1meju8.sdf

>  <i_m_source_file_index>  (356) 
12

>  <i_lp_mmshare_version>  (356) 
48012

>  <i_f3d_flags>  (356) 
0

>  <s_epik_input>  (356) 
W0NIXT0xTj1bQ0hdXEMoPVtDSF1cW0NIM10pW0NIXT1DKEMxMilPQyhbQ0gzXSkoW0NIM10pW0NASF0ybjNbY0hdW2NIXW5bY0hdMw==

>  <s_epik_cmdline>  (356) 
J2VwaWtfcHl0aG9uJywgJy1waHQnLCAnMi4wJywgJy1waCcsICc3LjAnLCAnLXRuJywgJzgnLCAnLW1hJywgJzIwMCcsICctaW1hZScsICc8aW5maWxlLm1hZT4nLCAnLW9tYWUnLCAnPG91dGZpbGUubWFlPic=

>  <r_lp_tautomer_probability>  (356) 
1

>  <r_epik_Ionization_Penalty>  (356) 
0.186628

>  <r_epik_Ionization_Penalty_Charging>  (356) 
0.186628

>  <r_epik_Ionization_Penalty_Neutral>  (356) 
0

>  <r_epik_State_Penalty>  (356) 
0.176215

>  <r_epik_Charging_Adjusted_Penalty>  (356) 
0.362843

>  <i_epik_Tot_Q>  (356) 
0

>  <i_epik_Tot_abs_Q>  (356) 
0

>  <s_epik_Chemistry_Notes>  (356) 
This compound has an imine and may undergo hydrolysis.

>  <s_lp_Force_Field>  (356) 
OPLS3e

>  <r_lp_Energy>  (356) 
17.637

>  <b_lp_Chiralities_Consistent>  (356) 
1

>  <s_lp_Variant>  (356) 
100:0-2

>  <s_i_glide_gridfile>  (356) 
pfpi4k_grid

>  <i_i_glide_lignum>  (356) 
12

>  <i_i_glide_rotatable_bonds>  (356) 
1

>  <r_i_docking_score>  (356) 
-3.99124

>  <r_i_glide_ligand_efficiency>  (356) 
-0.210065

>  <r_i_glide_ligand_efficiency_sa>  (356) 
-0.560539

>  <r_i_glide_ligand_efficiency_ln>  (356) 
-1.01187

>  <r_i_glide_gscore>  (356) 
-3.99124

>  <r_i_glide_lipo>  (356) 
-1.0367

>  <r_i_glide_hbond>  (356) 
-0.0193065

>  <r_i_glide_metal>  (356) 
-0

>  <r_i_glide_rewards>  (356) 
-1.91198

>  <r_i_glide_evdw>  (356) 
-22.3032

>  <r_i_glide_ecoul>  (356) 
-1.14458

>  <r_i_glide_erotb>  (356) 
0.27007

>  <r_i_glide_esite>  (356) 
-0.00647303

>  <r_i_glide_emodel>  (356) 
-28.85

>  <r_i_glide_energy>  (356) 
-23.4478

>  <r_i_glide_einternal>  (356) 
0.186988

>  <r_i_glide_intrahb_reward>  (356) 
-0

>  <i_i_glide_confnum>  (356) 
3

>  <i_i_glide_posenum>  (356) 
8

>  <r_i_glide_eff_state_penalty>  (356) 
0

>  <ligand_id>  (356) 
100

>  <original_smiles>  (356) 
CC=C1C=NC=C2C(=C1)OC(C)(C)C2n1ccnc1

>  <smiles>  (356) 
[H]C1=NC([H])=C2C(=C([H])C1=C([H])C([H])([H])[H])OC(C([H])([H])[H])(C([H])([H])[H])C2([H])n1c([H])nc([H])c1[H]

$$$$
100:2:0
     RDKit          3D

 37 39  0  0  1  0  0  0  0  0999 V2000
   -1.6319    6.2544    9.1872 C   0  0  0  0  0  0  0  0  0  0  0  0
   -2.0736    4.9224    8.5843 C   0  0  0  0  0  0  0  0  0  0  0  0
   -1.5801    4.2161    7.5470 C   0  0  0  0  0  0  0  0  0  0  0  0
   -2.2229    3.0569    7.2801 C   0  0  0  0  0  0  0  0  0  0  0  0
   -2.1591    2.2448    6.3180 N   0  0  0  0  0  0  0  0  0  0  0  0
   -1.3702    2.3450    5.1664 C   0  0  0  0  0  0  0  0  0  0  0  0
   -0.3825    3.2063    4.9215 C   0  0  0  0  0  0  0  0  0  0  0  0
    0.0327    4.1788    5.7324 C   0  0  0  0  0  0  0  0  0  0  0  0
   -0.4901    4.6479    6.8650 C   0  0  0  0  0  0  0  0  0  0  0  0
    1.1709    4.7567    5.2516 O   0  0  0  0  0  0  0  0  0  0  0  0
    1.6761    4.0530    4.1015 C   0  0  0  0  0  0  0  0  0  0  0  0
    2.1052    5.0446    3.0049 C   0  0  0  0  0  0  0  0  0  0  0  0
    2.9123    3.2901    4.6210 C   0  0  0  0  0  0  0  0  0  0  0  0
    0.4686    3.1764    3.6668 C   0  0  1  0  0  0  0  0  0  0  0  0
    0.7913    1.8243    3.1271 N   0  0  0  0  0  0  0  0  0  0  0  0
    1.3113    0.7504    3.8016 C   0  0  0  0  0  0  0  0  0  0  0  0
    1.4699   -0.2596    2.8867 C   0  0  0  0  0  0  0  0  0  0  0  0
    1.0329    0.2319    1.6782 N   0  0  0  0  0  0  0  0  0  0  0  0
    0.6123    1.4899    1.8370 C   0  0  0  0  0  0  0  0  0  0  0  0
   -1.1855    6.0766   10.1698 H   0  0  0  0  0  0  0  0  0  0  0  0
   -2.5146    6.8835    9.3473 H   0  0  0  0  0  0  0  0  0  0  0  0
   -0.9325    6.8090    8.5659 H   0  0  0  0  0  0  0  0  0  0  0  0
   -2.9276    4.5167    9.1199 H   0  0  0  0  0  0  0  0  0  0  0  0
   -2.9580    2.7400    7.9887 H   0  0  0  0  0  0  0  0  0  0  0  0
   -1.5688    1.6270    4.3794 H   0  0  0  0  0  0  0  0  0  0  0  0
    0.0617    5.4670    7.2664 H   0  0  0  0  0  0  0  0  0  0  0  0
    2.4532    4.5236    2.1154 H   0  0  0  0  0  0  0  0  0  0  0  0
    2.9130    5.6944    3.3340 H   0  0  0  0  0  0  0  0  0  0  0  0
    1.2796    5.6808    2.6957 H   0  0  0  0  0  0  0  0  0  0  0  0
    3.3821    2.6847    3.8471 H   0  0  0  0  0  0  0  0  0  0  0  0
    2.6518    2.6440    5.4583 H   0  0  0  0  0  0  0  0  0  0  0  0
    3.6730    3.9706    5.0004 H   0  0  0  0  0  0  0  0  0  0  0  0
   -0.1185    3.7141    2.9153 H   0  0  0  0  0  0  0  0  0  0  0  0
    1.5410    0.7895    4.8544 H   0  0  0  0  0  0  0  0  0  0  0  0
    1.8645   -1.2587    3.0262 H   0  0  0  0  0  0  0  0  0  0  0  0
    0.2145    2.1068    1.0532 H   0  0  0  0  0  0  0  0  0  0  0  0
    1.0157   -0.2636    0.7750 H   0  0  0  0  0  0  0  0  0  0  0  0
  1  2  1  0
  1 20  1  0
  1 21  1  0
  1 22  1  0
  2  3  2  3
  2 23  1  0
  3  9  1  0
  3  4  1  0
  4  5  2  0
  4 24  1  0
  5  6  1  0
  6  7  2  0
  6 25  1  0
  7 14  1  0
  7  8  1  0
  8  9  2  0
  8 10  1  0
  9 26  1  0
 10 11  1  0
 11 12  1  0
 11 13  1  0
 11 14  1  0
 12 27  1  0
 12 28  1  0
 12 29  1  0
 13 30  1  0
 13 31  1  0
 13 32  1  0
 14 15  1  0
 14 33  1  6
 15 19  1  0
 15 16  1  0
 16 17  2  0
 16 34  1  0
 17 18  1  0
 17 35  1  0
 18 19  2  0
 18 37  1  0
 19 36  1  0
M  CHG  1  18   1
M  END
>  <i_m_ct_stereo_status>  (357) 
1

>  <s_m_source_file>  (357) 
/var/tmp/pbs.5076255.sched01/tmpfsvwwkaa/138cw1meju8.sdf

>  <i_m_source_file_index>  (357) 
13

>  <i_lp_mmshare_version>  (357) 
48012

>  <i_f3d_flags>  (357) 
0

>  <s_epik_input>  (357) 
W0NIXT0xTj1bQ0hdXEMoPVtDSF1cW0NIM10pW0NIXT1DKEMxMilPQyhbQ0gzXSkoW0NIM10pW0NASF0ybjNbY0hdW2NIXW5bY0hdMw==

>  <s_epik_cmdline>  (357) 
J2VwaWtfcHl0aG9uJywgJy1waHQnLCAnMi4wJywgJy1waCcsICc3LjAnLCAnLXRuJywgJzgnLCAnLW1hJywgJzIwMCcsICctaW1hZScsICc8aW5maWxlLm1hZT4nLCAnLW9tYWUnLCAnPG91dGZpbGUubWFlPic=

>  <r_lp_tautomer_probability>  (357) 
1

>  <r_epik_Ionization_Penalty>  (357) 
0.775311

>  <r_epik_Ionization_Penalty_Charging>  (357) 
0

>  <r_epik_Ionization_Penalty_Neutral>  (357) 
0.775311

>  <r_epik_State_Penalty>  (357) 
0.804387

>  <r_epik_Charging_Adjusted_Penalty>  (357) 
0.804387

>  <i_epik_Tot_Q>  (357) 
1

>  <i_epik_Tot_abs_Q>  (357) 
1

>  <s_epik_Chemistry_Notes>  (357) 
This compound has an imine and may undergo hydrolysis.

>  <s_lp_Force_Field>  (357) 
OPLS3e

>  <r_lp_Energy>  (357) 
22.1358

>  <b_lp_Chiralities_Consistent>  (357) 
1

>  <s_lp_Variant>  (357) 
100:0-3

>  <s_i_glide_gridfile>  (357) 
pfpi4k_grid

>  <i_i_glide_lignum>  (357) 
13

>  <i_i_glide_rotatable_bonds>  (357) 
1

>  <r_i_docking_score>  (357) 
-3.9102

>  <r_i_glide_ligand_efficiency>  (357) 
-0.2058

>  <r_i_glide_ligand_efficiency_sa>  (357) 
-0.549157

>  <r_i_glide_ligand_efficiency_ln>  (357) 
-0.99132

>  <r_i_glide_gscore>  (357) 
-3.9102

>  <r_i_glide_lipo>  (357) 
-0.0043547

>  <r_i_glide_hbond>  (357) 
-0.2

>  <r_i_glide_metal>  (357) 
-0

>  <r_i_glide_rewards>  (357) 
-1.78496

>  <r_i_glide_evdw>  (357) 
-16.7073

>  <r_i_glide_ecoul>  (357) 
-7.61538

>  <r_i_glide_erotb>  (357) 
0.268247

>  <r_i_glide_esite>  (357) 
-0.211458

>  <r_i_glide_emodel>  (357) 
-32.4639

>  <r_i_glide_energy>  (357) 
-24.3227

>  <r_i_glide_einternal>  (357) 
0.261775

>  <r_i_glide_intrahb_reward>  (357) 
-0

>  <i_i_glide_confnum>  (357) 
2

>  <i_i_glide_posenum>  (357) 
20

>  <r_i_glide_eff_state_penalty>  (357) 
0

>  <ligand_id>  (357) 
100

>  <original_smiles>  (357) 
CC=C1C=NC=C2C(=C1)OC(C)(C)C2n1ccnc1

>  <smiles>  (357) 
[H]C1=NC([H])=C2C(=C([H])C1=C([H])C([H])([H])[H])OC(C([H])([H])[H])(C([H])([H])[H])C2([H])n1c([H])c([H])[n+]([H])c1[H]

$$$$
100:2:1
     RDKit          3D

 37 39  0  0  1  0  0  0  0  0999 V2000
   -2.9757    3.5698   10.4193 C   0  0  0  0  0  0  0  0  0  0  0  0
   -2.0788    2.4346    9.9388 C   0  0  0  0  0  0  0  0  0  0  0  0
   -1.6215    2.1380    8.7035 C   0  0  0  0  0  0  0  0  0  0  0  0
   -0.8304    1.0463    8.6350 C   0  0  0  0  0  0  0  0  0  0  0  0
   -0.3768    0.3861    7.6587 N   0  0  0  0  0  0  0  0  0  0  0  0
   -0.6306    0.5880    6.3027 C   0  0  0  0  0  0  0  0  0  0  0  0
   -1.1854    1.6578    5.7197 C   0  0  0  0  0  0  0  0  0  0  0  0
   -1.6905    2.7147    6.3453 C   0  0  0  0  0  0  0  0  0  0  0  0
   -1.9154    2.9298    7.6464 C   0  0  0  0  0  0  0  0  0  0  0  0
   -2.0362    3.6878    5.4554 O   0  0  0  0  0  0  0  0  0  0  0  0
   -1.6031    3.3499    4.1228 C   0  0  0  0  0  0  0  0  0  0  0  0
   -2.7193    3.6400    3.1081 C   0  0  0  0  0  0  0  0  0  0  0  0
   -0.3840    4.2565    3.8622 C   0  0  0  0  0  0  0  0  0  0  0  0
   -1.2924    1.8362    4.2156 C   0  0  1  0  0  0  0  0  0  0  0  0
   -0.1386    1.3573    3.4046 N   0  0  0  0  0  0  0  0  0  0  0  0
    1.1737    1.2353    3.7916 C   0  0  0  0  0  0  0  0  0  0  0  0
    1.8626    0.7287    2.7202 C   0  0  0  0  0  0  0  0  0  0  0  0
    0.9497    0.5826    1.7055 N   0  0  0  0  0  0  0  0  0  0  0  0
   -0.2545    0.9881    2.1163 C   0  0  0  0  0  0  0  0  0  0  0  0
   -2.3863    4.2631   11.0254 H   0  0  0  0  0  0  0  0  0  0  0  0
   -3.7459    3.1544   11.0793 H   0  0  0  0  0  0  0  0  0  0  0  0
   -3.4730    4.1118    9.6195 H   0  0  0  0  0  0  0  0  0  0  0  0
   -1.7926    1.7911   10.7693 H   0  0  0  0  0  0  0  0  0  0  0  0
   -0.5222    0.6069    9.5596 H   0  0  0  0  0  0  0  0  0  0  0  0
   -0.2524   -0.1708    5.6300 H   0  0  0  0  0  0  0  0  0  0  0  0
   -2.3752    3.8717    7.8332 H   0  0  0  0  0  0  0  0  0  0  0  0
   -2.4105    3.3590    2.1106 H   0  0  0  0  0  0  0  0  0  0  0  0
   -2.9734    4.6957    3.0704 H   0  0  0  0  0  0  0  0  0  0  0  0
   -3.6297    3.0890    3.3349 H   0  0  0  0  0  0  0  0  0  0  0  0
    0.0562    4.0854    2.8818 H   0  0  0  0  0  0  0  0  0  0  0  0
    0.3958    4.1020    4.6078 H   0  0  0  0  0  0  0  0  0  0  0  0
   -0.6548    5.3112    3.9050 H   0  0  0  0  0  0  0  0  0  0  0  0
   -2.1752    1.2588    3.9270 H   0  0  0  0  0  0  0  0  0  0  0  0
    1.5123    1.4899    4.7831 H   0  0  0  0  0  0  0  0  0  0  0  0
    2.9111    0.4712    2.6257 H   0  0  0  0  0  0  0  0  0  0  0  0
   -1.1361    0.9781    1.5037 H   0  0  0  0  0  0  0  0  0  0  0  0
    1.1323    0.2090    0.7719 H   0  0  0  0  0  0  0  0  0  0  0  0
  1  2  1  0
  1 20  1  0
  1 21  1  0
  1 22  1  0
  2  3  2  3
  2 23  1  0
  3  9  1  0
  3  4  1  0
  4  5  2  0
  4 24  1  0
  5  6  1  0
  6  7  2  0
  6 25  1  0
  7 14  1  0
  7  8  1  0
  8  9  2  0
  8 10  1  0
  9 26  1  0
 10 11  1  0
 11 12  1  0
 11 13  1  0
 11 14  1  0
 12 27  1  0
 12 28  1  0
 12 29  1  0
 13 30  1  0
 13 31  1  0
 13 32  1  0
 14 15  1  0
 14 33  1  6
 15 19  1  0
 15 16  1  0
 16 17  2  0
 16 34  1  0
 17 18  1  0
 17 35  1  0
 18 19  2  0
 18 37  1  0
 19 36  1  0
M  CHG  1  18   1
M  END
>  <i_m_ct_stereo_status>  (358) 
1

>  <s_m_source_file>  (358) 
/var/tmp/pbs.5076255.sched01/tmpfsvwwkaa/138cw1meju8.sdf

>  <i_m_source_file_index>  (358) 
13

>  <i_lp_mmshare_version>  (358) 
48012

>  <i_f3d_flags>  (358) 
0

>  <s_epik_input>  (358) 
W0NIXT0xTj1bQ0hdXEMoPVtDSF1cW0NIM10pW0NIXT1DKEMxMilPQyhbQ0gzXSkoW0NIM10pW0NASF0ybjNbY0hdW2NIXW5bY0hdMw==

>  <s_epik_cmdline>  (358) 
J2VwaWtfcHl0aG9uJywgJy1waHQnLCAnMi4wJywgJy1waCcsICc3LjAnLCAnLXRuJywgJzgnLCAnLW1hJywgJzIwMCcsICctaW1hZScsICc8aW5maWxlLm1hZT4nLCAnLW9tYWUnLCAnPG91dGZpbGUubWFlPic=

>  <r_lp_tautomer_probability>  (358) 
1

>  <r_epik_Ionization_Penalty>  (358) 
0.775311

>  <r_epik_Ionization_Penalty_Charging>  (358) 
0

>  <r_epik_Ionization_Penalty_Neutral>  (358) 
0.775311

>  <r_epik_State_Penalty>  (358) 
0.804387

>  <r_epik_Charging_Adjusted_Penalty>  (358) 
0.804387

>  <i_epik_Tot_Q>  (358) 
1

>  <i_epik_Tot_abs_Q>  (358) 
1

>  <s_epik_Chemistry_Notes>  (358) 
This compound has an imine and may undergo hydrolysis.

>  <s_lp_Force_Field>  (358) 
OPLS3e

>  <r_lp_Energy>  (358) 
22.1358

>  <b_lp_Chiralities_Consistent>  (358) 
1

>  <s_lp_Variant>  (358) 
100:0-3

>  <s_i_glide_gridfile>  (358) 
pfpi4k_grid

>  <i_i_glide_lignum>  (358) 
13

>  <i_i_glide_rotatable_bonds>  (358) 
1

>  <r_i_docking_score>  (358) 
-3.83475

>  <r_i_glide_ligand_efficiency>  (358) 
-0.201829

>  <r_i_glide_ligand_efficiency_sa>  (358) 
-0.538561

>  <r_i_glide_ligand_efficiency_ln>  (358) 
-0.972192

>  <r_i_glide_gscore>  (358) 
-3.83475

>  <r_i_glide_lipo>  (358) 
-0.0793385

>  <r_i_glide_hbond>  (358) 
-0.203227

>  <r_i_glide_metal>  (358) 
-0

>  <r_i_glide_rewards>  (358) 
-1.66143

>  <r_i_glide_evdw>  (358) 
-19.4437

>  <r_i_glide_ecoul>  (358) 
-6.28908

>  <r_i_glide_erotb>  (358) 
0.268247

>  <r_i_glide_esite>  (358) 
-0.24345

>  <r_i_glide_emodel>  (358) 
-33.5089

>  <r_i_glide_energy>  (358) 
-25.7328

>  <r_i_glide_einternal>  (358) 
0.603435

>  <r_i_glide_intrahb_reward>  (358) 
-0

>  <i_i_glide_confnum>  (358) 
4

>  <i_i_glide_posenum>  (358) 
17

>  <r_i_glide_eff_state_penalty>  (358) 
0

>  <ligand_id>  (358) 
100

>  <original_smiles>  (358) 
CC=C1C=NC=C2C(=C1)OC(C)(C)C2n1ccnc1

>  <smiles>  (358) 
[H]C1=NC([H])=C2C(=C([H])C1=C([H])C([H])([H])[H])OC(C([H])([H])[H])(C([H])([H])[H])C2([H])n1c([H])c([H])[n+]([H])c1[H]

$$$$
100:2:2
     RDKit          3D

 37 39  0  0  1  0  0  0  0  0999 V2000
   -3.0926    3.3769   10.4183 C   0  0  0  0  0  0  0  0  0  0  0  0
   -2.0548    2.3670    9.9531 C   0  0  0  0  0  0  0  0  0  0  0  0
   -1.5475    2.1402    8.7127 C   0  0  0  0  0  0  0  0  0  0  0  0
   -0.6233    1.1462    8.6486 C   0  0  0  0  0  0  0  0  0  0  0  0
   -0.0763    0.5393    7.6758 N   0  0  0  0  0  0  0  0  0  0  0  0
   -0.3054    0.7515    6.3202 C   0  0  0  0  0  0  0  0  0  0  0  0
   -0.9831    1.7582    5.7447 C   0  0  0  0  0  0  0  0  0  0  0  0
   -1.6574    2.7333    6.3507 C   0  0  0  0  0  0  0  0  0  0  0  0
   -1.9339    2.9083    7.6566 C   0  0  0  0  0  0  0  0  0  0  0  0
   -2.1262    3.6582    5.4536 O   0  0  0  0  0  0  0  0  0  0  0  0
   -1.6206    3.3855    4.1405 C   0  0  0  0  0  0  0  0  0  0  0  0
   -2.7510    3.5226    3.1016 C   0  0  0  0  0  0  0  0  0  0  0  0
   -0.5278    4.4427    3.8954 C   0  0  0  0  0  0  0  0  0  0  0  0
   -1.1063    1.9313    4.2481 C   0  0  1  0  0  0  0  0  0  0  0  0
    0.0672    1.5908    3.4055 N   0  0  0  0  0  0  0  0  0  0  0  0
    0.0033    1.1068    2.1196 C   0  0  0  0  0  0  0  0  0  0  0  0
    1.2922    0.9157    1.6959 C   0  0  0  0  0  0  0  0  0  0  0  0
    2.1010    1.3136    2.7285 N   0  0  0  0  0  0  0  0  0  0  0  0
    1.3560    1.7300    3.7612 C   0  0  0  0  0  0  0  0  0  0  0  0
   -2.6074    4.1391   11.0292 H   0  0  0  0  0  0  0  0  0  0  0  0
   -3.8144    2.8740   11.0648 H   0  0  0  0  0  0  0  0  0  0  0  0
   -3.6446    3.8518    9.6120 H   0  0  0  0  0  0  0  0  0  0  0  0
   -1.7019    1.7562   10.7818 H   0  0  0  0  0  0  0  0  0  0  0  0
   -0.2627    0.7487    9.5820 H   0  0  0  0  0  0  0  0  0  0  0  0
    0.1656    0.0476    5.6497 H   0  0  0  0  0  0  0  0  0  0  0  0
   -2.5161    3.7918    7.8406 H   0  0  0  0  0  0  0  0  0  0  0  0
   -2.4038    3.2929    2.0963 H   0  0  0  0  0  0  0  0  0  0  0  0
   -3.1387    4.5396    3.0639 H   0  0  0  0  0  0  0  0  0  0  0  0
   -3.5925    2.8615    3.3200 H   0  0  0  0  0  0  0  0  0  0  0  0
   -0.0590    4.3366    2.9179 H   0  0  0  0  0  0  0  0  0  0  0  0
    0.2549    4.3834    4.6515 H   0  0  0  0  0  0  0  0  0  0  0  0
   -0.9377    5.4489    3.9406 H   0  0  0  0  0  0  0  0  0  0  0  0
   -1.9013    1.2470    3.9456 H   0  0  0  0  0  0  0  0  0  0  0  0
   -0.9264    0.9319    1.5942 H   0  0  0  0  0  0  0  0  0  0  0  0
    1.6763    0.5425    0.7519 H   0  0  0  0  0  0  0  0  0  0  0  0
    1.7334    2.0931    4.7003 H   0  0  0  0  0  0  0  0  0  0  0  0
    3.1157    1.3045    2.7020 H   0  0  0  0  0  0  0  0  0  0  0  0
  1  2  1  0
  1 20  1  0
  1 21  1  0
  1 22  1  0
  2  3  2  3
  2 23  1  0
  3  9  1  0
  3  4  1  0
  4  5  2  0
  4 24  1  0
  5  6  1  0
  6  7  2  0
  6 25  1  0
  7 14  1  0
  7  8  1  0
  8  9  2  0
  8 10  1  0
  9 26  1  0
 10 11  1  0
 11 12  1  0
 11 13  1  0
 11 14  1  0
 12 27  1  0
 12 28  1  0
 12 29  1  0
 13 30  1  0
 13 31  1  0
 13 32  1  0
 14 15  1  0
 14 33  1  6
 15 19  1  0
 15 16  1  0
 16 17  2  0
 16 34  1  0
 17 18  1  0
 17 35  1  0
 18 19  2  0
 18 37  1  0
 19 36  1  0
M  CHG  1  18   1
M  END
>  <i_m_ct_stereo_status>  (359) 
1

>  <s_m_source_file>  (359) 
/var/tmp/pbs.5076255.sched01/tmpfsvwwkaa/138cw1meju8.sdf

>  <i_m_source_file_index>  (359) 
13

>  <i_lp_mmshare_version>  (359) 
48012

>  <i_f3d_flags>  (359) 
0

>  <s_epik_input>  (359) 
W0NIXT0xTj1bQ0hdXEMoPVtDSF1cW0NIM10pW0NIXT1DKEMxMilPQyhbQ0gzXSkoW0NIM10pW0NASF0ybjNbY0hdW2NIXW5bY0hdMw==

>  <s_epik_cmdline>  (359) 
J2VwaWtfcHl0aG9uJywgJy1waHQnLCAnMi4wJywgJy1waCcsICc3LjAnLCAnLXRuJywgJzgnLCAnLW1hJywgJzIwMCcsICctaW1hZScsICc8aW5maWxlLm1hZT4nLCAnLW9tYWUnLCAnPG91dGZpbGUubWFlPic=

>  <r_lp_tautomer_probability>  (359) 
1

>  <r_epik_Ionization_Penalty>  (359) 
0.775311

>  <r_epik_Ionization_Penalty_Charging>  (359) 
0

>  <r_epik_Ionization_Penalty_Neutral>  (359) 
0.775311

>  <r_epik_State_Penalty>  (359) 
0.804387

>  <r_epik_Charging_Adjusted_Penalty>  (359) 
0.804387

>  <i_epik_Tot_Q>  (359) 
1

>  <i_epik_Tot_abs_Q>  (359) 
1

>  <s_epik_Chemistry_Notes>  (359) 
This compound has an imine and may undergo hydrolysis.

>  <s_lp_Force_Field>  (359) 
OPLS3e

>  <r_lp_Energy>  (359) 
22.1358

>  <b_lp_Chiralities_Consistent>  (359) 
1

>  <s_lp_Variant>  (359) 
100:0-3

>  <s_i_glide_gridfile>  (359) 
pfpi4k_grid

>  <i_i_glide_lignum>  (359) 
13

>  <i_i_glide_rotatable_bonds>  (359) 
1

>  <r_i_docking_score>  (359) 
-3.30924

>  <r_i_glide_ligand_efficiency>  (359) 
-0.174171

>  <r_i_glide_ligand_efficiency_sa>  (359) 
-0.464757

>  <r_i_glide_ligand_efficiency_ln>  (359) 
-0.838964

>  <r_i_glide_gscore>  (359) 
-3.30924

>  <r_i_glide_lipo>  (359) 
-0.0783705

>  <r_i_glide_hbond>  (359) 
0

>  <r_i_glide_metal>  (359) 
-0

>  <r_i_glide_rewards>  (359) 
-1.66143

>  <r_i_glide_evdw>  (359) 
-19.8475

>  <r_i_glide_ecoul>  (359) 
-5.02258

>  <r_i_glide_erotb>  (359) 
0.268247

>  <r_i_glide_esite>  (359) 
-0.0919235

>  <r_i_glide_emodel>  (359) 
-31.9188

>  <r_i_glide_energy>  (359) 
-24.8701

>  <r_i_glide_einternal>  (359) 
0.0971891

>  <r_i_glide_intrahb_reward>  (359) 
-0

>  <i_i_glide_confnum>  (359) 
5

>  <i_i_glide_posenum>  (359) 
23

>  <r_i_glide_eff_state_penalty>  (359) 
0

>  <ligand_id>  (359) 
100

>  <original_smiles>  (359) 
CC=C1C=NC=C2C(=C1)OC(C)(C)C2n1ccnc1

>  <smiles>  (359) 
[H]C1=NC([H])=C2C(=C([H])C1=C([H])C([H])([H])[H])OC(C([H])([H])[H])(C([H])([H])[H])C2([H])n1c([H])c([H])[n+]([H])c1[H]

$$$$
100:3:0
     RDKit          3D

 37 39  0  0  1  0  0  0  0  0999 V2000
    2.6586    0.6657   -5.4546 C   0  0  0  0  0  0  0  0  0  0  0  0
    3.6012    0.4862   -4.2725 C   0  0  0  0  0  0  0  0  0  0  0  0
    3.8043   -0.6517   -3.5638 C   0  0  0  0  0  0  0  0  0  0  0  0
    3.1084   -1.7768   -3.8388 C   0  0  0  0  0  0  0  0  0  0  0  0
    3.2833   -2.9928   -3.4701 N   0  0  0  0  0  0  0  0  0  0  0  0
    4.2952   -3.4880   -2.6582 C   0  0  0  0  0  0  0  0  0  0  0  0
    5.1100   -2.8130   -1.8330 C   0  0  0  0  0  0  0  0  0  0  0  0
    5.2277   -1.4947   -1.7552 C   0  0  0  0  0  0  0  0  0  0  0  0
    4.6826   -0.5505   -2.5403 C   0  0  0  0  0  0  0  0  0  0  0  0
    6.0882   -1.1360   -0.7508 O   0  0  0  0  0  0  0  0  0  0  0  0
    6.4910   -2.2776    0.0079 C   0  0  0  0  0  0  0  0  0  0  0  0
    8.0148   -2.2678    0.2555 C   0  0  0  0  0  0  0  0  0  0  0  0
    5.7334   -2.1393    1.3392 C   0  0  0  0  0  0  0  0  0  0  0  0
    6.0634   -3.4772   -0.8669 C   0  0  1  0  0  0  0  0  0  0  0  0
    5.5412   -4.6401   -0.1177 N   0  0  0  0  0  0  0  0  0  0  0  0
    4.2317   -5.0368    0.0755 C   0  0  0  0  0  0  0  0  0  0  0  0
    4.2478   -6.2249    0.7536 C   0  0  0  0  0  0  0  0  0  0  0  0
    5.5665   -6.4969    1.0096 N   0  0  0  0  0  0  0  0  0  0  0  0
    6.3478   -5.5394    0.5023 C   0  0  0  0  0  0  0  0  0  0  0  0
    3.1342    1.2765   -6.2186 H   0  0  0  0  0  0  0  0  0  0  0  0
    1.7488    1.1881   -5.1359 H   0  0  0  0  0  0  0  0  0  0  0  0
    2.4001   -0.2525   -5.9241 H   0  0  0  0  0  0  0  0  0  0  0  0
    4.1282    1.3918   -3.9934 H   0  0  0  0  0  0  0  0  0  0  0  0
    2.2397   -1.6714   -4.4568 H   0  0  0  0  0  0  0  0  0  0  0  0
    4.3437   -4.5455   -2.5569 H   0  0  0  0  0  0  0  0  0  0  0  0
    5.0863    0.4179   -2.3664 H   0  0  0  0  0  0  0  0  0  0  0  0
    8.3305   -3.1336    0.8374 H   0  0  0  0  0  0  0  0  0  0  0  0
    8.3241   -1.3949    0.8295 H   0  0  0  0  0  0  0  0  0  0  0  0
    8.5990   -2.2768   -0.6637 H   0  0  0  0  0  0  0  0  0  0  0  0
    5.9241   -2.9582    2.0323 H   0  0  0  0  0  0  0  0  0  0  0  0
    4.6598   -2.0875    1.1633 H   0  0  0  0  0  0  0  0  0  0  0  0
    6.0171   -1.2157    1.8449 H   0  0  0  0  0  0  0  0  0  0  0  0
    6.9087   -3.8091   -1.4708 H   0  0  0  0  0  0  0  0  0  0  0  0
    3.3749   -4.5062   -0.3222 H   0  0  0  0  0  0  0  0  0  0  0  0
    3.4389   -6.8873    1.0506 H   0  0  0  0  0  0  0  0  0  0  0  0
    7.4242   -5.5342    0.5267 H   0  0  0  0  0  0  0  0  0  0  0  0
    5.9129   -7.3210    1.5023 H   0  0  0  0  0  0  0  0  0  0  0  0
  1  2  1  0
  1 20  1  0
  1 21  1  0
  1 22  1  0
  2  3  2  3
  2 23  1  0
  3  9  1  0
  3  4  1  0
  4  5  2  0
  4 24  1  0
  5  6  1  0
  6  7  2  0
  6 25  1  0
  7 14  1  0
  7  8  1  0
  8  9  2  0
  8 10  1  0
  9 26  1  0
 10 11  1  0
 11 12  1  0
 11 13  1  0
 11 14  1  0
 12 27  1  0
 12 28  1  0
 12 29  1  0
 13 30  1  0
 13 31  1  0
 13 32  1  0
 14 15  1  0
 14 33  1  6
 15 19  1  0
 15 16  1  0
 16 17  2  0
 16 34  1  0
 17 18  1  0
 17 35  1  0
 18 19  2  0
 18 37  1  0
 19 36  1  0
M  CHG  1  18   1
M  END
>  <i_m_ct_stereo_status>  (360) 
1

>  <s_m_source_file>  (360) 
/var/tmp/pbs.5076255.sched01/tmpfsvwwkaa/138cw1meju8.sdf

>  <i_m_source_file_index>  (360) 
14

>  <i_lp_mmshare_version>  (360) 
48012

>  <i_f3d_flags>  (360) 
0

>  <s_epik_input>  (360) 
W0NIXT0xTj1bQ0hdXEMoPVtDSF1cW0NIM10pW0NIXT1DKEMxMilPQyhbQ0gzXSkoW0NIM10pW0NASF0ybjNbY0hdW2NIXW5bY0hdMw==

>  <s_epik_cmdline>  (360) 
J2VwaWtfcHl0aG9uJywgJy1waHQnLCAnMi4wJywgJy1waCcsICc3LjAnLCAnLXRuJywgJzgnLCAnLW1hJywgJzIwMCcsICctaW1hZScsICc8aW5maWxlLm1hZT4nLCAnLW9tYWUnLCAnPG91dGZpbGUubWFlPic=

>  <r_lp_tautomer_probability>  (360) 
1

>  <r_epik_Ionization_Penalty>  (360) 
0.775311

>  <r_epik_Ionization_Penalty_Charging>  (360) 
0

>  <r_epik_Ionization_Penalty_Neutral>  (360) 
0.775311

>  <r_epik_State_Penalty>  (360) 
0.804387

>  <r_epik_Charging_Adjusted_Penalty>  (360) 
0.804387

>  <i_epik_Tot_Q>  (360) 
1

>  <i_epik_Tot_abs_Q>  (360) 
1

>  <s_epik_Chemistry_Notes>  (360) 
This compound has an imine and may undergo hydrolysis.

>  <s_lp_Force_Field>  (360) 
OPLS3e

>  <r_lp_Energy>  (360) 
23.7282

>  <b_lp_Chiralities_Consistent>  (360) 
1

>  <s_lp_Variant>  (360) 
100:0-4

>  <s_i_glide_gridfile>  (360) 
pfpi4k_grid

>  <i_i_glide_lignum>  (360) 
14

>  <i_i_glide_rotatable_bonds>  (360) 
1

>  <r_i_docking_score>  (360) 
-4.51414

>  <r_i_glide_ligand_efficiency>  (360) 
-0.237586

>  <r_i_glide_ligand_efficiency_sa>  (360) 
-0.633975

>  <r_i_glide_ligand_efficiency_ln>  (360) 
-1.14443

>  <r_i_glide_gscore>  (360) 
-4.51414

>  <r_i_glide_lipo>  (360) 
-0.903505

>  <r_i_glide_hbond>  (360) 
-0.0834317

>  <r_i_glide_metal>  (360) 
-0

>  <r_i_glide_rewards>  (360) 
-2.07028

>  <r_i_glide_evdw>  (360) 
-22.5885

>  <r_i_glide_ecoul>  (360) 
-3.97164

>  <r_i_glide_erotb>  (360) 
0.268247

>  <r_i_glide_esite>  (360) 
0

>  <r_i_glide_emodel>  (360) 
-36.3514

>  <r_i_glide_energy>  (360) 
-26.5601

>  <r_i_glide_einternal>  (360) 
1.34679

>  <r_i_glide_intrahb_reward>  (360) 
-0

>  <i_i_glide_confnum>  (360) 
4

>  <i_i_glide_posenum>  (360) 
38

>  <r_i_glide_eff_state_penalty>  (360) 
0

>  <ligand_id>  (360) 
100

>  <original_smiles>  (360) 
CC=C1C=NC=C2C(=C1)OC(C)(C)C2n1ccnc1

>  <smiles>  (360) 
[H]C1=NC([H])=C2C(=C([H])C1=C([H])C([H])([H])[H])OC(C([H])([H])[H])(C([H])([H])[H])C2([H])n1c([H])c([H])[n+]([H])c1[H]

$$$$
100:3:1
     RDKit          3D

 37 39  0  0  1  0  0  0  0  0999 V2000
    2.6240    0.6667   -5.4691 C   0  0  0  0  0  0  0  0  0  0  0  0
    3.5712    0.4856   -4.2883 C   0  0  0  0  0  0  0  0  0  0  0  0
    3.7878   -0.6473   -3.5724 C   0  0  0  0  0  0  0  0  0  0  0  0
    3.0918   -1.7732   -3.8482 C   0  0  0  0  0  0  0  0  0  0  0  0
    3.2590   -2.9838   -3.4902 N   0  0  0  0  0  0  0  0  0  0  0  0
    4.2652   -3.4798   -2.6698 C   0  0  0  0  0  0  0  0  0  0  0  0
    5.0788   -2.8127   -1.8425 C   0  0  0  0  0  0  0  0  0  0  0  0
    5.2157   -1.4970   -1.7757 C   0  0  0  0  0  0  0  0  0  0  0  0
    4.6748   -0.5437   -2.5531 C   0  0  0  0  0  0  0  0  0  0  0  0
    6.0914   -1.1388   -0.7848 O   0  0  0  0  0  0  0  0  0  0  0  0
    6.4942   -2.2798   -0.0144 C   0  0  0  0  0  0  0  0  0  0  0  0
    8.0189   -2.2728    0.2255 C   0  0  0  0  0  0  0  0  0  0  0  0
    5.7372   -2.1455    1.3184 C   0  0  0  0  0  0  0  0  0  0  0  0
    6.0452   -3.4719   -0.8876 C   0  0  1  0  0  0  0  0  0  0  0  0
    5.5960   -4.6708   -0.1310 N   0  0  0  0  0  0  0  0  0  0  0  0
    6.4234   -5.5212    0.5646 C   0  0  0  0  0  0  0  0  0  0  0  0
    5.6402   -6.5221    1.0804 C   0  0  0  0  0  0  0  0  0  0  0  0
    4.3627   -6.2513    0.6744 N   0  0  0  0  0  0  0  0  0  0  0  0
    4.3321   -5.1209   -0.0368 C   0  0  0  0  0  0  0  0  0  0  0  0
    3.0949    1.2861   -6.2293 H   0  0  0  0  0  0  0  0  0  0  0  0
    1.7149    1.1846   -5.1522 H   0  0  0  0  0  0  0  0  0  0  0  0
    2.3664   -0.2571   -5.9444 H   0  0  0  0  0  0  0  0  0  0  0  0
    4.0873    1.3985   -4.0131 H   0  0  0  0  0  0  0  0  0  0  0  0
    2.2249   -1.6794   -4.4708 H   0  0  0  0  0  0  0  0  0  0  0  0
    4.3278   -4.5434   -2.6029 H   0  0  0  0  0  0  0  0  0  0  0  0
    5.0634    0.4307   -2.3585 H   0  0  0  0  0  0  0  0  0  0  0  0
    8.3443   -3.1386    0.8028 H   0  0  0  0  0  0  0  0  0  0  0  0
    8.3261   -1.4013    0.8011 H   0  0  0  0  0  0  0  0  0  0  0  0
    8.5970   -2.2716   -0.6977 H   0  0  0  0  0  0  0  0  0  0  0  0
    5.9339   -2.9676    2.0059 H   0  0  0  0  0  0  0  0  0  0  0  0
    4.6616   -2.0995    1.1473 H   0  0  0  0  0  0  0  0  0  0  0  0
    6.0226   -1.2257    1.8281 H   0  0  0  0  0  0  0  0  0  0  0  0
    6.8789   -3.7933   -1.5099 H   0  0  0  0  0  0  0  0  0  0  0  0
    7.4938   -5.3863    0.6309 H   0  0  0  0  0  0  0  0  0  0  0  0
    5.8924   -7.3939    1.6758 H   0  0  0  0  0  0  0  0  0  0  0  0
    3.4482   -4.7106   -0.4912 H   0  0  0  0  0  0  0  0  0  0  0  0
    3.5543   -6.8317    0.8733 H   0  0  0  0  0  0  0  0  0  0  0  0
  1  2  1  0
  1 20  1  0
  1 21  1  0
  1 22  1  0
  2  3  2  3
  2 23  1  0
  3  9  1  0
  3  4  1  0
  4  5  2  0
  4 24  1  0
  5  6  1  0
  6  7  2  0
  6 25  1  0
  7 14  1  0
  7  8  1  0
  8  9  2  0
  8 10  1  0
  9 26  1  0
 10 11  1  0
 11 12  1  0
 11 13  1  0
 11 14  1  0
 12 27  1  0
 12 28  1  0
 12 29  1  0
 13 30  1  0
 13 31  1  0
 13 32  1  0
 14 15  1  0
 14 33  1  6
 15 19  1  0
 15 16  1  0
 16 17  2  0
 16 34  1  0
 17 18  1  0
 17 35  1  0
 18 19  2  0
 18 37  1  0
 19 36  1  0
M  CHG  1  18   1
M  END
>  <i_m_ct_stereo_status>  (361) 
1

>  <s_m_source_file>  (361) 
/var/tmp/pbs.5076255.sched01/tmpfsvwwkaa/138cw1meju8.sdf

>  <i_m_source_file_index>  (361) 
14

>  <i_lp_mmshare_version>  (361) 
48012

>  <i_f3d_flags>  (361) 
0

>  <s_epik_input>  (361) 
W0NIXT0xTj1bQ0hdXEMoPVtDSF1cW0NIM10pW0NIXT1DKEMxMilPQyhbQ0gzXSkoW0NIM10pW0NASF0ybjNbY0hdW2NIXW5bY0hdMw==

>  <s_epik_cmdline>  (361) 
J2VwaWtfcHl0aG9uJywgJy1waHQnLCAnMi4wJywgJy1waCcsICc3LjAnLCAnLXRuJywgJzgnLCAnLW1hJywgJzIwMCcsICctaW1hZScsICc8aW5maWxlLm1hZT4nLCAnLW9tYWUnLCAnPG91dGZpbGUubWFlPic=

>  <r_lp_tautomer_probability>  (361) 
1

>  <r_epik_Ionization_Penalty>  (361) 
0.775311

>  <r_epik_Ionization_Penalty_Charging>  (361) 
0

>  <r_epik_Ionization_Penalty_Neutral>  (361) 
0.775311

>  <r_epik_State_Penalty>  (361) 
0.804387

>  <r_epik_Charging_Adjusted_Penalty>  (361) 
0.804387

>  <i_epik_Tot_Q>  (361) 
1

>  <i_epik_Tot_abs_Q>  (361) 
1

>  <s_epik_Chemistry_Notes>  (361) 
This compound has an imine and may undergo hydrolysis.

>  <s_lp_Force_Field>  (361) 
OPLS3e

>  <r_lp_Energy>  (361) 
23.7282

>  <b_lp_Chiralities_Consistent>  (361) 
1

>  <s_lp_Variant>  (361) 
100:0-4

>  <s_i_glide_gridfile>  (361) 
pfpi4k_grid

>  <i_i_glide_lignum>  (361) 
14

>  <i_i_glide_rotatable_bonds>  (361) 
1

>  <r_i_docking_score>  (361) 
-4.45223

>  <r_i_glide_ligand_efficiency>  (361) 
-0.234328

>  <r_i_glide_ligand_efficiency_sa>  (361) 
-0.625281

>  <r_i_glide_ligand_efficiency_ln>  (361) 
-1.12874

>  <r_i_glide_gscore>  (361) 
-4.45223

>  <r_i_glide_lipo>  (361) 
-0.96023

>  <r_i_glide_hbond>  (361) 
-0.08398

>  <r_i_glide_metal>  (361) 
-0

>  <r_i_glide_rewards>  (361) 
-1.91994

>  <r_i_glide_evdw>  (361) 
-21.5457

>  <r_i_glide_ecoul>  (361) 
-4.45204

>  <r_i_glide_erotb>  (361) 
0.268247

>  <r_i_glide_esite>  (361) 
-0.0112378

>  <r_i_glide_emodel>  (361) 
-35.6812

>  <r_i_glide_energy>  (361) 
-25.9977

>  <r_i_glide_einternal>  (361) 
1.20612

>  <r_i_glide_intrahb_reward>  (361) 
-0

>  <i_i_glide_confnum>  (361) 
6

>  <i_i_glide_posenum>  (361) 
16

>  <r_i_glide_eff_state_penalty>  (361) 
0

>  <ligand_id>  (361) 
100

>  <original_smiles>  (361) 
CC=C1C=NC=C2C(=C1)OC(C)(C)C2n1ccnc1

>  <smiles>  (361) 
[H]C1=NC([H])=C2C(=C([H])C1=C([H])C([H])([H])[H])OC(C([H])([H])[H])(C([H])([H])[H])C2([H])n1c([H])c([H])[n+]([H])c1[H]

$$$$
100:3:2
     RDKit          3D

 37 39  0  0  1  0  0  0  0  0999 V2000
    2.7519   -8.3674    3.0830 C   0  0  0  0  0  0  0  0  0  0  0  0
    3.7244   -7.2873    2.6019 C   0  0  0  0  0  0  0  0  0  0  0  0
    3.5259   -6.3563    1.6385 C   0  0  0  0  0  0  0  0  0  0  0  0
    2.3645   -6.3638    0.9406 C   0  0  0  0  0  0  0  0  0  0  0  0
    1.8324   -5.5137    0.1691 N   0  0  0  0  0  0  0  0  0  0  0  0
    2.3415   -4.2673   -0.1867 C   0  0  0  0  0  0  0  0  0  0  0  0
    3.5898   -3.8065   -0.0368 C   0  0  0  0  0  0  0  0  0  0  0  0
    4.5687   -4.3874    0.6478 C   0  0  0  0  0  0  0  0  0  0  0  0
    4.5493   -5.4946    1.4039 C   0  0  0  0  0  0  0  0  0  0  0  0
    5.7321   -3.6757    0.5554 O   0  0  0  0  0  0  0  0  0  0  0  0
    5.5993   -2.5930   -0.3783 C   0  0  0  0  0  0  0  0  0  0  0  0
    6.2234   -1.3067    0.2014 C   0  0  0  0  0  0  0  0  0  0  0  0
    6.3719   -3.0424   -1.6317 C   0  0  0  0  0  0  0  0  0  0  0  0
    4.0681   -2.4768   -0.5809 C   0  0  1  0  0  0  0  0  0  0  0  0
    3.6413   -2.0663   -1.9501 N   0  0  0  0  0  0  0  0  0  0  0  0
    3.8377   -0.8153   -2.4837 C   0  0  0  0  0  0  0  0  0  0  0  0
    3.2682   -0.8090   -3.7306 C   0  0  0  0  0  0  0  0  0  0  0  0
    2.7495   -2.0616   -3.9206 N   0  0  0  0  0  0  0  0  0  0  0  0
    2.9916   -2.8276   -2.8537 C   0  0  0  0  0  0  0  0  0  0  0  0
    2.8080   -8.4364    4.1703 H   0  0  0  0  0  0  0  0  0  0  0  0
    3.0397   -9.3416    2.6828 H   0  0  0  0  0  0  0  0  0  0  0  0
    1.7016   -8.1862    2.8406 H   0  0  0  0  0  0  0  0  0  0  0  0
    4.6754   -7.3095    3.1328 H   0  0  0  0  0  0  0  0  0  0  0  0
    1.7452   -7.2267    1.0223 H   0  0  0  0  0  0  0  0  0  0  0  0
    1.6764   -3.6331   -0.7519 H   0  0  0  0  0  0  0  0  0  0  0  0
    5.4825   -5.6673    1.9030 H   0  0  0  0  0  0  0  0  0  0  0  0
    6.1132   -0.4645   -0.4744 H   0  0  0  0  0  0  0  0  0  0  0  0
    7.2896   -1.4229    0.3809 H   0  0  0  0  0  0  0  0  0  0  0  0
    5.7696   -1.0116    1.1436 H   0  0  0  0  0  0  0  0  0  0  0  0
    6.3378   -2.3107   -2.4341 H   0  0  0  0  0  0  0  0  0  0  0  0
    5.9613   -3.9734   -2.0204 H   0  0  0  0  0  0  0  0  0  0  0  0
    7.4213   -3.2207   -1.4016 H   0  0  0  0  0  0  0  0  0  0  0  0
    3.6712   -1.7306    0.1114 H   0  0  0  0  0  0  0  0  0  0  0  0
    4.3232   -0.0098   -1.9468 H   0  0  0  0  0  0  0  0  0  0  0  0
    3.1695   -0.0151   -4.4630 H   0  0  0  0  0  0  0  0  0  0  0  0
    2.6653   -3.8438   -2.7504 H   0  0  0  0  0  0  0  0  0  0  0  0
    2.2109   -2.3442   -4.7380 H   0  0  0  0  0  0  0  0  0  0  0  0
  1  2  1  0
  1 20  1  0
  1 21  1  0
  1 22  1  0
  2  3  2  3
  2 23  1  0
  3  9  1  0
  3  4  1  0
  4  5  2  0
  4 24  1  0
  5  6  1  0
  6  7  2  0
  6 25  1  0
  7 14  1  0
  7  8  1  0
  8  9  2  0
  8 10  1  0
  9 26  1  0
 10 11  1  0
 11 12  1  0
 11 13  1  0
 11 14  1  0
 12 27  1  0
 12 28  1  0
 12 29  1  0
 13 30  1  0
 13 31  1  0
 13 32  1  0
 14 15  1  0
 14 33  1  1
 15 19  1  0
 15 16  1  0
 16 17  2  0
 16 34  1  0
 17 18  1  0
 17 35  1  0
 18 19  2  0
 18 37  1  0
 19 36  1  0
M  CHG  1  18   1
M  END
>  <i_m_ct_stereo_status>  (362) 
1

>  <s_m_source_file>  (362) 
/var/tmp/pbs.5076255.sched01/tmpfsvwwkaa/138cw1meju8.sdf

>  <i_m_source_file_index>  (362) 
14

>  <i_lp_mmshare_version>  (362) 
48012

>  <i_f3d_flags>  (362) 
0

>  <s_epik_input>  (362) 
W0NIXT0xTj1bQ0hdXEMoPVtDSF1cW0NIM10pW0NIXT1DKEMxMilPQyhbQ0gzXSkoW0NIM10pW0NASF0ybjNbY0hdW2NIXW5bY0hdMw==

>  <s_epik_cmdline>  (362) 
J2VwaWtfcHl0aG9uJywgJy1waHQnLCAnMi4wJywgJy1waCcsICc3LjAnLCAnLXRuJywgJzgnLCAnLW1hJywgJzIwMCcsICctaW1hZScsICc8aW5maWxlLm1hZT4nLCAnLW9tYWUnLCAnPG91dGZpbGUubWFlPic=

>  <r_lp_tautomer_probability>  (362) 
1

>  <r_epik_Ionization_Penalty>  (362) 
0.775311

>  <r_epik_Ionization_Penalty_Charging>  (362) 
0

>  <r_epik_Ionization_Penalty_Neutral>  (362) 
0.775311

>  <r_epik_State_Penalty>  (362) 
0.804387

>  <r_epik_Charging_Adjusted_Penalty>  (362) 
0.804387

>  <i_epik_Tot_Q>  (362) 
1

>  <i_epik_Tot_abs_Q>  (362) 
1

>  <s_epik_Chemistry_Notes>  (362) 
This compound has an imine and may undergo hydrolysis.

>  <s_lp_Force_Field>  (362) 
OPLS3e

>  <r_lp_Energy>  (362) 
23.7282

>  <b_lp_Chiralities_Consistent>  (362) 
1

>  <s_lp_Variant>  (362) 
100:0-4

>  <s_i_glide_gridfile>  (362) 
pfpi4k_grid

>  <i_i_glide_lignum>  (362) 
14

>  <i_i_glide_rotatable_bonds>  (362) 
1

>  <r_i_docking_score>  (362) 
-4.19788

>  <r_i_glide_ligand_efficiency>  (362) 
-0.220941

>  <r_i_glide_ligand_efficiency_sa>  (362) 
-0.58956

>  <r_i_glide_ligand_efficiency_ln>  (362) 
-1.06425

>  <r_i_glide_gscore>  (362) 
-4.19788

>  <r_i_glide_lipo>  (362) 
-0.421079

>  <r_i_glide_hbond>  (362) 
-0.0752334

>  <r_i_glide_metal>  (362) 
-0

>  <r_i_glide_rewards>  (362) 
-1.66143

>  <r_i_glide_evdw>  (362) 
-22.2675

>  <r_i_glide_ecoul>  (362) 
-7.47531

>  <r_i_glide_erotb>  (362) 
0.268247

>  <r_i_glide_esite>  (362) 
-0.0737107

>  <r_i_glide_emodel>  (362) 
-38.6805

>  <r_i_glide_energy>  (362) 
-29.7429

>  <r_i_glide_einternal>  (362) 
1.49444

>  <r_i_glide_intrahb_reward>  (362) 
-0

>  <i_i_glide_confnum>  (362) 
1

>  <i_i_glide_posenum>  (362) 
3

>  <r_i_glide_eff_state_penalty>  (362) 
0

>  <ligand_id>  (362) 
100

>  <original_smiles>  (362) 
CC=C1C=NC=C2C(=C1)OC(C)(C)C2n1ccnc1

>  <smiles>  (362) 
[H]C1=NC([H])=C2C(=C([H])C1=C([H])C([H])([H])[H])OC(C([H])([H])[H])(C([H])([H])[H])C2([H])n1c([H])c([H])[n+]([H])c1[H]

$$$$
101:0:0
     RDKit          3D

 37 40  0  0  1  0  0  0  0  0999 V2000
    7.8020   -2.2563   -1.1857 O   0  0  0  0  0  0  0  0  0  0  0  0
    7.7697   -3.1871   -0.3518 C   0  0  0  0  0  0  0  0  0  0  0  0
    8.7930   -3.7252    0.1296 O   0  0  0  0  0  0  0  0  0  0  0  0
    6.3609   -3.6818    0.1032 C   0  0  1  0  0  0  0  0  0  0  0  0
    6.4934   -5.1571    0.6009 C   0  0  0  0  0  0  0  0  0  0  0  0
    5.2657   -5.6471    1.3295 C   0  0  0  0  0  0  0  0  0  0  0  0
    4.3799   -4.8179    1.9052 C   0  0  0  0  0  0  0  0  0  0  0  0
    4.5132   -3.3043    1.9032 C   0  0  2  0  0  0  0  0  0  0  0  0
    4.4665   -2.8929    3.2556 O   0  0  0  0  0  0  0  0  0  0  0  0
    3.2933   -2.6343    1.2073 C   0  0  1  0  0  0  0  0  0  0  0  0
    3.4164   -1.0992    1.1808 C   0  0  0  0  0  0  0  0  0  0  0  0
    4.6704   -0.7300    0.3899 C   0  0  1  0  0  0  0  0  0  0  0  0
    5.9004   -1.2707    1.1197 C   0  0  0  0  0  0  0  0  0  0  0  0
    5.8746   -2.8147    1.3124 C   0  0  2  0  0  0  0  0  0  0  0  0
    4.5697   -1.2183   -1.0709 C   0  0  0  0  0  0  0  0  0  0  0  0
    4.1978   -2.7092   -1.2109 C   0  0  2  0  0  0  0  0  0  0  0  0
    3.5319   -2.8996   -2.8595 Cl  0  0  0  0  0  0  0  0  0  0  0  0
    3.0673   -3.1146   -0.2398 C   0  0  0  0  0  0  0  0  0  0  0  0
    5.3957   -3.6848   -1.1399 C   0  0  0  0  0  0  0  0  0  0  0  0
    6.6473   -5.8276   -0.2445 H   0  0  0  0  0  0  0  0  0  0  0  0
    7.3310   -5.3081    1.2853 H   0  0  0  0  0  0  0  0  0  0  0  0
    5.1507   -6.7178    1.3951 H   0  0  0  0  0  0  0  0  0  0  0  0
    3.5345   -5.2270    2.4367 H   0  0  0  0  0  0  0  0  0  0  0  0
    4.4879   -1.9525    3.2781 H   0  0  0  0  0  0  0  0  0  0  0  0
    2.3946   -2.8838    1.7768 H   0  0  0  0  0  0  0  0  0  0  0  0
    2.5387   -0.6491    0.7167 H   0  0  0  0  0  0  0  0  0  0  0  0
    3.4618   -0.6844    2.1880 H   0  0  0  0  0  0  0  0  0  0  0  0
    4.7380    0.3557    0.3797 H   0  0  0  0  0  0  0  0  0  0  0  0
    6.8000   -0.9082    0.6270 H   0  0  0  0  0  0  0  0  0  0  0  0
    5.9401   -0.8031    2.1023 H   0  0  0  0  0  0  0  0  0  0  0  0
    6.6245   -3.0057    2.0779 H   0  0  0  0  0  0  0  0  0  0  0  0
    3.7925   -0.6359   -1.5658 H   0  0  0  0  0  0  0  0  0  0  0  0
    5.4860   -1.0014   -1.6190 H   0  0  0  0  0  0  0  0  0  0  0  0
    2.8842   -4.1886   -0.2733 H   0  0  0  0  0  0  0  0  0  0  0  0
    2.1456   -2.6587   -0.5893 H   0  0  0  0  0  0  0  0  0  0  0  0
    5.9741   -3.5728   -2.0626 H   0  0  0  0  0  0  0  0  0  0  0  0
    4.9644   -4.6805   -1.2549 H   0  0  0  0  0  0  0  0  0  0  0  0
  1  2  2  0
  2  3  1  0
  4  2  1  6
  4 14  1  0
  4 19  1  0
  4  5  1  0
  5  6  1  0
  5 20  1  0
  5 21  1  0
  6  7  2  0
  6 22  1  0
  7  8  1  0
  7 23  1  0
  8 14  1  0
  8  9  1  1
  8 10  1  0
  9 24  1  0
 10 18  1  0
 10 11  1  0
 10 25  1  1
 11 12  1  0
 11 26  1  0
 11 27  1  0
 12 13  1  0
 12 15  1  0
 12 28  1  6
 13 14  1  0
 13 29  1  0
 13 30  1  0
 14 31  1  1
 15 16  1  0
 15 32  1  0
 15 33  1  0
 16 17  1  6
 16 18  1  0
 16 19  1  0
 18 34  1  0
 18 35  1  0
 19 36  1  0
 19 37  1  0
M  CHG  1   3  -1
M  END
>  <i_m_ct_stereo_status>  (363) 
1

>  <s_m_source_file>  (363) 
/var/tmp/pbs.5076255.sched01/tmpfsvwwkaa/138cw1meju8.sdf

>  <i_m_source_file_index>  (363) 
15

>  <i_lp_mmshare_version>  (363) 
48012

>  <i_f3d_flags>  (363) 
0

>  <s_epik_input>  (363) 
Tz1DKFtPSF0pW0NAXTEyW0NAQEhdM1tDQF0oW09IXSkoW0NIXT1bQ0hdW0NIMl0xKVtDQEhdNFtDSDJdW0NAQEhdKFtDSDJdMylbQ0gyXVtDQF0oQ2wpKFtDSDJdNClbQ0gyXTI=

>  <s_epik_cmdline>  (363) 
J2VwaWtfcHl0aG9uJywgJy1waHQnLCAnMi4wJywgJy1waCcsICc3LjAnLCAnLXRuJywgJzgnLCAnLW1hJywgJzIwMCcsICctaW1hZScsICc8aW5maWxlLm1hZT4nLCAnLW9tYWUnLCAnPG91dGZpbGUubWFlPic=

>  <r_epik_Ionization_Penalty>  (363) 
0.00167728

>  <r_epik_Ionization_Penalty_Charging>  (363) 
0.00167667

>  <r_epik_Ionization_Penalty_Neutral>  (363) 
6.15585e-07

>  <r_epik_State_Penalty>  (363) 
0.00113175

>  <r_epik_Charging_Adjusted_Penalty>  (363) 
0.00280842

>  <i_epik_Tot_Q>  (363) 
-1

>  <i_epik_Tot_abs_Q>  (363) 
1

>  <s_lp_Force_Field>  (363) 
OPLS3e

>  <r_lp_Energy>  (363) 
32.3884

>  <b_lp_Chiralities_Consistent>  (363) 
1

>  <s_lp_Variant>  (363) 
101:0-1

>  <s_i_glide_gridfile>  (363) 
pfpi4k_grid

>  <i_i_glide_lignum>  (363) 
15

>  <i_i_glide_rotatable_bonds>  (363) 
2

>  <r_i_docking_score>  (363) 
-4.24406

>  <r_i_glide_ligand_efficiency>  (363) 
-0.223371

>  <r_i_glide_ligand_efficiency_sa>  (363) 
-0.596044

>  <r_i_glide_ligand_efficiency_ln>  (363) 
-1.07596

>  <r_i_glide_gscore>  (363) 
-4.24406

>  <r_i_glide_lipo>  (363) 
-0.709279

>  <r_i_glide_hbond>  (363) 
-0.226037

>  <r_i_glide_metal>  (363) 
-0

>  <r_i_glide_rewards>  (363) 
-1.70722

>  <r_i_glide_evdw>  (363) 
-22.8546

>  <r_i_glide_ecoul>  (363) 
-3.05861

>  <r_i_glide_erotb>  (363) 
0

>  <r_i_glide_esite>  (363) 
0

>  <r_i_glide_emodel>  (363) 
-34.327

>  <r_i_glide_energy>  (363) 
-25.9132

>  <r_i_glide_einternal>  (363) 
1.10262

>  <r_i_glide_intrahb_reward>  (363) 
-0

>  <i_i_glide_confnum>  (363) 
2

>  <i_i_glide_posenum>  (363) 
29

>  <r_i_glide_eff_state_penalty>  (363) 
0

>  <ligand_id>  (363) 
101

>  <original_smiles>  (363) 
O=C(O)C12CC=CC3(O)C4CC(CC13)CC(Cl)(C4)C2

>  <smiles>  (363) 
[H]OC12C([H])=C([H])C([H])([H])C3(C(=O)[O-])C([H])([H])C4(Cl)C([H])([H])C([H])(C([H])([H])C1([H])C4([H])[H])C([H])([H])C23[H]

$$$$
101:0:1
     RDKit          3D

 37 40  0  0  1  0  0  0  0  0999 V2000
    8.7476   -3.4346    0.3721 O   0  0  0  0  0  0  0  0  0  0  0  0
    7.7127   -3.0628   -0.2284 C   0  0  0  0  0  0  0  0  0  0  0  0
    7.7290   -2.2564   -1.1834 O   0  0  0  0  0  0  0  0  0  0  0  0
    6.3281   -3.5919    0.2540 C   0  0  1  0  0  0  0  0  0  0  0  0
    6.5323   -5.0429    0.8028 C   0  0  0  0  0  0  0  0  0  0  0  0
    5.3396   -5.5458    1.5894 C   0  0  0  0  0  0  0  0  0  0  0  0
    4.4425   -4.7313    2.1586 C   0  0  0  0  0  0  0  0  0  0  0  0
    4.5150   -3.2089    2.0973 C   0  0  2  0  0  0  0  0  0  0  0  0
    4.5055   -2.7391    3.4288 O   0  0  0  0  0  0  0  0  0  0  0  0
    3.2540   -2.6098    1.4112 C   0  0  1  0  0  0  0  0  0  0  0  0
    3.3249   -1.0729    1.3236 C   0  0  0  0  0  0  0  0  0  0  0  0
    4.5446   -0.6891    0.4835 C   0  0  1  0  0  0  0  0  0  0  0  0
    5.8126   -1.1662    1.1932 C   0  0  0  0  0  0  0  0  0  0  0  0
    5.8426   -2.7009    1.4426 C   0  0  2  0  0  0  0  0  0  0  0  0
    4.4195   -1.2335   -0.9533 C   0  0  0  0  0  0  0  0  0  0  0  0
    4.0950   -2.7419   -1.0276 C   0  0  2  0  0  0  0  0  0  0  0  0
    3.3846   -3.0174   -2.6433 Cl  0  0  0  0  0  0  0  0  0  0  0  0
    3.0089   -3.1521   -0.0090 C   0  0  0  0  0  0  0  0  0  0  0  0
    5.3288   -3.6745   -0.9586 C   0  0  0  0  0  0  0  0  0  0  0  0
    6.7022   -5.7393   -0.0176 H   0  0  0  0  0  0  0  0  0  0  0  0
    7.3930   -5.1380    1.4683 H   0  0  0  0  0  0  0  0  0  0  0  0
    5.2653   -6.6201    1.6929 H   0  0  0  0  0  0  0  0  0  0  0  0
    3.6254   -5.1583    2.7234 H   0  0  0  0  0  0  0  0  0  0  0  0
    3.6689   -2.9629    3.8168 H   0  0  0  0  0  0  0  0  0  0  0  0
    2.3781   -2.8670    2.0123 H   0  0  0  0  0  0  0  0  0  0  0  0
    2.4134   -0.6727    0.8772 H   0  0  0  0  0  0  0  0  0  0  0  0
    3.3914   -0.6260    2.3156 H   0  0  0  0  0  0  0  0  0  0  0  0
    4.5847    0.3970    0.4308 H   0  0  0  0  0  0  0  0  0  0  0  0
    6.6866   -0.8040    0.6583 H   0  0  0  0  0  0  0  0  0  0  0  0
    5.8656   -0.6656    2.1595 H   0  0  0  0  0  0  0  0  0  0  0  0
    6.6141   -2.8360    2.1920 H   0  0  0  0  0  0  0  0  0  0  0  0
    3.6115   -0.6845   -1.4398 H   0  0  0  0  0  0  0  0  0  0  0  0
    5.3156   -1.0100   -1.5327 H   0  0  0  0  0  0  0  0  0  0  0  0
    2.8662   -4.2329    0.0025 H   0  0  0  0  0  0  0  0  0  0  0  0
    2.0567   -2.7467   -0.3441 H   0  0  0  0  0  0  0  0  0  0  0  0
    5.8736   -3.5867   -1.8999 H   0  0  0  0  0  0  0  0  0  0  0  0
    4.9302   -4.6879   -1.0178 H   0  0  0  0  0  0  0  0  0  0  0  0
  1  2  2  0
  2  3  1  0
  4  2  1  6
  4 14  1  0
  4 19  1  0
  4  5  1  0
  5  6  1  0
  5 20  1  0
  5 21  1  0
  6  7  2  0
  6 22  1  0
  7  8  1  0
  7 23  1  0
  8 14  1  0
  8  9  1  1
  8 10  1  0
  9 24  1  0
 10 18  1  0
 10 11  1  0
 10 25  1  1
 11 12  1  0
 11 26  1  0
 11 27  1  0
 12 13  1  0
 12 15  1  0
 12 28  1  6
 13 14  1  0
 13 29  1  0
 13 30  1  0
 14 31  1  1
 15 16  1  0
 15 32  1  0
 15 33  1  0
 16 17  1  6
 16 18  1  0
 16 19  1  0
 18 34  1  0
 18 35  1  0
 19 36  1  0
 19 37  1  0
M  CHG  1   3  -1
M  END
>  <i_m_ct_stereo_status>  (364) 
1

>  <s_m_source_file>  (364) 
/var/tmp/pbs.5076255.sched01/tmpfsvwwkaa/138cw1meju8.sdf

>  <i_m_source_file_index>  (364) 
15

>  <i_lp_mmshare_version>  (364) 
48012

>  <i_f3d_flags>  (364) 
0

>  <s_epik_input>  (364) 
Tz1DKFtPSF0pW0NAXTEyW0NAQEhdM1tDQF0oW09IXSkoW0NIXT1bQ0hdW0NIMl0xKVtDQEhdNFtDSDJdW0NAQEhdKFtDSDJdMylbQ0gyXVtDQF0oQ2wpKFtDSDJdNClbQ0gyXTI=

>  <s_epik_cmdline>  (364) 
J2VwaWtfcHl0aG9uJywgJy1waHQnLCAnMi4wJywgJy1waCcsICc3LjAnLCAnLXRuJywgJzgnLCAnLW1hJywgJzIwMCcsICctaW1hZScsICc8aW5maWxlLm1hZT4nLCAnLW9tYWUnLCAnPG91dGZpbGUubWFlPic=

>  <r_epik_Ionization_Penalty>  (364) 
0.00167728

>  <r_epik_Ionization_Penalty_Charging>  (364) 
0.00167667

>  <r_epik_Ionization_Penalty_Neutral>  (364) 
6.15585e-07

>  <r_epik_State_Penalty>  (364) 
0.00113175

>  <r_epik_Charging_Adjusted_Penalty>  (364) 
0.00280842

>  <i_epik_Tot_Q>  (364) 
-1

>  <i_epik_Tot_abs_Q>  (364) 
1

>  <s_lp_Force_Field>  (364) 
OPLS3e

>  <r_lp_Energy>  (364) 
32.3884

>  <b_lp_Chiralities_Consistent>  (364) 
1

>  <s_lp_Variant>  (364) 
101:0-1

>  <s_i_glide_gridfile>  (364) 
pfpi4k_grid

>  <i_i_glide_lignum>  (364) 
15

>  <i_i_glide_rotatable_bonds>  (364) 
2

>  <r_i_docking_score>  (364) 
-4.08683

>  <r_i_glide_ligand_efficiency>  (364) 
-0.215096

>  <r_i_glide_ligand_efficiency_sa>  (364) 
-0.573964

>  <r_i_glide_ligand_efficiency_ln>  (364) 
-1.0361

>  <r_i_glide_gscore>  (364) 
-4.08683

>  <r_i_glide_lipo>  (364) 
-0.66643

>  <r_i_glide_hbond>  (364) 
-0.2

>  <r_i_glide_metal>  (364) 
-0

>  <r_i_glide_rewards>  (364) 
-1.67206

>  <r_i_glide_evdw>  (364) 
-22.8588

>  <r_i_glide_ecoul>  (364) 
-2.70266

>  <r_i_glide_erotb>  (364) 
0

>  <r_i_glide_esite>  (364) 
0

>  <r_i_glide_emodel>  (364) 
-34.0138

>  <r_i_glide_energy>  (364) 
-25.5615

>  <r_i_glide_einternal>  (364) 
0.463138

>  <r_i_glide_intrahb_reward>  (364) 
-0

>  <i_i_glide_confnum>  (364) 
2

>  <i_i_glide_posenum>  (364) 
6

>  <r_i_glide_eff_state_penalty>  (364) 
0

>  <ligand_id>  (364) 
101

>  <original_smiles>  (364) 
O=C(O)C12CC=CC3(O)C4CC(CC13)CC(Cl)(C4)C2

>  <smiles>  (364) 
[H]OC12C([H])=C([H])C([H])([H])C3(C(=O)[O-])C([H])([H])C4(Cl)C([H])([H])C([H])(C([H])([H])C1([H])C4([H])[H])C([H])([H])C23[H]

$$$$
101:0:2
     RDKit          3D

 37 40  0  0  1  0  0  0  0  0999 V2000
    1.4808   -5.1920   -0.3189 O   0  0  0  0  0  0  0  0  0  0  0  0
    2.6277   -5.1135    0.1791 C   0  0  0  0  0  0  0  0  0  0  0  0
    3.1106   -6.0032    0.9149 O   0  0  0  0  0  0  0  0  0  0  0  0
    3.4845   -3.8274   -0.0772 C   0  0  1  0  0  0  0  0  0  0  0  0
    3.2945   -3.4224   -1.5713 C   0  0  0  0  0  0  0  0  0  0  0  0
    3.8011   -2.0285   -1.8757 C   0  0  0  0  0  0  0  0  0  0  0  0
    3.9599   -1.0857   -0.9281 C   0  0  0  0  0  0  0  0  0  0  0  0
    3.6170   -1.2890    0.5423 C   0  0  2  0  0  0  0  0  0  0  0  0
    2.6717   -0.2944    0.8846 O   0  0  0  0  0  0  0  0  0  0  0  0
    4.8706   -1.0685    1.4395 C   0  0  1  0  0  0  0  0  0  0  0  0
    4.5545   -1.3059    2.9261 C   0  0  0  0  0  0  0  0  0  0  0  0
    4.0856   -2.7537    3.1041 C   0  0  1  0  0  0  0  0  0  0  0  0
    2.7866   -2.9610    2.3264 C   0  0  0  0  0  0  0  0  0  0  0  0
    2.9223   -2.6663    0.8083 C   0  0  2  0  0  0  0  0  0  0  0  0
    5.1830   -3.7508    2.6924 C   0  0  0  0  0  0  0  0  0  0  0  0
    5.7945   -3.4767    1.2976 C   0  0  2  0  0  0  0  0  0  0  0  0
    7.3921   -4.2747    1.2525 Cl  0  0  0  0  0  0  0  0  0  0  0  0
    6.0635   -1.9698    1.0648 C   0  0  0  0  0  0  0  0  0  0  0  0
    5.0170   -4.1214    0.1285 C   0  0  0  0  0  0  0  0  0  0  0  0
    3.8429   -4.1156   -2.2140 H   0  0  0  0  0  0  0  0  0  0  0  0
    2.2489   -3.4463   -1.8896 H   0  0  0  0  0  0  0  0  0  0  0  0
    4.0057   -1.8100   -2.9138 H   0  0  0  0  0  0  0  0  0  0  0  0
    4.3089   -0.1060   -1.2157 H   0  0  0  0  0  0  0  0  0  0  0  0
    1.9195   -0.4283    0.3011 H   0  0  0  0  0  0  0  0  0  0  0  0
    5.1884   -0.0299    1.3175 H   0  0  0  0  0  0  0  0  0  0  0  0
    5.4372   -1.1147    3.5345 H   0  0  0  0  0  0  0  0  0  0  0  0
    3.7902   -0.6098    3.2716 H   0  0  0  0  0  0  0  0  0  0  0  0
    3.8701   -2.9141    4.1592 H   0  0  0  0  0  0  0  0  0  0  0  0
    2.3990   -3.9570    2.5272 H   0  0  0  0  0  0  0  0  0  0  0  0
    2.0367   -2.2838    2.7358 H   0  0  0  0  0  0  0  0  0  0  0  0
    1.8891   -2.5621    0.4729 H   0  0  0  0  0  0  0  0  0  0  0  0
    5.9616   -3.6737    3.4445 H   0  0  0  0  0  0  0  0  0  0  0  0
    4.8215   -4.7787    2.7568 H   0  0  0  0  0  0  0  0  0  0  0  0
    6.3815   -1.7867    0.0386 H   0  0  0  0  0  0  0  0  0  0  0  0
    6.9051   -1.6578    1.6811 H   0  0  0  0  0  0  0  0  0  0  0  0
    5.1919   -5.1971    0.1634 H   0  0  0  0  0  0  0  0  0  0  0  0
    5.5586   -3.8397   -0.7744 H   0  0  0  0  0  0  0  0  0  0  0  0
  1  2  2  0
  2  3  1  0
  4  2  1  6
  4 14  1  0
  4 19  1  0
  4  5  1  0
  5  6  1  0
  5 20  1  0
  5 21  1  0
  6  7  2  0
  6 22  1  0
  7  8  1  0
  7 23  1  0
  8 14  1  0
  8  9  1  1
  8 10  1  0
  9 24  1  0
 10 18  1  0
 10 11  1  0
 10 25  1  1
 11 12  1  0
 11 26  1  0
 11 27  1  0
 12 13  1  0
 12 15  1  0
 12 28  1  1
 13 14  1  0
 13 29  1  0
 13 30  1  0
 14 31  1  6
 15 16  1  0
 15 32  1  0
 15 33  1  0
 16 17  1  1
 16 18  1  0
 16 19  1  0
 18 34  1  0
 18 35  1  0
 19 36  1  0
 19 37  1  0
M  CHG  1   3  -1
M  END
>  <i_m_ct_stereo_status>  (365) 
1

>  <s_m_source_file>  (365) 
/var/tmp/pbs.5076255.sched01/tmpfsvwwkaa/138cw1meju8.sdf

>  <i_m_source_file_index>  (365) 
15

>  <i_lp_mmshare_version>  (365) 
48012

>  <i_f3d_flags>  (365) 
0

>  <s_epik_input>  (365) 
Tz1DKFtPSF0pW0NAXTEyW0NAQEhdM1tDQF0oW09IXSkoW0NIXT1bQ0hdW0NIMl0xKVtDQEhdNFtDSDJdW0NAQEhdKFtDSDJdMylbQ0gyXVtDQF0oQ2wpKFtDSDJdNClbQ0gyXTI=

>  <s_epik_cmdline>  (365) 
J2VwaWtfcHl0aG9uJywgJy1waHQnLCAnMi4wJywgJy1waCcsICc3LjAnLCAnLXRuJywgJzgnLCAnLW1hJywgJzIwMCcsICctaW1hZScsICc8aW5maWxlLm1hZT4nLCAnLW9tYWUnLCAnPG91dGZpbGUubWFlPic=

>  <r_epik_Ionization_Penalty>  (365) 
0.00167728

>  <r_epik_Ionization_Penalty_Charging>  (365) 
0.00167667

>  <r_epik_Ionization_Penalty_Neutral>  (365) 
6.15585e-07

>  <r_epik_State_Penalty>  (365) 
0.00113175

>  <r_epik_Charging_Adjusted_Penalty>  (365) 
0.00280842

>  <i_epik_Tot_Q>  (365) 
-1

>  <i_epik_Tot_abs_Q>  (365) 
1

>  <s_lp_Force_Field>  (365) 
OPLS3e

>  <r_lp_Energy>  (365) 
32.3884

>  <b_lp_Chiralities_Consistent>  (365) 
1

>  <s_lp_Variant>  (365) 
101:0-1

>  <s_i_glide_gridfile>  (365) 
pfpi4k_grid

>  <i_i_glide_lignum>  (365) 
15

>  <i_i_glide_rotatable_bonds>  (365) 
2

>  <r_i_docking_score>  (365) 
-3.99168

>  <r_i_glide_ligand_efficiency>  (365) 
-0.210089

>  <r_i_glide_ligand_efficiency_sa>  (365) 
-0.560601

>  <r_i_glide_ligand_efficiency_ln>  (365) 
-1.01198

>  <r_i_glide_gscore>  (365) 
-3.99168

>  <r_i_glide_lipo>  (365) 
-0.625903

>  <r_i_glide_hbond>  (365) 
-0.257879

>  <r_i_glide_metal>  (365) 
-0

>  <r_i_glide_rewards>  (365) 
-1.48804

>  <r_i_glide_evdw>  (365) 
-15.2708

>  <r_i_glide_ecoul>  (365) 
-5.36404

>  <r_i_glide_erotb>  (365) 
0

>  <r_i_glide_esite>  (365) 
-0.0517148

>  <r_i_glide_emodel>  (365) 
-29.0477

>  <r_i_glide_energy>  (365) 
-20.6349

>  <r_i_glide_einternal>  (365) 
0.13467

>  <r_i_glide_intrahb_reward>  (365) 
-0

>  <i_i_glide_confnum>  (365) 
2

>  <i_i_glide_posenum>  (365) 
1

>  <r_i_glide_eff_state_penalty>  (365) 
0

>  <ligand_id>  (365) 
101

>  <original_smiles>  (365) 
O=C(O)C12CC=CC3(O)C4CC(CC13)CC(Cl)(C4)C2

>  <smiles>  (365) 
[H]OC12C([H])=C([H])C([H])([H])C3(C(=O)[O-])C([H])([H])C4(Cl)C([H])([H])C([H])(C([H])([H])C1([H])C4([H])[H])C([H])([H])C23[H]

$$$$
103:0:0
     RDKit          3D

 67 73  0  0  1  0  0  0  0  0999 V2000
    1.1085   -3.1983    5.1915 C   0  0  0  0  0  0  0  0  0  0  0  0
    2.1793   -4.0820    4.8597 O   0  0  0  0  0  0  0  0  0  0  0  0
    2.7830   -3.9329    3.5768 C   0  0  1  0  0  0  0  0  0  0  0  0
    3.5400   -2.3510    3.4650 C   0  0  0  0  0  0  0  0  0  0  0  0
    4.8402   -1.9929    2.2946 C   0  0  1  0  0  0  0  0  0  0  0  0
    5.7995   -2.9456    2.7662 C   0  0  2  0  0  0  0  0  0  0  0  0
    6.9348   -2.9889    1.6834 C   0  0  0  0  0  0  0  0  0  0  0  0
    6.2296   -3.4780    0.4103 C   0  0  1  0  0  0  0  0  0  0  0  0
    6.0921   -5.1788    0.3666 C   0  0  1  0  0  0  0  0  0  0  0  0
    7.4091   -5.6920    0.5353 O   0  0  0  0  0  0  0  0  0  0  0  0
    5.0532   -6.3096    1.1656 C   0  0  1  0  0  0  0  0  0  0  0  0
    4.3949   -6.3660    2.7665 C   0  0  0  0  0  0  0  0  0  0  0  0
    4.0768   -4.9255    3.5680 C   0  0  1  0  0  0  0  0  0  0  0  0
    5.0043   -4.2235    2.6666 C   0  0  2  0  0  0  0  0  0  0  0  0
    6.2723   -4.9914    2.9406 O   0  0  0  0  0  0  0  0  0  0  0  0
    6.8152   -5.3460    4.2470 C   0  0  0  0  0  0  0  0  0  0  0  0
    3.8389   -4.0739    1.3577 C   0  0  1  0  0  0  0  0  0  0  0  0
    3.0315   -2.6110    0.6639 C   0  0  1  0  0  0  0  0  0  0  0  0
    2.7985   -1.1996    0.9264 O   0  0  0  0  0  0  0  0  0  0  0  0
    3.7003   -2.7442   -0.5357 C   0  0  2  0  0  0  0  0  0  0  0  0
    3.4433   -1.8124   -1.8203 C   0  0  2  0  0  0  0  0  0  0  0  0
    3.3307   -2.5689   -3.1492 C   0  0  0  0  0  0  0  0  0  0  0  0
    4.2956   -0.7192   -2.1038 O   0  0  0  0  0  0  0  0  0  0  0  0
    2.4440   -3.9265   -0.6034 C   0  0  0  0  0  0  0  0  0  0  0  0
    1.8456   -4.8102    0.7523 C   0  0  2  0  0  0  0  0  0  0  0  0
    1.0808   -5.9457    0.3698 O   0  0  0  0  0  0  0  0  0  0  0  0
    1.5559   -4.3971    2.4265 C   0  0  0  0  0  0  0  0  0  0  0  0
    3.0853   -5.3061    1.0528 N   0  0  1  0  0  0  0  0  0  0  0  0
    3.8090   -6.3598    0.3601 C   0  0  0  0  0  0  0  0  0  0  0  0
    5.0633   -2.3364    0.5116 C   0  0  1  0  0  0  0  0  0  0  0  0
    5.7149   -1.1429    0.0981 O   0  0  0  0  0  0  0  0  0  0  0  0
    0.7136   -3.4829    6.1651 H   0  0  0  0  0  0  0  0  0  0  0  0
    0.2500   -3.2373    4.5211 H   0  0  0  0  0  0  0  0  0  0  0  0
    1.4385   -2.1626    5.2602 H   0  0  0  0  0  0  0  0  0  0  0  0
    2.7598   -1.5942    3.3852 H   0  0  0  0  0  0  0  0  0  0  0  0
    3.9497   -2.1416    4.4566 H   0  0  0  0  0  0  0  0  0  0  0  0
    5.1692   -0.9695    2.4803 H   0  0  0  0  0  0  0  0  0  0  0  0
    6.1447   -2.6943    3.7600 H   0  0  0  0  0  0  0  0  0  0  0  0
    7.3585   -1.9998    1.5071 H   0  0  0  0  0  0  0  0  0  0  0  0
    7.7875   -3.6247    1.8176 H   0  0  0  0  0  0  0  0  0  0  0  0
    6.8644   -3.2214   -0.4383 H   0  0  0  0  0  0  0  0  0  0  0  0
    5.8782   -5.3310   -0.6861 H   0  0  0  0  0  0  0  0  0  0  0  0
    7.6410   -5.6529    1.4539 H   0  0  0  0  0  0  0  0  0  0  0  0
    5.5461   -7.2671    1.0294 H   0  0  0  0  0  0  0  0  0  0  0  0
    3.4975   -6.9911    2.8222 H   0  0  0  0  0  0  0  0  0  0  0  0
    5.0649   -7.0188    3.3260 H   0  0  0  0  0  0  0  0  0  0  0  0
    4.4235   -4.9389    4.5932 H   0  0  0  0  0  0  0  0  0  0  0  0
    7.8510   -5.6600    4.1056 H   0  0  0  0  0  0  0  0  0  0  0  0
    6.3397   -6.1908    4.7455 H   0  0  0  0  0  0  0  0  0  0  0  0
    6.7929   -4.5274    4.9652 H   0  0  0  0  0  0  0  0  0  0  0  0
    3.2033   -3.3367    1.6211 H   0  0  0  0  0  0  0  0  0  0  0  0
    1.9109   -2.4604    0.7312 H   0  0  0  0  0  0  0  0  0  0  0  0
    2.0515   -0.9399    0.3852 H   0  0  0  0  0  0  0  0  0  0  0  0
    2.5035   -1.3318   -1.7404 H   0  0  0  0  0  0  0  0  0  0  0  0
    2.5241   -3.3022   -3.1735 H   0  0  0  0  0  0  0  0  0  0  0  0
    4.2762   -3.0669   -3.3511 H   0  0  0  0  0  0  0  0  0  0  0  0
    3.0846   -1.8764   -3.9576 H   0  0  0  0  0  0  0  0  0  0  0  0
    4.1414   -0.0514   -1.4515 H   0  0  0  0  0  0  0  0  0  0  0  0
    1.5818   -3.5015   -1.1147 H   0  0  0  0  0  0  0  0  0  0  0  0
    2.8248   -4.6590   -1.2967 H   0  0  0  0  0  0  0  0  0  0  0  0
    1.5703   -6.7685    0.3850 H   0  0  0  0  0  0  0  0  0  0  0  0
    1.0609   -5.2712    2.8566 H   0  0  0  0  0  0  0  0  0  0  0  0
    0.8366   -3.5961    2.4858 H   0  0  0  0  0  0  0  0  0  0  0  0
    3.9923   -6.2508   -0.7043 H   0  0  0  0  0  0  0  0  0  0  0  0
    3.3398   -7.3235    0.5242 H   0  0  0  0  0  0  0  0  0  0  0  0
    5.0650   -0.4585    0.1102 H   0  0  0  0  0  0  0  0  0  0  0  0
    2.9563   -5.7172    1.9714 H   0  0  0  0  0  0  0  0  0  0  0  0
  1  2  1  0
  1 32  1  0
  1 33  1  0
  1 34  1  0
  3  2  1  1
  3 13  1  0
  3 27  1  0
  3  4  1  0
  4  5  1  0
  4 35  1  0
  4 36  1  0
  5 30  1  0
  5  6  1  0
  5 37  1  6
  6 14  1  0
  6  7  1  0
  6 38  1  1
  7  8  1  0
  7 39  1  0
  7 40  1  0
  8 30  1  0
  8  9  1  0
  8 41  1  6
  9 10  1  0
  9 11  1  0
  9 42  1  6
 10 43  1  0
 11 29  1  0
 11 12  1  0
 11 44  1  6
 12 13  1  0
 12 45  1  0
 12 46  1  0
 13 14  1  0
 13 47  1  1
 14 15  1  6
 14 17  1  0
 15 16  1  0
 16 48  1  0
 16 49  1  0
 16 50  1  0
 17 28  1  0
 17 18  1  0
 17 51  1  6
 18 19  1  0
 18 20  1  0
 18 52  1  6
 19 53  1  0
 20 21  1  0
 20 24  1  6
 20 30  1  0
 21 22  1  0
 21 23  1  0
 21 54  1  1
 22 55  1  0
 22 56  1  0
 22 57  1  0
 23 58  1  0
 24 25  1  0
 24 59  1  0
 24 60  1  0
 25 26  1  6
 25 27  1  0
 25 28  1  0
 26 61  1  0
 27 62  1  0
 27 63  1  0
 28 29  1  0
 28 67  1  1
 29 64  1  0
 29 65  1  0
 30 31  1  6
 31 66  1  0
M  CHG  1  28   1
M  END
>  <i_m_ct_stereo_status>  (366) 
1

>  <s_m_source_file>  (366) 
/var/tmp/pbs.5076255.sched01/tmpfsvwwkaa/138cw1meju8.sdf

>  <i_m_source_file_index>  (366) 
17

>  <i_lp_mmshare_version>  (366) 
48012

>  <i_f3d_flags>  (366) 
0

>  <s_epik_input>  (366) 
W0NIM11PW0NAXTEyW0NAQEhdM0M0KE9bQ0gzXSlbQ0BASF01W0NASF0oW0NIMl0xKVtDQEBdNihbT0hdKVtDQEBIXShbQ0gyXTUpW0NAQEhdKFtPSF0pW0NAQEhdKFtDSDJdMylbQ0gyXU43W0NIXTRbQ0BASF0oW09IXSlbQ0BdNihbQ0BIXShbQ0gzXSlbT0hdKVtDSDJdW0NAXTcoW09IXSlbQ0gyXTI=

>  <s_epik_cmdline>  (366) 
J2VwaWtfcHl0aG9uJywgJy1waHQnLCAnMi4wJywgJy1waCcsICc3LjAnLCAnLXRuJywgJzgnLCAnLW1hJywgJzIwMCcsICctaW1hZScsICc8aW5maWxlLm1hZT4nLCAnLW9tYWUnLCAnPG91dGZpbGUubWFlPic=

>  <r_epik_Ionization_Penalty>  (366) 
0.0252734

>  <r_epik_Ionization_Penalty_Charging>  (366) 
0.019034

>  <r_epik_Ionization_Penalty_Neutral>  (366) 
0.00623935

>  <r_epik_State_Penalty>  (366) 
0.0196684

>  <r_epik_Charging_Adjusted_Penalty>  (366) 
0.0387025

>  <i_epik_Tot_Q>  (366) 
1

>  <i_epik_Tot_abs_Q>  (366) 
1

>  <s_lp_Force_Field>  (366) 
OPLS3e

>  <r_lp_Energy>  (366) 
847.299

>  <b_lp_Chiralities_Consistent>  (366) 
1

>  <s_lp_Variant>  (366) 
103:0-1

>  <s_i_glide_gridfile>  (366) 
pfpi4k_grid

>  <i_i_glide_lignum>  (366) 
17

>  <i_i_glide_rotatable_bonds>  (366) 
8

>  <r_i_docking_score>  (366) 
-3.89233

>  <r_i_glide_ligand_efficiency>  (366) 
-0.125559

>  <r_i_glide_ligand_efficiency_sa>  (366) 
-0.394428

>  <r_i_glide_ligand_efficiency_ln>  (366) 
-0.877839

>  <r_i_glide_gscore>  (366) 
-3.89233

>  <r_i_glide_lipo>  (366) 
-0.633135

>  <r_i_glide_hbond>  (366) 
-0.193551

>  <r_i_glide_metal>  (366) 
-0

>  <r_i_glide_rewards>  (366) 
-0.919083

>  <r_i_glide_evdw>  (366) 
-1.89897

>  <r_i_glide_ecoul>  (366) 
-13.9031

>  <r_i_glide_erotb>  (366) 
0.103741

>  <r_i_glide_esite>  (366) 
-0.0698905

>  <r_i_glide_emodel>  (366) 
-12.5065

>  <r_i_glide_energy>  (366) 
-15.802

>  <r_i_glide_einternal>  (366) 
11.7131

>  <r_i_glide_intrahb_reward>  (366) 
-0.5

>  <i_i_glide_confnum>  (366) 
2

>  <i_i_glide_posenum>  (366) 
29

>  <r_i_glide_eff_state_penalty>  (366) 
0

>  <ligand_id>  (366) 
103

>  <original_smiles>  (366) 
COC12CC3C4CC5C(O)C6CC1C4(OC)C1C(O)C(C(C)O)(CC(O)(C2)N1C6)C53O

>  <smiles>  (366) 
[H]OC1([H])C2([H])C([H])([H])C3([H])C4([H])C([H])([H])C5(OC([H])([H])[H])C([H])([H])C6(O[H])C([H])([H])C(C([H])(O[H])C([H])([H])[H])(C([H])(O[H])C7([H])C3(OC([H])([H])[H])C5([H])C([H])([H])C1([H])C([H])([H])[N+]76[H])C24O[H]

$$$$
103:0:1
     RDKit          3D

 67 73  0  0  1  0  0  0  0  0999 V2000
    1.3990   -2.9540    4.8853 C   0  0  0  0  0  0  0  0  0  0  0  0
    2.4518   -3.8417    4.5215 O   0  0  0  0  0  0  0  0  0  0  0  0
    3.0489   -3.6574    3.2323 C   0  0  1  0  0  0  0  0  0  0  0  0
    3.8408   -2.0845    3.1670 C   0  0  0  0  0  0  0  0  0  0  0  0
    5.1485   -1.7027    1.9870 C   0  0  1  0  0  0  0  0  0  0  0  0
    6.0783   -2.6993    2.4307 C   0  0  2  0  0  0  0  0  0  0  0  0
    7.2294   -2.7292    1.3456 C   0  0  0  0  0  0  0  0  0  0  0  0
    6.5284   -3.1613    0.0757 C   0  0  1  0  0  0  0  0  0  0  0  0
    6.3531   -4.8641    0.0254 C   0  0  1  0  0  0  0  0  0  0  0  0
    7.6763   -5.3708    0.1665 O   0  0  0  0  0  0  0  0  0  0  0  0
    5.3228   -6.0294    0.8032 C   0  0  1  0  0  0  0  0  0  0  0  0
    4.6470   -6.1249    2.4082 C   0  0  0  0  0  0  0  0  0  0  0  0
    4.3321   -4.6813    3.2202 C   0  0  1  0  0  0  0  0  0  0  0  0
    5.2744   -3.9758    2.3342 C   0  0  2  0  0  0  0  0  0  0  0  0
    6.5429   -4.7489    2.5997 O   0  0  0  0  0  0  0  0  0  0  0  0
    7.0104   -5.3339    3.8751 C   0  0  0  0  0  0  0  0  0  0  0  0
    4.1307   -3.7739    1.0111 C   0  0  1  0  0  0  0  0  0  0  0  0
    3.3288   -2.2754    0.3806 C   0  0  1  0  0  0  0  0  0  0  0  0
    3.0831   -0.8785    0.7252 O   0  0  0  0  0  0  0  0  0  0  0  0
    3.9741   -2.3538   -0.8423 C   0  0  2  0  0  0  0  0  0  0  0  0
    3.6447   -1.3677   -2.0386 C   0  0  2  0  0  0  0  0  0  0  0  0
    3.5741   -2.1119   -3.3936 C   0  0  0  0  0  0  0  0  0  0  0  0
    4.5788   -0.3404   -2.3188 O   0  0  0  0  0  0  0  0  0  0  0  0
    2.7535   -3.5813   -0.9714 C   0  0  0  0  0  0  0  0  0  0  0  0
    2.1390   -4.4582    0.3786 C   0  0  2  0  0  0  0  0  0  0  0  0
    1.4390   -5.6427   -0.0141 O   0  0  0  0  0  0  0  0  0  0  0  0
    1.8234   -4.0604    2.0554 C   0  0  0  0  0  0  0  0  0  0  0  0
    3.3734   -4.9762    0.6873 N   0  0  1  0  0  0  0  0  0  0  0  0
    4.0781   -6.0413   -0.0164 C   0  0  0  0  0  0  0  0  0  0  0  0
    5.3630   -1.9986    0.1861 C   0  0  1  0  0  0  0  0  0  0  0  0
    5.9969   -0.8010   -0.2436 O   0  0  0  0  0  0  0  0  0  0  0  0
    1.0052   -3.2617    5.8541 H   0  0  0  0  0  0  0  0  0  0  0  0
    0.5581   -2.9734    4.1950 H   0  0  0  0  0  0  0  0  0  0  0  0
    1.7451   -1.9274    4.9905 H   0  0  0  0  0  0  0  0  0  0  0  0
    3.0703   -1.3074    3.1353 H   0  0  0  0  0  0  0  0  0  0  0  0
    4.2680   -1.9232    4.1636 H   0  0  0  0  0  0  0  0  0  0  0  0
    5.5144   -0.7053    2.2258 H   0  0  0  0  0  0  0  0  0  0  0  0
    6.2067   -2.4058    3.4603 H   0  0  0  0  0  0  0  0  0  0  0  0
    7.6919   -1.7409    1.2317 H   0  0  0  0  0  0  0  0  0  0  0  0
    8.0689   -3.4010    1.5493 H   0  0  0  0  0  0  0  0  0  0  0  0
    7.1654   -2.9103   -0.7746 H   0  0  0  0  0  0  0  0  0  0  0  0
    6.0799   -4.9320   -1.0163 H   0  0  0  0  0  0  0  0  0  0  0  0
    7.6984   -6.2770   -0.0850 H   0  0  0  0  0  0  0  0  0  0  0  0
    5.7969   -6.9951    0.6351 H   0  0  0  0  0  0  0  0  0  0  0  0
    3.7161   -6.7090    2.4184 H   0  0  0  0  0  0  0  0  0  0  0  0
    5.2849   -6.7856    2.9355 H   0  0  0  0  0  0  0  0  0  0  0  0
    4.6861   -4.7160    4.2393 H   0  0  0  0  0  0  0  0  0  0  0  0
    8.0560   -5.5616    3.7374 H   0  0  0  0  0  0  0  0  0  0  0  0
    6.5227   -6.2353    4.2097 H   0  0  0  0  0  0  0  0  0  0  0  0
    6.9406   -4.6451    4.7163 H   0  0  0  0  0  0  0  0  0  0  0  0
    3.5171   -3.0426    1.3093 H   0  0  0  0  0  0  0  0  0  0  0  0
    2.2141   -2.1284    0.4380 H   0  0  0  0  0  0  0  0  0  0  0  0
    2.2876   -0.6148    0.2667 H   0  0  0  0  0  0  0  0  0  0  0  0
    2.6710   -0.9008   -1.8685 H   0  0  0  0  0  0  0  0  0  0  0  0
    2.7804   -2.8588   -3.4232 H   0  0  0  0  0  0  0  0  0  0  0  0
    4.5189   -2.6180   -3.6034 H   0  0  0  0  0  0  0  0  0  0  0  0
    3.3598   -1.4202   -4.2124 H   0  0  0  0  0  0  0  0  0  0  0  0
    4.5598    0.3096   -1.6103 H   0  0  0  0  0  0  0  0  0  0  0  0
    1.8700   -3.1207   -1.4375 H   0  0  0  0  0  0  0  0  0  0  0  0
    3.1150   -4.2495   -1.7318 H   0  0  0  0  0  0  0  0  0  0  0  0
    1.6273   -5.7361   -0.9235 H   0  0  0  0  0  0  0  0  0  0  0  0
    1.3033   -4.9268    2.4698 H   0  0  0  0  0  0  0  0  0  0  0  0
    1.1195   -3.2214    2.1012 H   0  0  0  0  0  0  0  0  0  0  0  0
    4.2620   -5.8843   -1.0755 H   0  0  0  0  0  0  0  0  0  0  0  0
    3.5579   -6.9885    0.1175 H   0  0  0  0  0  0  0  0  0  0  0  0
    5.3858   -0.0925   -0.0719 H   0  0  0  0  0  0  0  0  0  0  0  0
    3.1843   -5.4065    1.5836 H   0  0  0  0  0  0  0  0  0  0  0  0
  1  2  1  0
  1 32  1  0
  1 33  1  0
  1 34  1  0
  3  2  1  1
  3 13  1  0
  3 27  1  0
  3  4  1  0
  4  5  1  0
  4 35  1  0
  4 36  1  0
  5 30  1  0
  5  6  1  0
  5 37  1  6
  6 14  1  0
  6  7  1  0
  6 38  1  1
  7  8  1  0
  7 39  1  0
  7 40  1  0
  8 30  1  0
  8  9  1  0
  8 41  1  6
  9 10  1  0
  9 11  1  0
  9 42  1  6
 10 43  1  0
 11 29  1  0
 11 12  1  0
 11 44  1  6
 12 13  1  0
 12 45  1  0
 12 46  1  0
 13 14  1  0
 13 47  1  1
 14 15  1  6
 14 17  1  0
 15 16  1  0
 16 48  1  0
 16 49  1  0
 16 50  1  0
 17 28  1  0
 17 18  1  0
 17 51  1  6
 18 19  1  0
 18 20  1  0
 18 52  1  6
 19 53  1  0
 20 21  1  0
 20 24  1  6
 20 30  1  0
 21 22  1  0
 21 23  1  0
 21 54  1  1
 22 55  1  0
 22 56  1  0
 22 57  1  0
 23 58  1  0
 24 25  1  0
 24 59  1  0
 24 60  1  0
 25 26  1  6
 25 27  1  0
 25 28  1  0
 26 61  1  0
 27 62  1  0
 27 63  1  0
 28 29  1  0
 28 67  1  1
 29 64  1  0
 29 65  1  0
 30 31  1  6
 31 66  1  0
M  CHG  1  28   1
M  END
>  <i_m_ct_stereo_status>  (367) 
1

>  <s_m_source_file>  (367) 
/var/tmp/pbs.5076255.sched01/tmpfsvwwkaa/138cw1meju8.sdf

>  <i_m_source_file_index>  (367) 
17

>  <i_lp_mmshare_version>  (367) 
48012

>  <i_f3d_flags>  (367) 
0

>  <s_epik_input>  (367) 
W0NIM11PW0NAXTEyW0NAQEhdM0M0KE9bQ0gzXSlbQ0BASF01W0NASF0oW0NIMl0xKVtDQEBdNihbT0hdKVtDQEBIXShbQ0gyXTUpW0NAQEhdKFtPSF0pW0NAQEhdKFtDSDJdMylbQ0gyXU43W0NIXTRbQ0BASF0oW09IXSlbQ0BdNihbQ0BIXShbQ0gzXSlbT0hdKVtDSDJdW0NAXTcoW09IXSlbQ0gyXTI=

>  <s_epik_cmdline>  (367) 
J2VwaWtfcHl0aG9uJywgJy1waHQnLCAnMi4wJywgJy1waCcsICc3LjAnLCAnLXRuJywgJzgnLCAnLW1hJywgJzIwMCcsICctaW1hZScsICc8aW5maWxlLm1hZT4nLCAnLW9tYWUnLCAnPG91dGZpbGUubWFlPic=

>  <r_epik_Ionization_Penalty>  (367) 
0.0252734

>  <r_epik_Ionization_Penalty_Charging>  (367) 
0.019034

>  <r_epik_Ionization_Penalty_Neutral>  (367) 
0.00623935

>  <r_epik_State_Penalty>  (367) 
0.0196684

>  <r_epik_Charging_Adjusted_Penalty>  (367) 
0.0387025

>  <i_epik_Tot_Q>  (367) 
1

>  <i_epik_Tot_abs_Q>  (367) 
1

>  <s_lp_Force_Field>  (367) 
OPLS3e

>  <r_lp_Energy>  (367) 
847.299

>  <b_lp_Chiralities_Consistent>  (367) 
1

>  <s_lp_Variant>  (367) 
103:0-1

>  <s_i_glide_gridfile>  (367) 
pfpi4k_grid

>  <i_i_glide_lignum>  (367) 
17

>  <i_i_glide_rotatable_bonds>  (367) 
8

>  <r_i_docking_score>  (367) 
-3.18062

>  <r_i_glide_ligand_efficiency>  (367) 
-0.102601

>  <r_i_glide_ligand_efficiency_sa>  (367) 
-0.322308

>  <r_i_glide_ligand_efficiency_ln>  (367) 
-0.717327

>  <r_i_glide_gscore>  (367) 
-3.18062

>  <r_i_glide_lipo>  (367) 
-0.620117

>  <r_i_glide_hbond>  (367) 
-0.387813

>  <r_i_glide_metal>  (367) 
-0

>  <r_i_glide_rewards>  (367) 
-0.419083

>  <r_i_glide_evdw>  (367) 
5.62483

>  <r_i_glide_ecoul>  (367) 
-15.0817

>  <r_i_glide_erotb>  (367) 
0.103741

>  <r_i_glide_esite>  (367) 
-0.0663678

>  <r_i_glide_emodel>  (367) 
3.40303

>  <r_i_glide_energy>  (367) 
-9.45686

>  <r_i_glide_einternal>  (367) 
16.2363

>  <r_i_glide_intrahb_reward>  (367) 
-0

>  <i_i_glide_confnum>  (367) 
1

>  <i_i_glide_posenum>  (367) 
35

>  <r_i_glide_eff_state_penalty>  (367) 
0

>  <ligand_id>  (367) 
103

>  <original_smiles>  (367) 
COC12CC3C4CC5C(O)C6CC1C4(OC)C1C(O)C(C(C)O)(CC(O)(C2)N1C6)C53O

>  <smiles>  (367) 
[H]OC1([H])C2([H])C([H])([H])C3([H])C4([H])C([H])([H])C5(OC([H])([H])[H])C([H])([H])C6(O[H])C([H])([H])C(C([H])(O[H])C([H])([H])[H])(C([H])(O[H])C7([H])C3(OC([H])([H])[H])C5([H])C([H])([H])C1([H])C([H])([H])[N+]76[H])C24O[H]

$$$$
103:0:2
     RDKit          3D

 67 73  0  0  1  0  0  0  0  0999 V2000
    1.3335   -2.2805    4.5359 C   0  0  0  0  0  0  0  0  0  0  0  0
    2.2990   -3.3176    4.3797 O   0  0  0  0  0  0  0  0  0  0  0  0
    3.0108   -3.3727    3.1443 C   0  0  1  0  0  0  0  0  0  0  0  0
    3.9476   -1.8948    2.9150 C   0  0  0  0  0  0  0  0  0  0  0  0
    5.3515   -1.7979    1.7819 C   0  0  1  0  0  0  0  0  0  0  0  0
    6.1541   -2.7959    2.4234 C   0  0  2  0  0  0  0  0  0  0  0  0
    7.3433   -3.0715    1.4195 C   0  0  0  0  0  0  0  0  0  0  0  0
    6.6730   -3.6299    0.1655 C   0  0  1  0  0  0  0  0  0  0  0  0
    6.3400   -5.3111    0.3147 C   0  0  1  0  0  0  0  0  0  0  0  0
    7.5886   -5.9313    0.5594 O   0  0  0  0  0  0  0  0  0  0  0  0
    5.1627   -6.2645    1.1834 C   0  0  1  0  0  0  0  0  0  0  0  0
    4.3875   -6.0480    2.7278 C   0  0  0  0  0  0  0  0  0  0  0  0
    4.1812   -4.4988    3.3393 C   0  0  1  0  0  0  0  0  0  0  0  0
    5.2355   -4.0047    2.4208 C   0  0  2  0  0  0  0  0  0  0  0  0
    6.4093   -4.8443    2.8674 O   0  0  0  0  0  0  0  0  0  0  0  0
    6.7572   -5.1362    4.2494 C   0  0  0  0  0  0  0  0  0  0  0  0
    4.2007   -3.8877    1.0188 C   0  0  1  0  0  0  0  0  0  0  0  0
    3.5582   -2.4055    0.1548 C   0  0  1  0  0  0  0  0  0  0  0  0
    3.4268   -0.9716    0.3535 O   0  0  0  0  0  0  0  0  0  0  0  0
    4.2327   -2.7002   -1.0070 C   0  0  2  0  0  0  0  0  0  0  0  0
    4.1427   -1.8483   -2.3438 C   0  0  2  0  0  0  0  0  0  0  0  0
    2.7986   -1.1755   -2.6153 C   0  0  0  0  0  0  0  0  0  0  0  0
    4.4529   -2.6646   -3.4562 O   0  0  0  0  0  0  0  0  0  0  0  0
    2.9739   -3.8451   -1.0646 C   0  0  0  0  0  0  0  0  0  0  0  0
    2.1919   -4.4691    0.3386 C   0  0  2  0  0  0  0  0  0  0  0  0
    1.3992   -5.5806    0.0085 O   0  0  0  0  0  0  0  0  0  0  0  0
    1.8309   -3.8163    1.9406 C   0  0  0  0  0  0  0  0  0  0  0  0
    3.3303   -5.0435    0.7950 N   0  0  1  0  0  0  0  0  0  0  0  0
    3.9646   -6.2669    0.2889 C   0  0  0  0  0  0  0  0  0  0  0  0
    5.6167   -2.3574    0.0390 C   0  0  1  0  0  0  0  0  0  0  0  0
    6.3542   -1.3000   -0.5376 O   0  0  0  0  0  0  0  0  0  0  0  0
    0.8479   -2.4164    5.4998 H   0  0  0  0  0  0  0  0  0  0  0  0
    0.5388   -2.2945    3.7908 H   0  0  0  0  0  0  0  0  0  0  0  0
    1.7897   -1.2922    4.5431 H   0  0  0  0  0  0  0  0  0  0  0  0
    3.2500   -1.0737    2.7303 H   0  0  0  0  0  0  0  0  0  0  0  0
    4.3287   -1.6335    3.9095 H   0  0  0  0  0  0  0  0  0  0  0  0
    5.8139   -0.8083    1.9007 H   0  0  0  0  0  0  0  0  0  0  0  0
    6.2842   -2.3890    3.4132 H   0  0  0  0  0  0  0  0  0  0  0  0
    7.8604   -2.1437    1.1795 H   0  0  0  0  0  0  0  0  0  0  0  0
    8.1224   -3.7591    1.7297 H   0  0  0  0  0  0  0  0  0  0  0  0
    7.3872   -3.5529   -0.6674 H   0  0  0  0  0  0  0  0  0  0  0  0
    6.1461   -5.5499   -0.7058 H   0  0  0  0  0  0  0  0  0  0  0  0
    7.8140   -5.8073    1.4761 H   0  0  0  0  0  0  0  0  0  0  0  0
    5.5504   -7.2905    1.1718 H   0  0  0  0  0  0  0  0  0  0  0  0
    3.4194   -6.5627    2.7740 H   0  0  0  0  0  0  0  0  0  0  0  0
    4.9477   -6.6831    3.4117 H   0  0  0  0  0  0  0  0  0  0  0  0
    4.4586   -4.4252    4.3866 H   0  0  0  0  0  0  0  0  0  0  0  0
    7.7635   -5.5430    4.2336 H   0  0  0  0  0  0  0  0  0  0  0  0
    6.1599   -5.8941    4.7462 H   0  0  0  0  0  0  0  0  0  0  0  0
    6.7353   -4.2717    4.9035 H   0  0  0  0  0  0  0  0  0  0  0  0
    3.6373   -3.0816    1.1849 H   0  0  0  0  0  0  0  0  0  0  0  0
    2.4671   -2.1547    0.0943 H   0  0  0  0  0  0  0  0  0  0  0  0
    4.2830   -0.5732    0.4598 H   0  0  0  0  0  0  0  0  0  0  0  0
    4.8840   -1.0548   -2.3557 H   0  0  0  0  0  0  0  0  0  0  0  0
    2.6206   -0.5339   -1.7817 H   0  0  0  0  0  0  0  0  0  0  0  0
    1.9448   -1.8413   -2.6898 H   0  0  0  0  0  0  0  0  0  0  0  0
    2.7970   -0.5307   -3.4829 H   0  0  0  0  0  0  0  0  0  0  0  0
    3.7874   -3.3416   -3.5136 H   0  0  0  0  0  0  0  0  0  0  0  0
    2.1463   -3.5371   -1.6956 H   0  0  0  0  0  0  0  0  0  0  0  0
    3.4882   -4.6429   -1.5682 H   0  0  0  0  0  0  0  0  0  0  0  0
    1.4143   -5.6003   -0.9467 H   0  0  0  0  0  0  0  0  0  0  0  0
    1.1741   -4.5596    2.4319 H   0  0  0  0  0  0  0  0  0  0  0  0
    1.2891   -2.8632    1.8255 H   0  0  0  0  0  0  0  0  0  0  0  0
    4.2286   -6.2930   -0.7655 H   0  0  0  0  0  0  0  0  0  0  0  0
    3.3375   -7.1373    0.5026 H   0  0  0  0  0  0  0  0  0  0  0  0
    5.7788   -0.5465   -0.5845 H   0  0  0  0  0  0  0  0  0  0  0  0
    3.0493   -5.3378    1.7187 H   0  0  0  0  0  0  0  0  0  0  0  0
  1  2  1  0
  1 32  1  0
  1 33  1  0
  1 34  1  0
  3  2  1  1
  3 13  1  0
  3 27  1  0
  3  4  1  0
  4  5  1  0
  4 35  1  0
  4 36  1  0
  5 30  1  0
  5  6  1  0
  5 37  1  6
  6 14  1  0
  6  7  1  0
  6 38  1  1
  7  8  1  0
  7 39  1  0
  7 40  1  0
  8 30  1  0
  8  9  1  0
  8 41  1  6
  9 10  1  0
  9 11  1  0
  9 42  1  6
 10 43  1  0
 11 29  1  0
 11 12  1  0
 11 44  1  1
 12 13  1  0
 12 45  1  0
 12 46  1  0
 13 14  1  0
 13 47  1  1
 14 15  1  6
 14 17  1  0
 15 16  1  0
 16 48  1  0
 16 49  1  0
 16 50  1  0
 17 28  1  0
 17 18  1  0
 17 51  1  6
 18 19  1  0
 18 20  1  0
 18 52  1  6
 19 53  1  0
 20 21  1  0
 20 24  1  6
 20 30  1  0
 21 22  1  0
 21 23  1  0
 21 54  1  1
 22 55  1  0
 22 56  1  0
 22 57  1  0
 23 58  1  0
 24 25  1  0
 24 59  1  0
 24 60  1  0
 25 26  1  6
 25 27  1  0
 25 28  1  0
 26 61  1  0
 27 62  1  0
 27 63  1  0
 28 29  1  0
 28 67  1  1
 29 64  1  0
 29 65  1  0
 30 31  1  6
 31 66  1  0
M  CHG  1  28   1
M  END
>  <i_m_ct_stereo_status>  (368) 
1

>  <s_m_source_file>  (368) 
/var/tmp/pbs.5076255.sched01/tmpfsvwwkaa/138cw1meju8.sdf

>  <i_m_source_file_index>  (368) 
17

>  <i_lp_mmshare_version>  (368) 
48012

>  <i_f3d_flags>  (368) 
0

>  <s_epik_input>  (368) 
W0NIM11PW0NAXTEyW0NAQEhdM0M0KE9bQ0gzXSlbQ0BASF01W0NASF0oW0NIMl0xKVtDQEBdNihbT0hdKVtDQEBIXShbQ0gyXTUpW0NAQEhdKFtPSF0pW0NAQEhdKFtDSDJdMylbQ0gyXU43W0NIXTRbQ0BASF0oW09IXSlbQ0BdNihbQ0BIXShbQ0gzXSlbT0hdKVtDSDJdW0NAXTcoW09IXSlbQ0gyXTI=

>  <s_epik_cmdline>  (368) 
J2VwaWtfcHl0aG9uJywgJy1waHQnLCAnMi4wJywgJy1waCcsICc3LjAnLCAnLXRuJywgJzgnLCAnLW1hJywgJzIwMCcsICctaW1hZScsICc8aW5maWxlLm1hZT4nLCAnLW9tYWUnLCAnPG91dGZpbGUubWFlPic=

>  <r_epik_Ionization_Penalty>  (368) 
0.0252734

>  <r_epik_Ionization_Penalty_Charging>  (368) 
0.019034

>  <r_epik_Ionization_Penalty_Neutral>  (368) 
0.00623935

>  <r_epik_State_Penalty>  (368) 
0.0196684

>  <r_epik_Charging_Adjusted_Penalty>  (368) 
0.0387025

>  <i_epik_Tot_Q>  (368) 
1

>  <i_epik_Tot_abs_Q>  (368) 
1

>  <s_lp_Force_Field>  (368) 
OPLS3e

>  <r_lp_Energy>  (368) 
847.299

>  <b_lp_Chiralities_Consistent>  (368) 
1

>  <s_lp_Variant>  (368) 
103:0-1

>  <s_i_glide_gridfile>  (368) 
pfpi4k_grid

>  <i_i_glide_lignum>  (368) 
17

>  <i_i_glide_rotatable_bonds>  (368) 
8

>  <r_i_docking_score>  (368) 
-2.97824

>  <r_i_glide_ligand_efficiency>  (368) 
-0.0960724

>  <r_i_glide_ligand_efficiency_sa>  (368) 
-0.3018

>  <r_i_glide_ligand_efficiency_ln>  (368) 
-0.671685

>  <r_i_glide_gscore>  (368) 
-2.97824

>  <r_i_glide_lipo>  (368) 
-0.572863

>  <r_i_glide_hbond>  (368) 
-0.253087

>  <r_i_glide_metal>  (368) 
-0

>  <r_i_glide_rewards>  (368) 
-0.919083

>  <r_i_glide_evdw>  (368) 
9.92664

>  <r_i_glide_ecoul>  (368) 
-11.7908

>  <r_i_glide_erotb>  (368) 
0.103741

>  <r_i_glide_esite>  (368) 
-0.0646686

>  <r_i_glide_emodel>  (368) 
3.03174

>  <r_i_glide_energy>  (368) 
-1.86413

>  <r_i_glide_einternal>  (368) 
13.4671

>  <r_i_glide_intrahb_reward>  (368) 
-0.5

>  <i_i_glide_confnum>  (368) 
1

>  <i_i_glide_posenum>  (368) 
5

>  <r_i_glide_eff_state_penalty>  (368) 
0

>  <ligand_id>  (368) 
103

>  <original_smiles>  (368) 
COC12CC3C4CC5C(O)C6CC1C4(OC)C1C(O)C(C(C)O)(CC(O)(C2)N1C6)C53O

>  <smiles>  (368) 
[H]OC1([H])C2([H])C([H])([H])C3([H])C4([H])C([H])([H])C5(OC([H])([H])[H])C([H])([H])C6(O[H])C([H])([H])C(C([H])(O[H])C([H])([H])[H])(C([H])(O[H])C7([H])C3(OC([H])([H])[H])C5([H])C([H])([H])C1([H])C([H])([H])[N+]76[H])C24O[H]

$$$$
103:2:0
     RDKit          3D

 66 72  0  0  1  0  0  0  0  0999 V2000
    1.4570   -2.4011    4.8936 C   0  0  0  0  0  0  0  0  0  0  0  0
    2.4324   -3.4024    4.6281 O   0  0  0  0  0  0  0  0  0  0  0  0
    3.0253   -3.4186    3.3215 C   0  0  1  0  0  0  0  0  0  0  0  0
    3.8846   -1.9113    3.0513 C   0  0  0  0  0  0  0  0  0  0  0  0
    5.1769   -1.7413    1.8327 C   0  0  1  0  0  0  0  0  0  0  0  0
    6.0967   -2.6981    2.3864 C   0  0  2  0  0  0  0  0  0  0  0  0
    7.2258   -2.9144    1.3135 C   0  0  0  0  0  0  0  0  0  0  0  0
    6.4774   -3.5072    0.1253 C   0  0  1  0  0  0  0  0  0  0  0  0
    6.2408   -5.1988    0.2932 C   0  0  1  0  0  0  0  0  0  0  0  0
    7.5322   -5.7615    0.5278 O   0  0  0  0  0  0  0  0  0  0  0  0
    5.1335   -6.1830    1.2039 C   0  0  1  0  0  0  0  0  0  0  0  0
    4.4686   -6.0394    2.7921 C   0  0  0  0  0  0  0  0  0  0  0  0
    4.2569   -4.4998    3.4274 C   0  0  1  0  0  0  0  0  0  0  0  0
    5.2254   -3.9402    2.4541 C   0  0  2  0  0  0  0  0  0  0  0  0
    6.4431   -4.7654    2.8267 O   0  0  0  0  0  0  0  0  0  0  0  0
    6.8845   -5.1516    4.1715 C   0  0  0  0  0  0  0  0  0  0  0  0
    4.0563   -3.8790    1.1423 C   0  0  1  0  0  0  0  0  0  0  0  0
    3.2999   -2.4035    0.3442 C   0  0  1  0  0  0  0  0  0  0  0  0
    3.1370   -0.9768    0.4893 O   0  0  0  0  0  0  0  0  0  0  0  0
    3.9363   -2.6663   -0.8470 C   0  0  2  0  0  0  0  0  0  0  0  0
    3.6806   -1.8262   -2.1708 C   0  0  2  0  0  0  0  0  0  0  0  0
    4.1669   -2.5716   -3.4184 C   0  0  0  0  0  0  0  0  0  0  0  0
    4.2226   -0.5327   -2.2668 O   0  0  0  0  0  0  0  0  0  0  0  0
    2.6740   -3.8251   -0.8521 C   0  0  0  0  0  0  0  0  0  0  0  0
    2.0705   -4.5556    0.5863 C   0  0  2  0  0  0  0  0  0  0  0  0
    1.2235   -5.6619    0.2385 O   0  0  0  0  0  0  0  0  0  0  0  0
    1.7895   -3.9308    2.2076 C   0  0  0  0  0  0  0  0  0  0  0  0
    3.2571   -5.0369    0.9122 N   0  0  0  0  0  0  0  0  0  0  0  0
    3.8942   -6.2029    0.3664 C   0  0  0  0  0  0  0  0  0  0  0  0
    5.3666   -2.2740    0.0966 C   0  0  1  0  0  0  0  0  0  0  0  0
    6.0537   -1.1803   -0.4674 O   0  0  0  0  0  0  0  0  0  0  0  0
    1.0690   -2.5472    5.9015 H   0  0  0  0  0  0  0  0  0  0  0  0
    0.5999   -2.4418    4.2219 H   0  0  0  0  0  0  0  0  0  0  0  0
    1.8790   -1.3974    4.8640 H   0  0  0  0  0  0  0  0  0  0  0  0
    3.1463   -1.1106    2.9347 H   0  0  0  0  0  0  0  0  0  0  0  0
    4.3270   -1.6487    4.0180 H   0  0  0  0  0  0  0  0  0  0  0  0
    5.5833   -0.7336    1.9281 H   0  0  0  0  0  0  0  0  0  0  0  0
    6.3349   -2.2554    3.3029 H   0  0  0  0  0  0  0  0  0  0  0  0
    7.7058   -1.9638    1.0680 H   0  0  0  0  0  0  0  0  0  0  0  0
    8.0483   -3.5383    1.6460 H   0  0  0  0  0  0  0  0  0  0  0  0
    7.1187   -3.3810   -0.7548 H   0  0  0  0  0  0  0  0  0  0  0  0
    5.9978   -5.4525   -0.7389 H   0  0  0  0  0  0  0  0  0  0  0  0
    7.7714   -5.6146    1.4280 H   0  0  0  0  0  0  0  0  0  0  0  0
    5.5528   -7.1871    1.1372 H   0  0  0  0  0  0  0  0  0  0  0  0
    3.4918   -6.5380    2.8628 H   0  0  0  0  0  0  0  0  0  0  0  0
    5.0519   -6.6934    3.4199 H   0  0  0  0  0  0  0  0  0  0  0  0
    4.6014   -4.4229    4.4519 H   0  0  0  0  0  0  0  0  0  0  0  0
    7.9289   -5.4512    4.0750 H   0  0  0  0  0  0  0  0  0  0  0  0
    6.3951   -5.9845    4.6316 H   0  0  0  0  0  0  0  0  0  0  0  0
    6.8318   -4.3332    4.8916 H   0  0  0  0  0  0  0  0  0  0  0  0
    3.4756   -3.0557    1.3733 H   0  0  0  0  0  0  0  0  0  0  0  0
    2.1955   -2.2196    0.4224 H   0  0  0  0  0  0  0  0  0  0  0  0
    2.3085   -0.7609    0.0548 H   0  0  0  0  0  0  0  0  0  0  0  0
    2.6065   -1.6802   -2.2747 H   0  0  0  0  0  0  0  0  0  0  0  0
    3.6799   -3.5412   -3.5114 H   0  0  0  0  0  0  0  0  0  0  0  0
    5.2448   -2.7292   -3.3895 H   0  0  0  0  0  0  0  0  0  0  0  0
    3.9302   -2.0027   -4.3160 H   0  0  0  0  0  0  0  0  0  0  0  0
    3.6161    0.0609   -1.8565 H   0  0  0  0  0  0  0  0  0  0  0  0
    1.8045   -3.4338   -1.3796 H   0  0  0  0  0  0  0  0  0  0  0  0
    3.0440   -4.6177   -1.5280 H   0  0  0  0  0  0  0  0  0  0  0  0
    1.7281   -6.4578    0.2340 H   0  0  0  0  0  0  0  0  0  0  0  0
    1.2499   -4.7248    2.7305 H   0  0  0  0  0  0  0  0  0  0  0  0
    1.0996   -3.0857    2.1610 H   0  0  0  0  0  0  0  0  0  0  0  0
    4.0751   -6.1467   -0.6981 H   0  0  0  0  0  0  0  0  0  0  0  0
    3.3270   -7.1015    0.5823 H   0  0  0  0  0  0  0  0  0  0  0  0
    5.4024   -0.5002   -0.6208 H   0  0  0  0  0  0  0  0  0  0  0  0
  1  2  1  0
  1 32  1  0
  1 33  1  0
  1 34  1  0
  3  2  1  1
  3 13  1  0
  3 27  1  0
  3  4  1  0
  4  5  1  0
  4 35  1  0
  4 36  1  0
  5 30  1  0
  5  6  1  0
  5 37  1  6
  6 14  1  0
  6  7  1  0
  6 38  1  1
  7  8  1  0
  7 39  1  0
  7 40  1  0
  8 30  1  0
  8  9  1  0
  8 41  1  6
  9 10  1  0
  9 11  1  0
  9 42  1  6
 10 43  1  0
 11 29  1  0
 11 12  1  0
 11 44  1  1
 12 13  1  0
 12 45  1  0
 12 46  1  0
 13 14  1  0
 13 47  1  1
 14 15  1  6
 14 17  1  0
 15 16  1  0
 16 48  1  0
 16 49  1  0
 16 50  1  0
 17 28  1  0
 17 18  1  0
 17 51  1  6
 18 19  1  0
 18 20  1  0
 18 52  1  6
 19 53  1  0
 20 21  1  0
 20 24  1  6
 20 30  1  0
 21 22  1  0
 21 23  1  0
 21 54  1  6
 22 55  1  0
 22 56  1  0
 22 57  1  0
 23 58  1  0
 24 25  1  0
 24 59  1  0
 24 60  1  0
 25 26  1  6
 25 27  1  0
 25 28  1  0
 26 61  1  0
 27 62  1  0
 27 63  1  0
 28 29  1  0
 29 64  1  0
 29 65  1  0
 30 31  1  6
 31 66  1  0
M  END
>  <i_m_ct_stereo_status>  (369) 
1

>  <s_m_source_file>  (369) 
/var/tmp/pbs.5076255.sched01/tmpfsvwwkaa/138cw1meju8.sdf

>  <i_m_source_file_index>  (369) 
19

>  <i_lp_mmshare_version>  (369) 
48012

>  <i_f3d_flags>  (369) 
0

>  <s_epik_input>  (369) 
W0NIM11PW0NAXTEyW0NAQEhdM0M0KE9bQ0gzXSlbQ0BASF01W0NASF0oW0NIMl0xKVtDQEBdNihbT0hdKVtDQEBIXShbQ0gyXTUpW0NAQEhdKFtPSF0pW0NAQEhdKFtDSDJdMylbQ0gyXU43W0NIXTRbQ0BASF0oW09IXSlbQ0BdNihbQ0BIXShbQ0gzXSlbT0hdKVtDSDJdW0NAXTcoW09IXSlbQ0gyXTI=

>  <s_epik_cmdline>  (369) 
J2VwaWtfcHl0aG9uJywgJy1waHQnLCAnMi4wJywgJy1waCcsICc3LjAnLCAnLXRuJywgJzgnLCAnLW1hJywgJzIwMCcsICctaW1hZScsICc8aW5maWxlLm1hZT4nLCAnLW9tYWUnLCAnPG91dGZpbGUubWFlPic=

>  <r_epik_Ionization_Penalty>  (369) 
2.04652

>  <r_epik_Ionization_Penalty_Charging>  (369) 
0

>  <r_epik_Ionization_Penalty_Neutral>  (369) 
2.04652

>  <r_epik_State_Penalty>  (369) 
2.18315

>  <r_epik_Charging_Adjusted_Penalty>  (369) 
2.18315

>  <i_epik_Tot_Q>  (369) 
0

>  <i_epik_Tot_abs_Q>  (369) 
0

>  <s_lp_Force_Field>  (369) 
OPLS3e

>  <r_lp_Energy>  (369) 
824.185

>  <b_lp_Chiralities_Consistent>  (369) 
1

>  <s_lp_Variant>  (369) 
103:0-3

>  <s_i_glide_gridfile>  (369) 
pfpi4k_grid

>  <i_i_glide_lignum>  (369) 
19

>  <i_i_glide_rotatable_bonds>  (369) 
8

>  <r_i_docking_score>  (369) 
-3.85404

>  <r_i_glide_ligand_efficiency>  (369) 
-0.124324

>  <r_i_glide_ligand_efficiency_sa>  (369) 
-0.390549

>  <r_i_glide_ligand_efficiency_ln>  (369) 
-0.869204

>  <r_i_glide_gscore>  (369) 
-3.85404

>  <r_i_glide_lipo>  (369) 
-0.733245

>  <r_i_glide_hbond>  (369) 
-0.146097

>  <r_i_glide_metal>  (369) 
-0

>  <r_i_glide_rewards>  (369) 
-1.42596

>  <r_i_glide_evdw>  (369) 
8.21627

>  <r_i_glide_ecoul>  (369) 
-13.3976

>  <r_i_glide_erotb>  (369) 
0.104175

>  <r_i_glide_esite>  (369) 
-0.0540856

>  <r_i_glide_emodel>  (369) 
-10.2465

>  <r_i_glide_energy>  (369) 
-5.18137

>  <r_i_glide_einternal>  (369) 
9.01711

>  <r_i_glide_intrahb_reward>  (369) 
-1

>  <i_i_glide_confnum>  (369) 
1

>  <i_i_glide_posenum>  (369) 
8

>  <r_i_glide_eff_state_penalty>  (369) 
0

>  <ligand_id>  (369) 
103

>  <original_smiles>  (369) 
COC12CC3C4CC5C(O)C6CC1C4(OC)C1C(O)C(C(C)O)(CC(O)(C2)N1C6)C53O

>  <smiles>  (369) 
[H]OC1([H])C2([H])C([H])([H])N3C4([H])C([H])(O[H])C5(C([H])(O[H])C([H])([H])[H])C([H])([H])C3(O[H])C([H])([H])C3(OC([H])([H])[H])C([H])([H])C6([H])C([H])(C([H])([H])C1([H])C65O[H])C4(OC([H])([H])[H])C3([H])C2([H])[H]

$$$$
103:3:0
     RDKit          3D

 66 72  0  0  1  0  0  0  0  0999 V2000
    1.1932   -2.1739    4.8310 C   0  0  0  0  0  0  0  0  0  0  0  0
    2.2048   -3.1590    4.6495 O   0  0  0  0  0  0  0  0  0  0  0  0
    2.8244   -3.2214    3.3666 C   0  0  1  0  0  0  0  0  0  0  0  0
    3.7014   -1.6880    3.0623 C   0  0  0  0  0  0  0  0  0  0  0  0
    5.0600   -1.5535    1.8746 C   0  0  1  0  0  0  0  0  0  0  0  0
    6.0135   -2.4597    2.4717 C   0  0  2  0  0  0  0  0  0  0  0  0
    7.1244   -2.8015    1.4721 C   0  0  0  0  0  0  0  0  0  0  0  0
    6.4272   -3.3677    0.2706 C   0  0  1  0  0  0  0  0  0  0  0  0
    6.2746   -5.0203    0.4882 C   0  0  1  0  0  0  0  0  0  0  0  0
    7.5582   -5.5743    0.7342 O   0  0  0  0  0  0  0  0  0  0  0  0
    5.2226   -5.9647    1.3768 C   0  0  1  0  0  0  0  0  0  0  0  0
    4.6352   -5.7781    2.9249 C   0  0  0  0  0  0  0  0  0  0  0  0
    4.0413   -4.3357    3.5073 C   0  0  1  0  0  0  0  0  0  0  0  0
    5.1639   -3.7328    2.6600 C   0  0  2  0  0  0  0  0  0  0  0  0
    5.4138   -3.4010    4.0768 O   0  0  0  0  0  0  0  0  0  0  0  0
    6.2256   -4.2335    4.9729 C   0  0  0  0  0  0  0  0  0  0  0  0
    3.9755   -3.7014    1.3277 C   0  0  1  0  0  0  0  0  0  0  0  0
    3.2457   -2.3170    0.3779 C   0  0  1  0  0  0  0  0  0  0  0  0
    3.0092   -0.8926    0.4793 O   0  0  0  0  0  0  0  0  0  0  0  0
    3.9155   -2.6295   -0.7712 C   0  0  2  0  0  0  0  0  0  0  0  0
    3.7041   -1.8762   -2.1583 C   0  0  2  0  0  0  0  0  0  0  0  0
    4.4483   -2.5561   -3.3095 C   0  0  0  0  0  0  0  0  0  0  0  0
    4.0763   -0.5310   -2.2727 O   0  0  0  0  0  0  0  0  0  0  0  0
    2.7037   -3.8298   -0.7609 C   0  0  0  0  0  0  0  0  0  0  0  0
    2.0667   -4.5119    0.6864 C   0  0  2  0  0  0  0  0  0  0  0  0
    1.2723   -5.6568    0.4299 O   0  0  0  0  0  0  0  0  0  0  0  0
    1.6612   -3.7903    2.2323 C   0  0  0  0  0  0  0  0  0  0  0  0
    3.2391   -4.9238    1.1040 N   0  0  0  0  0  0  0  0  0  0  0  0
    3.9695   -6.0523    0.5665 C   0  0  0  0  0  0  0  0  0  0  0  0
    5.2979   -2.1737    0.1752 C   0  0  1  0  0  0  0  0  0  0  0  0
    5.9824   -1.1032   -0.4382 O   0  0  0  0  0  0  0  0  0  0  0  0
    0.7784   -2.2816    5.8348 H   0  0  0  0  0  0  0  0  0  0  0  0
    0.3608   -2.2854    4.1317 H   0  0  0  0  0  0  0  0  0  0  0  0
    1.5891   -1.1584    4.7552 H   0  0  0  0  0  0  0  0  0  0  0  0
    2.9647   -0.9050    2.8843 H   0  0  0  0  0  0  0  0  0  0  0  0
    4.1143   -1.3727    4.0268 H   0  0  0  0  0  0  0  0  0  0  0  0
    5.4375   -0.5262    1.9158 H   0  0  0  0  0  0  0  0  0  0  0  0
    6.3751   -1.8330    3.2900 H   0  0  0  0  0  0  0  0  0  0  0  0
    7.6986   -1.9105    1.2014 H   0  0  0  0  0  0  0  0  0  0  0  0
    7.8534   -3.5147    1.8445 H   0  0  0  0  0  0  0  0  0  0  0  0
    7.1024   -3.2610   -0.5829 H   0  0  0  0  0  0  0  0  0  0  0  0
    6.0961   -5.3356   -0.5336 H   0  0  0  0  0  0  0  0  0  0  0  0
    7.7843   -5.4294    1.6457 H   0  0  0  0  0  0  0  0  0  0  0  0
    5.6465   -6.9748    1.3478 H   0  0  0  0  0  0  0  0  0  0  0  0
    3.8723   -6.5294    3.1263 H   0  0  0  0  0  0  0  0  0  0  0  0
    5.4547   -6.1200    3.5535 H   0  0  0  0  0  0  0  0  0  0  0  0
    3.9391   -4.6355    4.5696 H   0  0  0  0  0  0  0  0  0  0  0  0
    6.7393   -3.6256    5.7177 H   0  0  0  0  0  0  0  0  0  0  0  0
    6.9411   -4.8367    4.4339 H   0  0  0  0  0  0  0  0  0  0  0  0
    5.6529   -4.9925    5.5333 H   0  0  0  0  0  0  0  0  0  0  0  0
    3.3525   -2.8975    1.4306 H   0  0  0  0  0  0  0  0  0  0  0  0
    2.1445   -2.1988    0.3640 H   0  0  0  0  0  0  0  0  0  0  0  0
    2.1464   -0.7069    0.0586 H   0  0  0  0  0  0  0  0  0  0  0  0
    2.6461   -1.8739   -2.4027 H   0  0  0  0  0  0  0  0  0  0  0  0
    4.1427   -3.5954   -3.4252 H   0  0  0  0  0  0  0  0  0  0  0  0
    5.5276   -2.5279   -3.1403 H   0  0  0  0  0  0  0  0  0  0  0  0
    4.2456   -2.0387   -4.2535 H   0  0  0  0  0  0  0  0  0  0  0  0
    3.2872   -0.0255   -2.4129 H   0  0  0  0  0  0  0  0  0  0  0  0
    1.8322   -3.4917   -1.3214 H   0  0  0  0  0  0  0  0  0  0  0  0
    3.0971   -4.6030   -1.4161 H   0  0  0  0  0  0  0  0  0  0  0  0
    1.7833   -6.3064   -0.0545 H   0  0  0  0  0  0  0  0  0  0  0  0
    1.0760   -4.5341    2.7754 H   0  0  0  0  0  0  0  0  0  0  0  0
    1.0451   -2.9213    2.0826 H   0  0  0  0  0  0  0  0  0  0  0  0
    4.1460   -6.0231   -0.5065 H   0  0  0  0  0  0  0  0  0  0  0  0
    3.4336   -6.9729    0.7925 H   0  0  0  0  0  0  0  0  0  0  0  0
    5.3461   -0.4036   -0.5600 H   0  0  0  0  0  0  0  0  0  0  0  0
  1  2  1  0
  1 32  1  0
  1 33  1  0
  1 34  1  0
  3  2  1  1
  3 13  1  0
  3 27  1  0
  3  4  1  0
  4  5  1  0
  4 35  1  0
  4 36  1  0
  5 30  1  0
  5  6  1  0
  5 37  1  6
  6 14  1  0
  6  7  1  0
  6 38  1  1
  7  8  1  0
  7 39  1  0
  7 40  1  0
  8 30  1  0
  8  9  1  0
  8 41  1  6
  9 10  1  0
  9 11  1  0
  9 42  1  6
 10 43  1  0
 11 29  1  0
 11 12  1  0
 11 44  1  1
 12 13  1  0
 12 45  1  0
 12 46  1  0
 13 14  1  0
 13 47  1  1
 14 15  1  6
 14 17  1  0
 15 16  1  0
 16 48  1  0
 16 49  1  0
 16 50  1  0
 17 28  1  0
 17 18  1  0
 17 51  1  6
 18 19  1  0
 18 20  1  0
 18 52  1  6
 19 53  1  0
 20 21  1  0
 20 24  1  6
 20 30  1  0
 21 22  1  0
 21 23  1  0
 21 54  1  6
 22 55  1  0
 22 56  1  0
 22 57  1  0
 23 58  1  0
 24 25  1  0
 24 59  1  0
 24 60  1  0
 25 26  1  6
 25 27  1  0
 25 28  1  0
 26 61  1  0
 27 62  1  0
 27 63  1  0
 28 29  1  0
 29 64  1  0
 29 65  1  0
 30 31  1  6
 31 66  1  0
M  END
>  <i_m_ct_stereo_status>  (370) 
1

>  <s_m_source_file>  (370) 
/var/tmp/pbs.5076255.sched01/tmpfsvwwkaa/138cw1meju8.sdf

>  <i_m_source_file_index>  (370) 
20

>  <i_lp_mmshare_version>  (370) 
48012

>  <i_f3d_flags>  (370) 
0

>  <s_epik_input>  (370) 
W0NIM11PW0NAXTEyW0NAQEhdM0M0KE9bQ0gzXSlbQ0BASF01W0NASF0oW0NIMl0xKVtDQEBdNihbT0hdKVtDQEBIXShbQ0gyXTUpW0NAQEhdKFtPSF0pW0NAQEhdKFtDSDJdMylbQ0gyXU43W0NIXTRbQ0BASF0oW09IXSlbQ0BdNihbQ0BIXShbQ0gzXSlbT0hdKVtDSDJdW0NAXTcoW09IXSlbQ0gyXTI=

>  <s_epik_cmdline>  (370) 
J2VwaWtfcHl0aG9uJywgJy1waHQnLCAnMi4wJywgJy1waCcsICc3LjAnLCAnLXRuJywgJzgnLCAnLW1hJywgJzIwMCcsICctaW1hZScsICc8aW5maWxlLm1hZT4nLCAnLW9tYWUnLCAnPG91dGZpbGUubWFlPic=

>  <r_epik_Ionization_Penalty>  (370) 
2.04652

>  <r_epik_Ionization_Penalty_Charging>  (370) 
0

>  <r_epik_Ionization_Penalty_Neutral>  (370) 
2.04652

>  <r_epik_State_Penalty>  (370) 
2.18315

>  <r_epik_Charging_Adjusted_Penalty>  (370) 
2.18315

>  <i_epik_Tot_Q>  (370) 
0

>  <i_epik_Tot_abs_Q>  (370) 
0

>  <s_lp_Force_Field>  (370) 
OPLS3e

>  <r_lp_Energy>  (370) 
875.191

>  <b_lp_Chiralities_Consistent>  (370) 
1

>  <s_lp_Variant>  (370) 
103:0-4

>  <s_i_glide_gridfile>  (370) 
pfpi4k_grid

>  <i_i_glide_lignum>  (370) 
20

>  <i_i_glide_rotatable_bonds>  (370) 
8

>  <r_i_docking_score>  (370) 
-2.83925

>  <r_i_glide_ligand_efficiency>  (370) 
-0.0915886

>  <r_i_glide_ligand_efficiency_sa>  (370) 
-0.287715

>  <r_i_glide_ligand_efficiency_ln>  (370) 
-0.640337

>  <r_i_glide_gscore>  (370) 
-2.83925

>  <r_i_glide_lipo>  (370) 
-0.663714

>  <r_i_glide_hbond>  (370) 
-0.148046

>  <r_i_glide_metal>  (370) 
-0

>  <r_i_glide_rewards>  (370) 
-0.425956

>  <r_i_glide_evdw>  (370) 
7.20722

>  <r_i_glide_ecoul>  (370) 
-14.5652

>  <r_i_glide_erotb>  (370) 
0.104175

>  <r_i_glide_esite>  (370) 
-0.0509654

>  <r_i_glide_emodel>  (370) 
2.23904

>  <r_i_glide_energy>  (370) 
-7.35797

>  <r_i_glide_einternal>  (370) 
15.8119

>  <r_i_glide_intrahb_reward>  (370) 
-0

>  <i_i_glide_confnum>  (370) 
1

>  <i_i_glide_posenum>  (370) 
12

>  <r_i_glide_eff_state_penalty>  (370) 
0

>  <ligand_id>  (370) 
103

>  <original_smiles>  (370) 
COC12CC3C4CC5C(O)C6CC1C4(OC)C1C(O)C(C(C)O)(CC(O)(C2)N1C6)C53O

>  <smiles>  (370) 
[H]OC1([H])C2([H])C([H])([H])N3C4([H])C([H])(O[H])C5(C([H])(O[H])C([H])([H])[H])C([H])([H])C3(O[H])C([H])([H])C3(OC([H])([H])[H])C([H])([H])C6([H])C([H])(C([H])([H])C1([H])C65O[H])C4(OC([H])([H])[H])C3([H])C2([H])[H]

$$$$
103:3:1
     RDKit          3D

 66 72  0  0  1  0  0  0  0  0999 V2000
    0.8667   -0.1055    2.7408 C   0  0  0  0  0  0  0  0  0  0  0  0
    1.7867   -1.1001    3.1910 O   0  0  0  0  0  0  0  0  0  0  0  0
    2.7035   -1.6335    2.2218 C   0  0  1  0  0  0  0  0  0  0  0  0
    3.3193   -0.3261    1.1806 C   0  0  0  0  0  0  0  0  0  0  0  0
    4.8318   -0.5050    0.2331 C   0  0  1  0  0  0  0  0  0  0  0  0
    5.8240   -0.6532    1.2439 C   0  0  2  0  0  0  0  0  0  0  0  0
    7.1423   -1.1496    0.7177 C   0  0  0  0  0  0  0  0  0  0  0  0
    6.8170   -2.4283   -0.0152 C   0  0  1  0  0  0  0  0  0  0  0  0
    6.9126   -3.7509    1.0013 C   0  0  1  0  0  0  0  0  0  0  0  0
    8.2468   -3.9519    1.3609 O   0  0  0  0  0  0  0  0  0  0  0  0
    5.8712   -4.3064    2.2083 C   0  0  1  0  0  0  0  0  0  0  0  0
    4.9727   -3.4711    3.3667 C   0  0  0  0  0  0  0  0  0  0  0  0
    4.0624   -2.1312    3.0280 C   0  0  1  0  0  0  0  0  0  0  0  0
    5.1877   -1.8238    2.0451 C   0  0  2  0  0  0  0  0  0  0  0  0
    5.0884   -0.7110    3.0127 O   0  0  0  0  0  0  0  0  0  0  0  0
    6.1714   -0.3869    3.8939 C   0  0  0  0  0  0  0  0  0  0  0  0
    4.2617   -2.8100    0.8626 C   0  0  1  0  0  0  0  0  0  0  0  0
    3.5428   -2.3519   -0.7580 C   0  0  1  0  0  0  0  0  0  0  0  0
    3.0216   -1.1820   -1.4326 O   0  0  0  0  0  0  0  0  0  0  0  0
    4.4660   -3.0373   -1.4912 C   0  0  2  0  0  0  0  0  0  0  0  0
    4.3614   -3.0708   -3.0890 C   0  0  2  0  0  0  0  0  0  0  0  0
    2.9347   -2.9943   -3.6903 C   0  0  0  0  0  0  0  0  0  0  0  0
    4.9799   -4.2400   -3.6048 O   0  0  0  0  0  0  0  0  0  0  0  0
    3.5313   -4.3269   -0.8946 C   0  0  0  0  0  0  0  0  0  0  0  0
    2.6798   -4.2456    0.6007 C   0  0  2  0  0  0  0  0  0  0  0  0
    2.0759   -5.5086    0.8574 O   0  0  0  0  0  0  0  0  0  0  0  0
    1.8877   -2.9594    1.4745 C   0  0  0  0  0  0  0  0  0  0  0  0
    3.7979   -4.1069    1.3046 N   0  0  0  0  0  0  0  0  0  0  0  0
    4.8013   -5.1163    1.5057 C   0  0  0  0  0  0  0  0  0  0  0  0
    5.4969   -1.8377   -0.7968 C   0  0  1  0  0  0  0  0  0  0  0  0
    5.9915   -1.1502   -1.8153 O   0  0  0  0  0  0  0  0  0  0  0  0
    0.2265    0.1689    3.5748 H   0  0  0  0  0  0  0  0  0  0  0  0
    0.2275   -0.4370    1.9224 H   0  0  0  0  0  0  0  0  0  0  0  0
    1.3632    0.8167    2.4432 H   0  0  0  0  0  0  0  0  0  0  0  0
    2.5046    0.0396    0.5512 H   0  0  0  0  0  0  0  0  0  0  0  0
    3.4772    0.5468    1.8203 H   0  0  0  0  0  0  0  0  0  0  0  0
    4.9283    0.4425   -0.2396 H   0  0  0  0  0  0  0  0  0  0  0  0
    5.9871    0.3752    1.5895 H   0  0  0  0  0  0  0  0  0  0  0  0
    7.6184   -0.3819    0.1445 H   0  0  0  0  0  0  0  0  0  0  0  0
    7.8339   -1.2367    1.5048 H   0  0  0  0  0  0  0  0  0  0  0  0
    7.6055   -2.6039   -0.7361 H   0  0  0  0  0  0  0  0  0  0  0  0
    6.9029   -4.5738    0.2805 H   0  0  0  0  0  0  0  0  0  0  0  0
    8.2360   -4.5561    2.1094 H   0  0  0  0  0  0  0  0  0  0  0  0
    6.4244   -5.0484    2.7775 H   0  0  0  0  0  0  0  0  0  0  0  0
    4.3098   -4.1808    3.8791 H   0  0  0  0  0  0  0  0  0  0  0  0
    5.6860   -3.1932    4.1417 H   0  0  0  0  0  0  0  0  0  0  0  0
    3.8796   -1.8388    4.0802 H   0  0  0  0  0  0  0  0  0  0  0  0
    6.1001    0.6325    4.2473 H   0  0  0  0  0  0  0  0  0  0  0  0
    7.0751   -0.4384    3.3057 H   0  0  0  0  0  0  0  0  0  0  0  0
    6.1891   -1.0477    4.7578 H   0  0  0  0  0  0  0  0  0  0  0  0
    3.5213   -2.2393    0.4492 H   0  0  0  0  0  0  0  0  0  0  0  0
    2.4673   -2.5378   -0.9938 H   0  0  0  0  0  0  0  0  0  0  0  0
    2.0788   -1.0642   -1.1586 H   0  0  0  0  0  0  0  0  0  0  0  0
    4.9458   -2.2919   -3.5683 H   0  0  0  0  0  0  0  0  0  0  0  0
    2.4553   -2.0441   -3.4864 H   0  0  0  0  0  0  0  0  0  0  0  0
    2.2746   -3.7847   -3.3424 H   0  0  0  0  0  0  0  0  0  0  0  0
    2.9662   -3.0557   -4.7711 H   0  0  0  0  0  0  0  0  0  0  0  0
    4.4768   -4.9881   -3.3000 H   0  0  0  0  0  0  0  0  0  0  0  0
    2.6642   -4.4961   -1.5366 H   0  0  0  0  0  0  0  0  0  0  0  0
    4.1490   -5.2288   -1.0262 H   0  0  0  0  0  0  0  0  0  0  0  0
    2.1681   -6.0196    0.0604 H   0  0  0  0  0  0  0  0  0  0  0  0
    1.3418   -3.4669    2.2633 H   0  0  0  0  0  0  0  0  0  0  0  0
    1.2817   -2.3616    0.8075 H   0  0  0  0  0  0  0  0  0  0  0  0
    5.1745   -5.5877    0.6025 H   0  0  0  0  0  0  0  0  0  0  0  0
    4.3892   -5.9179    2.1255 H   0  0  0  0  0  0  0  0  0  0  0  0
    5.3243   -0.8193   -2.3684 H   0  0  0  0  0  0  0  0  0  0  0  0
  1  2  1  0
  1 32  1  0
  1 33  1  0
  1 34  1  0
  3  2  1  1
  3 13  1  0
  3 27  1  0
  3  4  1  0
  4  5  1  0
  4 35  1  0
  4 36  1  0
  5 30  1  0
  5  6  1  0
  5 37  1  6
  6 14  1  0
  6  7  1  0
  6 38  1  1
  7  8  1  0
  7 39  1  0
  7 40  1  0
  8 30  1  0
  8  9  1  0
  8 41  1  6
  9 10  1  0
  9 11  1  0
  9 42  1  6
 10 43  1  0
 11 29  1  0
 11 12  1  0
 11 44  1  1
 12 13  1  0
 12 45  1  0
 12 46  1  0
 13 14  1  0
 13 47  1  1
 14 15  1  1
 14 17  1  0
 15 16  1  0
 16 48  1  0
 16 49  1  0
 16 50  1  0
 17 28  1  0
 17 18  1  0
 17 51  1  6
 18 19  1  0
 18 20  1  0
 18 52  1  1
 19 53  1  0
 20 21  1  0
 20 24  1  1
 20 30  1  0
 21 22  1  0
 21 23  1  0
 21 54  1  6
 22 55  1  0
 22 56  1  0
 22 57  1  0
 23 58  1  0
 24 25  1  0
 24 59  1  0
 24 60  1  0
 25 26  1  1
 25 27  1  0
 25 28  1  0
 26 61  1  0
 27 62  1  0
 27 63  1  0
 28 29  1  0
 29 64  1  0
 29 65  1  0
 30 31  1  6
 31 66  1  0
M  END
>  <i_m_ct_stereo_status>  (371) 
1

>  <s_m_source_file>  (371) 
/var/tmp/pbs.5076255.sched01/tmpfsvwwkaa/138cw1meju8.sdf

>  <i_m_source_file_index>  (371) 
20

>  <i_lp_mmshare_version>  (371) 
48012

>  <i_f3d_flags>  (371) 
0

>  <s_epik_input>  (371) 
W0NIM11PW0NAXTEyW0NAQEhdM0M0KE9bQ0gzXSlbQ0BASF01W0NASF0oW0NIMl0xKVtDQEBdNihbT0hdKVtDQEBIXShbQ0gyXTUpW0NAQEhdKFtPSF0pW0NAQEhdKFtDSDJdMylbQ0gyXU43W0NIXTRbQ0BASF0oW09IXSlbQ0BdNihbQ0BIXShbQ0gzXSlbT0hdKVtDSDJdW0NAXTcoW09IXSlbQ0gyXTI=

>  <s_epik_cmdline>  (371) 
J2VwaWtfcHl0aG9uJywgJy1waHQnLCAnMi4wJywgJy1waCcsICc3LjAnLCAnLXRuJywgJzgnLCAnLW1hJywgJzIwMCcsICctaW1hZScsICc8aW5maWxlLm1hZT4nLCAnLW9tYWUnLCAnPG91dGZpbGUubWFlPic=

>  <r_epik_Ionization_Penalty>  (371) 
2.04652

>  <r_epik_Ionization_Penalty_Charging>  (371) 
0

>  <r_epik_Ionization_Penalty_Neutral>  (371) 
2.04652

>  <r_epik_State_Penalty>  (371) 
2.18315

>  <r_epik_Charging_Adjusted_Penalty>  (371) 
2.18315

>  <i_epik_Tot_Q>  (371) 
0

>  <i_epik_Tot_abs_Q>  (371) 
0

>  <s_lp_Force_Field>  (371) 
OPLS3e

>  <r_lp_Energy>  (371) 
875.191

>  <b_lp_Chiralities_Consistent>  (371) 
1

>  <s_lp_Variant>  (371) 
103:0-4

>  <s_i_glide_gridfile>  (371) 
pfpi4k_grid

>  <i_i_glide_lignum>  (371) 
20

>  <i_i_glide_rotatable_bonds>  (371) 
8

>  <r_i_docking_score>  (371) 
-2.64378

>  <r_i_glide_ligand_efficiency>  (371) 
-0.0852832

>  <r_i_glide_ligand_efficiency_sa>  (371) 
-0.267907

>  <r_i_glide_ligand_efficiency_ln>  (371) 
-0.596254

>  <r_i_glide_gscore>  (371) 
-2.64378

>  <r_i_glide_lipo>  (371) 
-0.878473

>  <r_i_glide_hbond>  (371) 
-0.339983

>  <r_i_glide_metal>  (371) 
-0

>  <r_i_glide_rewards>  (371) 
-0.425956

>  <r_i_glide_evdw>  (371) 
17.6289

>  <r_i_glide_ecoul>  (371) 
-18.3174

>  <r_i_glide_erotb>  (371) 
0.104175

>  <r_i_glide_esite>  (371) 
-0.0280329

>  <r_i_glide_emodel>  (371) 
9.93861

>  <r_i_glide_energy>  (371) 
-0.688595

>  <r_i_glide_einternal>  (371) 
13.7494

>  <r_i_glide_intrahb_reward>  (371) 
-0

>  <i_i_glide_confnum>  (371) 
1

>  <i_i_glide_posenum>  (371) 
27

>  <r_i_glide_eff_state_penalty>  (371) 
0

>  <ligand_id>  (371) 
103

>  <original_smiles>  (371) 
COC12CC3C4CC5C(O)C6CC1C4(OC)C1C(O)C(C(C)O)(CC(O)(C2)N1C6)C53O

>  <smiles>  (371) 
[H]OC1([H])C2([H])C([H])([H])N3C4([H])C([H])(O[H])C5(C([H])(O[H])C([H])([H])[H])C([H])([H])C3(O[H])C([H])([H])C3(OC([H])([H])[H])C([H])([H])C6([H])C([H])(C([H])([H])C1([H])C65O[H])C4(OC([H])([H])[H])C3([H])C2([H])[H]

$$$$
104:0:0
     RDKit          3D

 16 17  0  0  1  0  0  0  0  0999 V2000
    0.4757   -8.8892    7.6690 C   0  0  0  0  0  0  0  0  0  0  0  0
    0.2210   -8.2634    6.3127 C   0  0  0  0  0  0  0  0  0  0  0  0
    0.2871   -6.8576    6.1229 C   0  0  0  0  0  0  0  0  0  0  0  0
    0.0527   -6.2432    4.9666 N   0  0  0  0  0  0  0  0  0  0  0  0
   -0.2447   -7.0280    3.9187 C   0  0  0  0  0  0  0  0  0  0  0  0
   -0.5299   -6.6990    2.6582 N   0  0  0  0  0  0  0  0  0  0  0  0
   -0.7368   -7.9171    2.0714 C   0  0  0  0  0  0  0  0  0  0  0  0
   -0.6551   -8.9815    2.8594 N   0  0  0  0  0  0  0  0  0  0  0  0
   -0.3207   -8.4239    4.0452 N   0  0  0  0  0  0  0  0  0  0  0  0
   -0.0905   -9.0559    5.2292 C   0  0  0  0  0  0  0  0  0  0  0  0
    0.7074   -8.1316    8.4163 H   0  0  0  0  0  0  0  0  0  0  0  0
    1.3150   -9.5835    7.6193 H   0  0  0  0  0  0  0  0  0  0  0  0
   -0.4036   -9.4380    8.0062 H   0  0  0  0  0  0  0  0  0  0  0  0
    0.5278   -6.2071    6.9598 H   0  0  0  0  0  0  0  0  0  0  0  0
   -0.9793   -8.0244    1.0212 H   0  0  0  0  0  0  0  0  0  0  0  0
   -0.1833  -10.1394    5.2558 H   0  0  0  0  0  0  0  0  0  0  0  0
  1  2  1  0
  1 11  1  0
  1 12  1  0
  1 13  1  0
  2 10  2  0
  2  3  1  0
  3  4  2  0
  3 14  1  0
  4  5  1  0
  5  9  1  0
  5  6  2  0
  6  7  1  0
  7  8  2  0
  7 15  1  0
  8  9  1  0
  9 10  1  0
 10 16  1  0
M  END
>  <i_m_ct_stereo_status>  (372) 
1

>  <s_m_source_file>  (372) 
/var/tmp/pbs.5076255.sched01/tmpfsvwwkaa/138cw1meju8.sdf

>  <i_m_source_file_index>  (372) 
21

>  <i_lp_mmshare_version>  (372) 
48012

>  <i_f3d_flags>  (372) 
0

>  <s_epik_input>  (372) 
bjFbY0hdYyhbQ0gzXSlbY0hdbihjMTIpbltjSF1uMg==

>  <s_epik_cmdline>  (372) 
J2VwaWtfcHl0aG9uJywgJy1waHQnLCAnMi4wJywgJy1waCcsICc3LjAnLCAnLXRuJywgJzgnLCAnLW1hJywgJzIwMCcsICctaW1hZScsICc8aW5maWxlLm1hZT4nLCAnLW9tYWUnLCAnPG91dGZpbGUubWFlPic=

>  <r_lp_tautomer_probability>  (372) 
1

>  <r_epik_Ionization_Penalty>  (372) 
2.80444e-07

>  <r_epik_Ionization_Penalty_Charging>  (372) 
0

>  <r_epik_Ionization_Penalty_Neutral>  (372) 
2.80444e-07

>  <r_epik_State_Penalty>  (372) 
-0

>  <r_epik_Charging_Adjusted_Penalty>  (372) 
0

>  <i_epik_Tot_Q>  (372) 
0

>  <i_epik_Tot_abs_Q>  (372) 
0

>  <s_lp_Force_Field>  (372) 
OPLS3e

>  <r_lp_Energy>  (372) 
12.869

>  <b_lp_Chiralities_Consistent>  (372) 
1

>  <s_lp_Variant>  (372) 
104:0-1

>  <s_i_glide_gridfile>  (372) 
pfpi4k_grid

>  <i_i_glide_lignum>  (372) 
21

>  <i_i_glide_rotatable_bonds>  (372) 
0

>  <r_i_docking_score>  (372) 
-3.89101

>  <r_i_glide_ligand_efficiency>  (372) 
-0.389101

>  <r_i_glide_ligand_efficiency_sa>  (372) 
-0.838293

>  <r_i_glide_ligand_efficiency_ln>  (372) 
-1.17817

>  <r_i_glide_gscore>  (372) 
-3.89101

>  <r_i_glide_lipo>  (372) 
0

>  <r_i_glide_hbond>  (372) 
-0.16

>  <r_i_glide_metal>  (372) 
-0

>  <r_i_glide_rewards>  (372) 
-2.25

>  <r_i_glide_evdw>  (372) 
-11.6709

>  <r_i_glide_ecoul>  (372) 
-4.80778

>  <r_i_glide_erotb>  (372) 
0

>  <r_i_glide_esite>  (372) 
-0.176301

>  <r_i_glide_emodel>  (372) 
-21.4689

>  <r_i_glide_energy>  (372) 
-16.4787

>  <r_i_glide_einternal>  (372) 
0

>  <r_i_glide_intrahb_reward>  (372) 
-0

>  <i_i_glide_confnum>  (372) 
1

>  <i_i_glide_posenum>  (372) 
1

>  <r_i_glide_eff_state_penalty>  (372) 
0

>  <ligand_id>  (372) 
104

>  <original_smiles>  (372) 
Cc1cnc2ncnn2c1

>  <smiles>  (372) 
[H]c1nc2nc([H])c(C([H])([H])[H])c([H])n2n1

$$$$
104:0:1
     RDKit          3D

 16 17  0  0  1  0  0  0  0  0999 V2000
    3.3591   -0.0251   -4.6658 C   0  0  0  0  0  0  0  0  0  0  0  0
    3.4151   -1.0026   -3.5129 C   0  0  0  0  0  0  0  0  0  0  0  0
    2.6187   -2.1787   -3.4958 C   0  0  0  0  0  0  0  0  0  0  0  0
    2.6073   -3.0557   -2.4995 N   0  0  0  0  0  0  0  0  0  0  0  0
    3.3996   -2.7943   -1.4457 C   0  0  0  0  0  0  0  0  0  0  0  0
    3.5998   -3.4778   -0.3214 N   0  0  0  0  0  0  0  0  0  0  0  0
    4.5246   -2.7278    0.3457 C   0  0  0  0  0  0  0  0  0  0  0  0
    4.9402   -1.6225   -0.2630 N   0  0  0  0  0  0  0  0  0  0  0  0
    4.2125   -1.6483   -1.4084 N   0  0  0  0  0  0  0  0  0  0  0  0
    4.2221   -0.7449   -2.4259 C   0  0  0  0  0  0  0  0  0  0  0  0
    2.6609   -0.3485   -5.4322 H   0  0  0  0  0  0  0  0  0  0  0  0
    4.3422    0.0817   -5.1173 H   0  0  0  0  0  0  0  0  0  0  0  0
    3.0245    0.9521   -4.3216 H   0  0  0  0  0  0  0  0  0  0  0  0
    1.9480   -2.3949   -4.3209 H   0  0  0  0  0  0  0  0  0  0  0  0
    4.9151   -3.0184    1.3134 H   0  0  0  0  0  0  0  0  0  0  0  0
    4.8532    0.1314   -2.3183 H   0  0  0  0  0  0  0  0  0  0  0  0
  1  2  1  0
  1 11  1  0
  1 12  1  0
  1 13  1  0
  2 10  2  0
  2  3  1  0
  3  4  2  0
  3 14  1  0
  4  5  1  0
  5  9  1  0
  5  6  2  0
  6  7  1  0
  7  8  2  0
  7 15  1  0
  8  9  1  0
  9 10  1  0
 10 16  1  0
M  END
>  <i_m_ct_stereo_status>  (373) 
1

>  <s_m_source_file>  (373) 
/var/tmp/pbs.5076255.sched01/tmpfsvwwkaa/138cw1meju8.sdf

>  <i_m_source_file_index>  (373) 
21

>  <i_lp_mmshare_version>  (373) 
48012

>  <i_f3d_flags>  (373) 
0

>  <s_epik_input>  (373) 
bjFbY0hdYyhbQ0gzXSlbY0hdbihjMTIpbltjSF1uMg==

>  <s_epik_cmdline>  (373) 
J2VwaWtfcHl0aG9uJywgJy1waHQnLCAnMi4wJywgJy1waCcsICc3LjAnLCAnLXRuJywgJzgnLCAnLW1hJywgJzIwMCcsICctaW1hZScsICc8aW5maWxlLm1hZT4nLCAnLW9tYWUnLCAnPG91dGZpbGUubWFlPic=

>  <r_lp_tautomer_probability>  (373) 
1

>  <r_epik_Ionization_Penalty>  (373) 
2.80444e-07

>  <r_epik_Ionization_Penalty_Charging>  (373) 
0

>  <r_epik_Ionization_Penalty_Neutral>  (373) 
2.80444e-07

>  <r_epik_State_Penalty>  (373) 
-0

>  <r_epik_Charging_Adjusted_Penalty>  (373) 
0

>  <i_epik_Tot_Q>  (373) 
0

>  <i_epik_Tot_abs_Q>  (373) 
0

>  <s_lp_Force_Field>  (373) 
OPLS3e

>  <r_lp_Energy>  (373) 
12.869

>  <b_lp_Chiralities_Consistent>  (373) 
1

>  <s_lp_Variant>  (373) 
104:0-1

>  <s_i_glide_gridfile>  (373) 
pfpi4k_grid

>  <i_i_glide_lignum>  (373) 
21

>  <i_i_glide_rotatable_bonds>  (373) 
0

>  <r_i_docking_score>  (373) 
-3.80441

>  <r_i_glide_ligand_efficiency>  (373) 
-0.380441

>  <r_i_glide_ligand_efficiency_sa>  (373) 
-0.819634

>  <r_i_glide_ligand_efficiency_ln>  (373) 
-1.15195

>  <r_i_glide_gscore>  (373) 
-3.80441

>  <r_i_glide_lipo>  (373) 
-0.632685

>  <r_i_glide_hbond>  (373) 
0

>  <r_i_glide_metal>  (373) 
-0

>  <r_i_glide_rewards>  (373) 
-2.25512

>  <r_i_glide_evdw>  (373) 
-18.7104

>  <r_i_glide_ecoul>  (373) 
0.544612

>  <r_i_glide_erotb>  (373) 
0

>  <r_i_glide_esite>  (373) 
-0.0627685

>  <r_i_glide_emodel>  (373) 
-23.0443

>  <r_i_glide_energy>  (373) 
-18.1658

>  <r_i_glide_einternal>  (373) 
0

>  <r_i_glide_intrahb_reward>  (373) 
-0

>  <i_i_glide_confnum>  (373) 
2

>  <i_i_glide_posenum>  (373) 
33

>  <r_i_glide_eff_state_penalty>  (373) 
0

>  <ligand_id>  (373) 
104

>  <original_smiles>  (373) 
Cc1cnc2ncnn2c1

>  <smiles>  (373) 
[H]c1nc2nc([H])c(C([H])([H])[H])c([H])n2n1

$$$$
104:0:2
     RDKit          3D

 16 17  0  0  1  0  0  0  0  0999 V2000
    3.3716   -1.5918   -3.7097 C   0  0  0  0  0  0  0  0  0  0  0  0
    3.7845   -2.5458   -2.6031 C   0  0  0  0  0  0  0  0  0  0  0  0
    5.1214   -2.9984   -2.4804 C   0  0  0  0  0  0  0  0  0  0  0  0
    5.5603   -3.8209   -1.5346 N   0  0  0  0  0  0  0  0  0  0  0  0
    4.6499   -4.2624   -0.6498 C   0  0  0  0  0  0  0  0  0  0  0  0
    4.7894   -5.0835    0.3868 N   0  0  0  0  0  0  0  0  0  0  0  0
    3.5324   -5.1434    0.9116 C   0  0  0  0  0  0  0  0  0  0  0  0
    2.6019   -4.4212    0.2994 N   0  0  0  0  0  0  0  0  0  0  0  0
    3.3096   -3.8516   -0.7115 N   0  0  0  0  0  0  0  0  0  0  0  0
    2.8647   -3.0018   -1.6793 C   0  0  0  0  0  0  0  0  0  0  0  0
    4.2102   -1.3236   -4.3554 H   0  0  0  0  0  0  0  0  0  0  0  0
    2.9633   -0.6724   -3.2883 H   0  0  0  0  0  0  0  0  0  0  0  0
    2.5972   -2.0452   -4.3284 H   0  0  0  0  0  0  0  0  0  0  0  0
    5.8672   -2.6616   -3.1899 H   0  0  0  0  0  0  0  0  0  0  0  0
    3.3007   -5.7400    1.7825 H   0  0  0  0  0  0  0  0  0  0  0  0
    1.8176   -2.7211   -1.6677 H   0  0  0  0  0  0  0  0  0  0  0  0
  1  2  1  0
  1 11  1  0
  1 12  1  0
  1 13  1  0
  2 10  2  0
  2  3  1  0
  3  4  2  0
  3 14  1  0
  4  5  1  0
  5  9  1  0
  5  6  2  0
  6  7  1  0
  7  8  2  0
  7 15  1  0
  8  9  1  0
  9 10  1  0
 10 16  1  0
M  END
>  <i_m_ct_stereo_status>  (374) 
1

>  <s_m_source_file>  (374) 
/var/tmp/pbs.5076255.sched01/tmpfsvwwkaa/138cw1meju8.sdf

>  <i_m_source_file_index>  (374) 
21

>  <i_lp_mmshare_version>  (374) 
48012

>  <i_f3d_flags>  (374) 
0

>  <s_epik_input>  (374) 
bjFbY0hdYyhbQ0gzXSlbY0hdbihjMTIpbltjSF1uMg==

>  <s_epik_cmdline>  (374) 
J2VwaWtfcHl0aG9uJywgJy1waHQnLCAnMi4wJywgJy1waCcsICc3LjAnLCAnLXRuJywgJzgnLCAnLW1hJywgJzIwMCcsICctaW1hZScsICc8aW5maWxlLm1hZT4nLCAnLW9tYWUnLCAnPG91dGZpbGUubWFlPic=

>  <r_lp_tautomer_probability>  (374) 
1

>  <r_epik_Ionization_Penalty>  (374) 
2.80444e-07

>  <r_epik_Ionization_Penalty_Charging>  (374) 
0

>  <r_epik_Ionization_Penalty_Neutral>  (374) 
2.80444e-07

>  <r_epik_State_Penalty>  (374) 
-0

>  <r_epik_Charging_Adjusted_Penalty>  (374) 
0

>  <i_epik_Tot_Q>  (374) 
0

>  <i_epik_Tot_abs_Q>  (374) 
0

>  <s_lp_Force_Field>  (374) 
OPLS3e

>  <r_lp_Energy>  (374) 
12.869

>  <b_lp_Chiralities_Consistent>  (374) 
1

>  <s_lp_Variant>  (374) 
104:0-1

>  <s_i_glide_gridfile>  (374) 
pfpi4k_grid

>  <i_i_glide_lignum>  (374) 
21

>  <i_i_glide_rotatable_bonds>  (374) 
0

>  <r_i_docking_score>  (374) 
-3.68131

>  <r_i_glide_ligand_efficiency>  (374) 
-0.368131

>  <r_i_glide_ligand_efficiency_sa>  (374) 
-0.793115

>  <r_i_glide_ligand_efficiency_ln>  (374) 
-1.11468

>  <r_i_glide_gscore>  (374) 
-3.68131

>  <r_i_glide_lipo>  (374) 
-0.376231

>  <r_i_glide_hbond>  (374) 
0

>  <r_i_glide_metal>  (374) 
-0

>  <r_i_glide_rewards>  (374) 
-2.25

>  <r_i_glide_evdw>  (374) 
-15.2335

>  <r_i_glide_ecoul>  (374) 
-1.85337

>  <r_i_glide_erotb>  (374) 
0

>  <r_i_glide_esite>  (374) 
-0.0154019

>  <r_i_glide_emodel>  (374) 
-21.8093

>  <r_i_glide_energy>  (374) 
-17.0869

>  <r_i_glide_einternal>  (374) 
0

>  <r_i_glide_intrahb_reward>  (374) 
-0

>  <i_i_glide_confnum>  (374) 
2

>  <i_i_glide_posenum>  (374) 
9

>  <r_i_glide_eff_state_penalty>  (374) 
0

>  <ligand_id>  (374) 
104

>  <original_smiles>  (374) 
Cc1cnc2ncnn2c1

>  <smiles>  (374) 
[H]c1nc2nc([H])c(C([H])([H])[H])c([H])n2n1

$$$$
105:0:0
     RDKit          3D

 21 23  0  0  1  0  0  0  0  0999 V2000
    3.6107   -2.6321   -3.9175 C   0  0  0  0  0  0  0  0  0  0  0  0
    4.4692   -3.4593   -3.2274 C   0  0  0  0  0  0  0  0  0  0  0  0
    5.1243   -2.6667   -2.2936 N   0  0  0  0  0  0  0  0  0  0  0  0
    6.0775   -3.0741   -1.3373 C   0  0  0  0  0  0  0  0  0  0  0  0
    7.4107   -2.7724   -1.5085 C   0  0  0  0  0  0  0  0  0  0  0  0
    8.3323   -3.1790   -0.5123 C   0  0  0  0  0  0  0  0  0  0  0  0
    8.0021   -3.8453    0.5870 N   0  0  0  0  0  0  0  0  0  0  0  0
    6.6991   -4.1362    0.7526 C   0  0  0  0  0  0  0  0  0  0  0  0
    6.0069   -4.7764    1.7424 C   0  0  0  0  0  0  0  0  0  0  0  0
    4.6587   -4.7647    1.3121 C   0  0  0  0  0  0  0  0  0  0  0  0
    4.4726   -4.1643    0.1595 N   0  0  0  0  0  0  0  0  0  0  0  0
    5.7299   -3.7606   -0.2078 N   0  0  0  0  0  0  0  0  0  0  0  0
    4.6381   -1.4311   -2.4730 C   0  0  0  0  0  0  0  0  0  0  0  0
    3.7550   -1.3282   -3.4592 N   0  0  0  0  0  0  0  0  0  0  0  0
    2.9090   -2.8737   -4.7056 H   0  0  0  0  0  0  0  0  0  0  0  0
    4.6351   -4.5271   -3.3109 H   0  0  0  0  0  0  0  0  0  0  0  0
    7.7623   -2.2758   -2.4050 H   0  0  0  0  0  0  0  0  0  0  0  0
    9.3885   -2.9584   -0.6365 H   0  0  0  0  0  0  0  0  0  0  0  0
    6.4007   -5.1966    2.6546 H   0  0  0  0  0  0  0  0  0  0  0  0
    3.8088   -5.1850    1.8309 H   0  0  0  0  0  0  0  0  0  0  0  0
    4.9597   -0.5822   -1.8882 H   0  0  0  0  0  0  0  0  0  0  0  0
  1 14  1  0
  1  2  2  0
  1 15  1  0
  2  3  1  0
  2 16  1  0
  3  4  1  0
  3 13  1  0
  4 12  1  0
  4  5  2  0
  5  6  1  0
  5 17  1  0
  6  7  2  0
  6 18  1  0
  7  8  1  0
  8 12  1  0
  8  9  2  0
  9 10  1  0
  9 19  1  0
 10 11  2  0
 10 20  1  0
 11 12  1  0
 13 14  2  0
 13 21  1  0
M  END
>  <i_m_ct_stereo_status>  (375) 
1

>  <s_m_source_file>  (375) 
/var/tmp/pbs.5076255.sched01/tmpfsvwwkaa/138cw1meju8.sdf

>  <i_m_source_file_index>  (375) 
22

>  <i_lp_mmshare_version>  (375) 
48012

>  <i_f3d_flags>  (375) 
0

>  <s_epik_input>  (375) 
W2NIXTFuW2NIXVtjSF1uMS1jKFtjSF1bY0hdbjIpbihjMjMpbltjSF1bY0hdMw==

>  <s_epik_cmdline>  (375) 
J2VwaWtfcHl0aG9uJywgJy1waHQnLCAnMi4wJywgJy1waCcsICc3LjAnLCAnLXRuJywgJzgnLCAnLW1hJywgJzIwMCcsICctaW1hZScsICc8aW5maWxlLm1hZT4nLCAnLW9tYWUnLCAnPG91dGZpbGUubWFlPic=

>  <r_lp_tautomer_probability>  (375) 
1

>  <r_epik_Ionization_Penalty>  (375) 
0.0370699

>  <r_epik_Ionization_Penalty_Charging>  (375) 
0.0370699

>  <r_epik_Ionization_Penalty_Neutral>  (375) 
8.83937e-11

>  <r_epik_State_Penalty>  (375) 
0.0310055

>  <r_epik_Charging_Adjusted_Penalty>  (375) 
0.0680754

>  <i_epik_Tot_Q>  (375) 
0

>  <i_epik_Tot_abs_Q>  (375) 
0

>  <s_lp_Force_Field>  (375) 
OPLS3e

>  <r_lp_Energy>  (375) 
22.2012

>  <b_lp_Chiralities_Consistent>  (375) 
1

>  <s_lp_Variant>  (375) 
105:0-1

>  <s_i_glide_gridfile>  (375) 
pfpi4k_grid

>  <i_i_glide_lignum>  (375) 
22

>  <i_i_glide_rotatable_bonds>  (375) 
1

>  <r_i_docking_score>  (375) 
-3.83151

>  <r_i_glide_ligand_efficiency>  (375) 
-0.27368

>  <r_i_glide_ligand_efficiency_sa>  (375) 
-0.659607

>  <r_i_glide_ligand_efficiency_ln>  (375) 
-1.05289

>  <r_i_glide_gscore>  (375) 
-3.83151

>  <r_i_glide_lipo>  (375) 
-0.339368

>  <r_i_glide_hbond>  (375) 
0

>  <r_i_glide_metal>  (375) 
-0

>  <r_i_glide_rewards>  (375) 
-2.64203

>  <r_i_glide_evdw>  (375) 
-23.76

>  <r_i_glide_ecoul>  (375) 
-0.594676

>  <r_i_glide_erotb>  (375) 
0.463908

>  <r_i_glide_esite>  (375) 
-0.0368215

>  <r_i_glide_emodel>  (375) 
-30.08

>  <r_i_glide_energy>  (375) 
-24.3547

>  <r_i_glide_einternal>  (375) 
1.72818

>  <r_i_glide_intrahb_reward>  (375) 
-0

>  <i_i_glide_confnum>  (375) 
4

>  <i_i_glide_posenum>  (375) 
4

>  <r_i_glide_eff_state_penalty>  (375) 
0

>  <ligand_id>  (375) 
105

>  <original_smiles>  (375) 
c1cn(-c2ccnc3ccnn23)cn1

>  <smiles>  (375) 
[H]c1nc2c([H])c([H])nn2c(-n2c([H])nc([H])c2[H])c1[H]

$$$$
105:0:1
     RDKit          3D

 21 23  0  0  1  0  0  0  0  0999 V2000
   -1.6122   -8.3620    3.0987 C   0  0  0  0  0  0  0  0  0  0  0  0
   -0.4995   -8.9101    2.5035 C   0  0  0  0  0  0  0  0  0  0  0  0
    0.4972   -7.9390    2.5364 N   0  0  0  0  0  0  0  0  0  0  0  0
    1.8198   -8.0346    2.0402 C   0  0  0  0  0  0  0  0  0  0  0  0
    2.5005   -9.2320    2.1239 C   0  0  0  0  0  0  0  0  0  0  0  0
    3.8252   -9.3028    1.6324 C   0  0  0  0  0  0  0  0  0  0  0  0
    4.4784   -8.2816    1.0880 N   0  0  0  0  0  0  0  0  0  0  0  0
    3.8158   -7.1154    1.0040 C   0  0  0  0  0  0  0  0  0  0  0  0
    4.1569   -5.8906    0.5030 C   0  0  0  0  0  0  0  0  0  0  0  0
    3.0141   -5.0807    0.6968 C   0  0  0  0  0  0  0  0  0  0  0  0
    2.0043   -5.7104    1.2513 N   0  0  0  0  0  0  0  0  0  0  0  0
    2.4858   -6.9810    1.4728 N   0  0  0  0  0  0  0  0  0  0  0  0
   -0.0634   -6.8899    3.1563 C   0  0  0  0  0  0  0  0  0  0  0  0
   -1.3356   -7.0576    3.4937 N   0  0  0  0  0  0  0  0  0  0  0  0
   -2.5791   -8.8071    3.2706 H   0  0  0  0  0  0  0  0  0  0  0  0
   -0.3505   -9.8920    2.0697 H   0  0  0  0  0  0  0  0  0  0  0  0
    2.0338  -10.1037    2.5673 H   0  0  0  0  0  0  0  0  0  0  0  0
    4.3684  -10.2404    1.7037 H   0  0  0  0  0  0  0  0  0  0  0  0
    5.0900   -5.6084    0.0423 H   0  0  0  0  0  0  0  0  0  0  0  0
    2.9083   -4.0378    0.4326 H   0  0  0  0  0  0  0  0  0  0  0  0
    0.4602   -5.9631    3.3501 H   0  0  0  0  0  0  0  0  0  0  0  0
  1 14  1  0
  1  2  2  0
  1 15  1  0
  2  3  1  0
  2 16  1  0
  3  4  1  0
  3 13  1  0
  4 12  1  0
  4  5  2  0
  5  6  1  0
  5 17  1  0
  6  7  2  0
  6 18  1  0
  7  8  1  0
  8 12  1  0
  8  9  2  0
  9 10  1  0
  9 19  1  0
 10 11  2  0
 10 20  1  0
 11 12  1  0
 13 14  2  0
 13 21  1  0
M  END
>  <i_m_ct_stereo_status>  (376) 
1

>  <s_m_source_file>  (376) 
/var/tmp/pbs.5076255.sched01/tmpfsvwwkaa/138cw1meju8.sdf

>  <i_m_source_file_index>  (376) 
22

>  <i_lp_mmshare_version>  (376) 
48012

>  <i_f3d_flags>  (376) 
0

>  <s_epik_input>  (376) 
W2NIXTFuW2NIXVtjSF1uMS1jKFtjSF1bY0hdbjIpbihjMjMpbltjSF1bY0hdMw==

>  <s_epik_cmdline>  (376) 
J2VwaWtfcHl0aG9uJywgJy1waHQnLCAnMi4wJywgJy1waCcsICc3LjAnLCAnLXRuJywgJzgnLCAnLW1hJywgJzIwMCcsICctaW1hZScsICc8aW5maWxlLm1hZT4nLCAnLW9tYWUnLCAnPG91dGZpbGUubWFlPic=

>  <r_lp_tautomer_probability>  (376) 
1

>  <r_epik_Ionization_Penalty>  (376) 
0.0370699

>  <r_epik_Ionization_Penalty_Charging>  (376) 
0.0370699

>  <r_epik_Ionization_Penalty_Neutral>  (376) 
8.83937e-11

>  <r_epik_State_Penalty>  (376) 
0.0310055

>  <r_epik_Charging_Adjusted_Penalty>  (376) 
0.0680754

>  <i_epik_Tot_Q>  (376) 
0

>  <i_epik_Tot_abs_Q>  (376) 
0

>  <s_lp_Force_Field>  (376) 
OPLS3e

>  <r_lp_Energy>  (376) 
22.2012

>  <b_lp_Chiralities_Consistent>  (376) 
1

>  <s_lp_Variant>  (376) 
105:0-1

>  <s_i_glide_gridfile>  (376) 
pfpi4k_grid

>  <i_i_glide_lignum>  (376) 
22

>  <i_i_glide_rotatable_bonds>  (376) 
1

>  <r_i_docking_score>  (376) 
-3.77638

>  <r_i_glide_ligand_efficiency>  (376) 
-0.269741

>  <r_i_glide_ligand_efficiency_sa>  (376) 
-0.650115

>  <r_i_glide_ligand_efficiency_ln>  (376) 
-1.03773

>  <r_i_glide_gscore>  (376) 
-3.77638

>  <r_i_glide_lipo>  (376) 
-0.0978382

>  <r_i_glide_hbond>  (376) 
-0.105489

>  <r_i_glide_metal>  (376) 
-0

>  <r_i_glide_rewards>  (376) 
-2.27885

>  <r_i_glide_evdw>  (376) 
-19.905

>  <r_i_glide_ecoul>  (376) 
-4.16011

>  <r_i_glide_erotb>  (376) 
0.463908

>  <r_i_glide_esite>  (376) 
-0.138835

>  <r_i_glide_emodel>  (376) 
-30.4746

>  <r_i_glide_energy>  (376) 
-24.0651

>  <r_i_glide_einternal>  (376) 
0.189195

>  <r_i_glide_intrahb_reward>  (376) 
-0

>  <i_i_glide_confnum>  (376) 
6

>  <i_i_glide_posenum>  (376) 
22

>  <r_i_glide_eff_state_penalty>  (376) 
0

>  <ligand_id>  (376) 
105

>  <original_smiles>  (376) 
c1cn(-c2ccnc3ccnn23)cn1

>  <smiles>  (376) 
[H]c1nc2c([H])c([H])nn2c(-n2c([H])nc([H])c2[H])c1[H]

$$$$
105:0:2
     RDKit          3D

 21 23  0  0  1  0  0  0  0  0999 V2000
    0.4954   -2.2318    4.4496 C   0  0  0  0  0  0  0  0  0  0  0  0
    0.4660   -0.9069    4.0701 C   0  0  0  0  0  0  0  0  0  0  0  0
   -0.6552   -0.3413    4.6696 N   0  0  0  0  0  0  0  0  0  0  0  0
   -1.0931    1.0027    4.6062 C   0  0  0  0  0  0  0  0  0  0  0  0
   -0.9901    1.7262    3.4359 C   0  0  0  0  0  0  0  0  0  0  0  0
   -1.4576    3.0646    3.4137 C   0  0  0  0  0  0  0  0  0  0  0  0
   -1.9894    3.6902    4.4616 N   0  0  0  0  0  0  0  0  0  0  0  0
   -2.0767    2.9864    5.6039 C   0  0  0  0  0  0  0  0  0  0  0  0
   -2.5443    3.2951    6.8528 C   0  0  0  0  0  0  0  0  0  0  0  0
   -2.3373    2.1345    7.6269 C   0  0  0  0  0  0  0  0  0  0  0  0
   -1.8178    1.1346    6.9532 N   0  0  0  0  0  0  0  0  0  0  0  0
   -1.6332    1.6457    5.6886 N   0  0  0  0  0  0  0  0  0  0  0  0
   -1.2304   -1.3473    5.3443 C   0  0  0  0  0  0  0  0  0  0  0  0
   -0.5863   -2.5035    5.2806 N   0  0  0  0  0  0  0  0  0  0  0  0
    1.1964   -3.0145    4.1934 H   0  0  0  0  0  0  0  0  0  0  0  0
    1.1466   -0.3441    3.4465 H   0  0  0  0  0  0  0  0  0  0  0  0
   -0.5777    1.2811    2.5370 H   0  0  0  0  0  0  0  0  0  0  0  0
   -1.3843    3.6388    2.4941 H   0  0  0  0  0  0  0  0  0  0  0  0
   -2.9729    4.2185    7.2002 H   0  0  0  0  0  0  0  0  0  0  0  0
   -2.5791    2.0051    8.6746 H   0  0  0  0  0  0  0  0  0  0  0  0
   -2.1431   -1.2297    5.9117 H   0  0  0  0  0  0  0  0  0  0  0  0
  1 14  1  0
  1  2  2  0
  1 15  1  0
  2  3  1  0
  2 16  1  0
  3  4  1  0
  3 13  1  0
  4 12  1  0
  4  5  2  0
  5  6  1  0
  5 17  1  0
  6  7  2  0
  6 18  1  0
  7  8  1  0
  8 12  1  0
  8  9  2  0
  9 10  1  0
  9 19  1  0
 10 11  2  0
 10 20  1  0
 11 12  1  0
 13 14  2  0
 13 21  1  0
M  END
>  <i_m_ct_stereo_status>  (377) 
1

>  <s_m_source_file>  (377) 
/var/tmp/pbs.5076255.sched01/tmpfsvwwkaa/138cw1meju8.sdf

>  <i_m_source_file_index>  (377) 
22

>  <i_lp_mmshare_version>  (377) 
48012

>  <i_f3d_flags>  (377) 
0

>  <s_epik_input>  (377) 
W2NIXTFuW2NIXVtjSF1uMS1jKFtjSF1bY0hdbjIpbihjMjMpbltjSF1bY0hdMw==

>  <s_epik_cmdline>  (377) 
J2VwaWtfcHl0aG9uJywgJy1waHQnLCAnMi4wJywgJy1waCcsICc3LjAnLCAnLXRuJywgJzgnLCAnLW1hJywgJzIwMCcsICctaW1hZScsICc8aW5maWxlLm1hZT4nLCAnLW9tYWUnLCAnPG91dGZpbGUubWFlPic=

>  <r_lp_tautomer_probability>  (377) 
1

>  <r_epik_Ionization_Penalty>  (377) 
0.0370699

>  <r_epik_Ionization_Penalty_Charging>  (377) 
0.0370699

>  <r_epik_Ionization_Penalty_Neutral>  (377) 
8.83937e-11

>  <r_epik_State_Penalty>  (377) 
0.0310055

>  <r_epik_Charging_Adjusted_Penalty>  (377) 
0.0680754

>  <i_epik_Tot_Q>  (377) 
0

>  <i_epik_Tot_abs_Q>  (377) 
0

>  <s_lp_Force_Field>  (377) 
OPLS3e

>  <r_lp_Energy>  (377) 
22.2012

>  <b_lp_Chiralities_Consistent>  (377) 
1

>  <s_lp_Variant>  (377) 
105:0-1

>  <s_i_glide_gridfile>  (377) 
pfpi4k_grid

>  <i_i_glide_lignum>  (377) 
22

>  <i_i_glide_rotatable_bonds>  (377) 
1

>  <r_i_docking_score>  (377) 
-3.53171

>  <r_i_glide_ligand_efficiency>  (377) 
-0.252265

>  <r_i_glide_ligand_efficiency_sa>  (377) 
-0.607995

>  <r_i_glide_ligand_efficiency_ln>  (377) 
-0.970501

>  <r_i_glide_gscore>  (377) 
-3.53171

>  <r_i_glide_lipo>  (377) 
-0.162564

>  <r_i_glide_hbond>  (377) 
-0.134055

>  <r_i_glide_metal>  (377) 
-0

>  <r_i_glide_rewards>  (377) 
-2.17897

>  <r_i_glide_evdw>  (377) 
-17.6739

>  <r_i_glide_ecoul>  (377) 
-3.51034

>  <r_i_glide_erotb>  (377) 
0.463908

>  <r_i_glide_esite>  (377) 
-0.109782

>  <r_i_glide_emodel>  (377) 
-27.0648

>  <r_i_glide_energy>  (377) 
-21.1843

>  <r_i_glide_einternal>  (377) 
0.269548

>  <r_i_glide_intrahb_reward>  (377) 
-0

>  <i_i_glide_confnum>  (377) 
3

>  <i_i_glide_posenum>  (377) 
2

>  <r_i_glide_eff_state_penalty>  (377) 
0

>  <ligand_id>  (377) 
105

>  <original_smiles>  (377) 
c1cn(-c2ccnc3ccnn23)cn1

>  <smiles>  (377) 
[H]c1nc2c([H])c([H])nn2c(-n2c([H])nc([H])c2[H])c1[H]

$$$$
105:1:0
     RDKit          3D

 22 24  0  0  1  0  0  0  0  0999 V2000
    3.1073  -11.8453    3.8503 C   0  0  0  0  0  0  0  0  0  0  0  0
    2.7631  -10.8359    2.9922 C   0  0  0  0  0  0  0  0  0  0  0  0
    1.6492  -10.2084    3.5074 N   0  0  0  0  0  0  0  0  0  0  0  0
    0.9852   -9.0910    2.9246 C   0  0  0  0  0  0  0  0  0  0  0  0
   -0.3846   -8.9627    3.0430 C   0  0  0  0  0  0  0  0  0  0  0  0
   -1.0185   -7.8447    2.4519 C   0  0  0  0  0  0  0  0  0  0  0  0
   -0.3913   -6.8783    1.7910 N   0  0  0  0  0  0  0  0  0  0  0  0
    0.9409   -7.0064    1.6665 C   0  0  0  0  0  0  0  0  0  0  0  0
    1.8902   -6.2286    1.0619 C   0  0  0  0  0  0  0  0  0  0  0  0
    3.1104   -6.8959    1.2980 C   0  0  0  0  0  0  0  0  0  0  0  0
    2.9875   -7.9983    1.9971 N   0  0  0  0  0  0  0  0  0  0  0  0
    1.6392   -8.1034    2.2296 N   0  0  0  0  0  0  0  0  0  0  0  0
    1.3049  -10.8356    4.6480 C   0  0  0  0  0  0  0  0  0  0  0  0
    2.1925  -11.8132    4.8652 N   0  0  0  0  0  0  0  0  0  0  0  0
    3.9134  -12.5643    3.7943 H   0  0  0  0  0  0  0  0  0  0  0  0
    3.2396  -10.5423    2.0598 H   0  0  0  0  0  0  0  0  0  0  0  0
   -0.9798   -9.7102    3.5619 H   0  0  0  0  0  0  0  0  0  0  0  0
   -2.0977   -7.7478    2.5173 H   0  0  0  0  0  0  0  0  0  0  0  0
    1.7778   -5.3023    0.5218 H   0  0  0  0  0  0  0  0  0  0  0  0
    4.0876   -6.5812    0.9657 H   0  0  0  0  0  0  0  0  0  0  0  0
    0.4724  -10.6097    5.2969 H   0  0  0  0  0  0  0  0  0  0  0  0
    2.1766  -12.4442    5.6651 H   0  0  0  0  0  0  0  0  0  0  0  0
  1 14  1  0
  1  2  2  0
  1 15  1  0
  2  3  1  0
  2 16  1  0
  3  4  1  0
  3 13  1  0
  4 12  1  0
  4  5  2  0
  5  6  1  0
  5 17  1  0
  6  7  2  0
  6 18  1  0
  7  8  1  0
  8 12  1  0
  8  9  2  0
  9 10  1  0
  9 19  1  0
 10 11  2  0
 10 20  1  0
 11 12  1  0
 13 14  2  0
 13 21  1  0
 14 22  1  0
M  CHG  1  14   1
M  END
>  <i_m_ct_stereo_status>  (378) 
1

>  <s_m_source_file>  (378) 
/var/tmp/pbs.5076255.sched01/tmpfsvwwkaa/138cw1meju8.sdf

>  <i_m_source_file_index>  (378) 
23

>  <i_lp_mmshare_version>  (378) 
48012

>  <i_f3d_flags>  (378) 
0

>  <s_epik_input>  (378) 
W2NIXTFuW2NIXVtjSF1uMS1jKFtjSF1bY0hdbjIpbihjMjMpbltjSF1bY0hdMw==

>  <s_epik_cmdline>  (378) 
J2VwaWtfcHl0aG9uJywgJy1waHQnLCAnMi4wJywgJy1waCcsICc3LjAnLCAnLXRuJywgJzgnLCAnLW1hJywgJzIwMCcsICctaW1hZScsICc8aW5maWxlLm1hZT4nLCAnLW9tYWUnLCAnPG91dGZpbGUubWFlPic=

>  <r_lp_tautomer_probability>  (378) 
1

>  <r_epik_Ionization_Penalty>  (378) 
1.66053

>  <r_epik_Ionization_Penalty_Charging>  (378) 
0

>  <r_epik_Ionization_Penalty_Neutral>  (378) 
1.66053

>  <r_epik_State_Penalty>  (378) 
1.76336

>  <r_epik_Charging_Adjusted_Penalty>  (378) 
1.76336

>  <i_epik_Tot_Q>  (378) 
1

>  <i_epik_Tot_abs_Q>  (378) 
1

>  <s_lp_Force_Field>  (378) 
OPLS3e

>  <r_lp_Energy>  (378) 
28.6613

>  <b_lp_Chiralities_Consistent>  (378) 
1

>  <s_lp_Variant>  (378) 
105:0-2

>  <s_i_glide_gridfile>  (378) 
pfpi4k_grid

>  <i_i_glide_lignum>  (378) 
23

>  <i_i_glide_rotatable_bonds>  (378) 
1

>  <r_i_docking_score>  (378) 
-5.15642

>  <r_i_glide_ligand_efficiency>  (378) 
-0.368316

>  <r_i_glide_ligand_efficiency_sa>  (378) 
-0.887693

>  <r_i_glide_ligand_efficiency_ln>  (378) 
-1.41697

>  <r_i_glide_gscore>  (378) 
-5.15642

>  <r_i_glide_lipo>  (378) 
-0.0564458

>  <r_i_glide_hbond>  (378) 
-0.343447

>  <r_i_glide_metal>  (378) 
-0

>  <r_i_glide_rewards>  (378) 
-2.7386

>  <r_i_glide_evdw>  (378) 
-18.8533

>  <r_i_glide_ecoul>  (378) 
-8.03676

>  <r_i_glide_erotb>  (378) 
0.32184

>  <r_i_glide_esite>  (378) 
-0.191586

>  <r_i_glide_emodel>  (378) 
-41.1826

>  <r_i_glide_energy>  (378) 
-26.8901

>  <r_i_glide_einternal>  (378) 
0.276111

>  <r_i_glide_intrahb_reward>  (378) 
-0

>  <i_i_glide_confnum>  (378) 
1

>  <i_i_glide_posenum>  (378) 
37

>  <r_i_glide_eff_state_penalty>  (378) 
0

>  <ligand_id>  (378) 
105

>  <original_smiles>  (378) 
c1cn(-c2ccnc3ccnn23)cn1

>  <smiles>  (378) 
[H]c1nc2c([H])c([H])nn2c(-n2c([H])c([H])[n+]([H])c2[H])c1[H]

$$$$
105:1:1
     RDKit          3D

 22 24  0  0  1  0  0  0  0  0999 V2000
    2.6305    0.7209    1.7854 C   0  0  0  0  0  0  0  0  0  0  0  0
    2.5946    1.7494    2.6959 C   0  0  0  0  0  0  0  0  0  0  0  0
    1.2910    2.1846    2.7708 N   0  0  0  0  0  0  0  0  0  0  0  0
    0.8268    3.2429    3.5928 C   0  0  0  0  0  0  0  0  0  0  0  0
    1.3780    4.5040    3.4850 C   0  0  0  0  0  0  0  0  0  0  0  0
    0.8614    5.5515    4.2891 C   0  0  0  0  0  0  0  0  0  0  0  0
   -0.1122    5.3995    5.1793 N   0  0  0  0  0  0  0  0  0  0  0  0
   -0.6198    4.1645    5.3102 C   0  0  0  0  0  0  0  0  0  0  0  0
   -1.5880    3.6499    6.1207 C   0  0  0  0  0  0  0  0  0  0  0  0
   -1.6633    2.2824    5.7750 C   0  0  0  0  0  0  0  0  0  0  0  0
   -0.8327    1.9217    4.8246 N   0  0  0  0  0  0  0  0  0  0  0  0
   -0.1663    3.0815    4.5191 N   0  0  0  0  0  0  0  0  0  0  0  0
    0.5457    1.4545    1.9239 C   0  0  0  0  0  0  0  0  0  0  0  0
    1.3508    0.5669    1.3223 N   0  0  0  0  0  0  0  0  0  0  0  0
    3.4599    0.1249    1.4291 H   0  0  0  0  0  0  0  0  0  0  0  0
    3.3940    2.2021    3.2735 H   0  0  0  0  0  0  0  0  0  0  0  0
    2.1467    4.7112    2.7459 H   0  0  0  0  0  0  0  0  0  0  0  0
    1.2586    6.5580    4.1857 H   0  0  0  0  0  0  0  0  0  0  0  0
   -2.1648    4.1650    6.8710 H   0  0  0  0  0  0  0  0  0  0  0  0
   -2.3235    1.5512    6.2160 H   0  0  0  0  0  0  0  0  0  0  0  0
   -0.5048    1.5804    1.7233 H   0  0  0  0  0  0  0  0  0  0  0  0
    1.0595   -0.0759    0.5765 H   0  0  0  0  0  0  0  0  0  0  0  0
  1 14  1  0
  1  2  2  0
  1 15  1  0
  2  3  1  0
  2 16  1  0
  3  4  1  0
  3 13  1  0
  4 12  1  0
  4  5  2  0
  5  6  1  0
  5 17  1  0
  6  7  2  0
  6 18  1  0
  7  8  1  0
  8 12  1  0
  8  9  2  0
  9 10  1  0
  9 19  1  0
 10 11  2  0
 10 20  1  0
 11 12  1  0
 13 14  2  0
 13 21  1  0
 14 22  1  0
M  CHG  1  14   1
M  END
>  <i_m_ct_stereo_status>  (379) 
1

>  <s_m_source_file>  (379) 
/var/tmp/pbs.5076255.sched01/tmpfsvwwkaa/138cw1meju8.sdf

>  <i_m_source_file_index>  (379) 
23

>  <i_lp_mmshare_version>  (379) 
48012

>  <i_f3d_flags>  (379) 
0

>  <s_epik_input>  (379) 
W2NIXTFuW2NIXVtjSF1uMS1jKFtjSF1bY0hdbjIpbihjMjMpbltjSF1bY0hdMw==

>  <s_epik_cmdline>  (379) 
J2VwaWtfcHl0aG9uJywgJy1waHQnLCAnMi4wJywgJy1waCcsICc3LjAnLCAnLXRuJywgJzgnLCAnLW1hJywgJzIwMCcsICctaW1hZScsICc8aW5maWxlLm1hZT4nLCAnLW9tYWUnLCAnPG91dGZpbGUubWFlPic=

>  <r_lp_tautomer_probability>  (379) 
1

>  <r_epik_Ionization_Penalty>  (379) 
1.66053

>  <r_epik_Ionization_Penalty_Charging>  (379) 
0

>  <r_epik_Ionization_Penalty_Neutral>  (379) 
1.66053

>  <r_epik_State_Penalty>  (379) 
1.76336

>  <r_epik_Charging_Adjusted_Penalty>  (379) 
1.76336

>  <i_epik_Tot_Q>  (379) 
1

>  <i_epik_Tot_abs_Q>  (379) 
1

>  <s_lp_Force_Field>  (379) 
OPLS3e

>  <r_lp_Energy>  (379) 
28.6613

>  <b_lp_Chiralities_Consistent>  (379) 
1

>  <s_lp_Variant>  (379) 
105:0-2

>  <s_i_glide_gridfile>  (379) 
pfpi4k_grid

>  <i_i_glide_lignum>  (379) 
23

>  <i_i_glide_rotatable_bonds>  (379) 
1

>  <r_i_docking_score>  (379) 
-4.16067

>  <r_i_glide_ligand_efficiency>  (379) 
-0.297191

>  <r_i_glide_ligand_efficiency_sa>  (379) 
-0.716272

>  <r_i_glide_ligand_efficiency_ln>  (379) 
-1.14334

>  <r_i_glide_gscore>  (379) 
-4.16067

>  <r_i_glide_lipo>  (379) 
-0.0444056

>  <r_i_glide_hbond>  (379) 
-0.2

>  <r_i_glide_metal>  (379) 
-0

>  <r_i_glide_rewards>  (379) 
-2.13959

>  <r_i_glide_evdw>  (379) 
-13.7177

>  <r_i_glide_ecoul>  (379) 
-8.11236

>  <r_i_glide_erotb>  (379) 
0.459772

>  <r_i_glide_esite>  (379) 
-0.333711

>  <r_i_glide_emodel>  (379) 
-33.1222

>  <r_i_glide_energy>  (379) 
-21.83

>  <r_i_glide_einternal>  (379) 
0.83612

>  <r_i_glide_intrahb_reward>  (379) 
-0

>  <i_i_glide_confnum>  (379) 
2

>  <i_i_glide_posenum>  (379) 
38

>  <r_i_glide_eff_state_penalty>  (379) 
0

>  <ligand_id>  (379) 
105

>  <original_smiles>  (379) 
c1cn(-c2ccnc3ccnn23)cn1

>  <smiles>  (379) 
[H]c1nc2c([H])c([H])nn2c(-n2c([H])c([H])[n+]([H])c2[H])c1[H]

$$$$
105:1:2
     RDKit          3D

 22 24  0  0  1  0  0  0  0  0999 V2000
   -0.9416    1.7856    2.8496 C   0  0  0  0  0  0  0  0  0  0  0  0
   -0.7163    0.5041    3.2697 C   0  0  0  0  0  0  0  0  0  0  0  0
    0.5007    0.0919    2.7603 N   0  0  0  0  0  0  0  0  0  0  0  0
    1.1099   -1.1951    2.9657 C   0  0  0  0  0  0  0  0  0  0  0  0
    2.0110   -1.6918    2.0407 C   0  0  0  0  0  0  0  0  0  0  0  0
    2.5945   -2.9677    2.2467 C   0  0  0  0  0  0  0  0  0  0  0  0
    2.3144   -3.7586    3.2728 N   0  0  0  0  0  0  0  0  0  0  0  0
    1.4453   -3.2895    4.1754 C   0  0  0  0  0  0  0  0  0  0  0  0
    0.9543   -3.8184    5.3335 C   0  0  0  0  0  0  0  0  0  0  0  0
    0.0686   -2.8414    5.8328 C   0  0  0  0  0  0  0  0  0  0  0  0
   -0.0159   -1.7654    5.0869 N   0  0  0  0  0  0  0  0  0  0  0  0
    0.8321   -2.0159    4.0370 N   0  0  0  0  0  0  0  0  0  0  0  0
    0.9973    1.1066    2.0253 C   0  0  0  0  0  0  0  0  0  0  0  0
    0.1354    2.1372    2.0807 N   0  0  0  0  0  0  0  0  0  0  0  0
   -1.7926    2.4276    3.0313 H   0  0  0  0  0  0  0  0  0  0  0  0
   -1.3640   -0.1218    3.8705 H   0  0  0  0  0  0  0  0  0  0  0  0
    2.2421   -1.1538    1.1286 H   0  0  0  0  0  0  0  0  0  0  0  0
    3.2813   -3.3783    1.5095 H   0  0  0  0  0  0  0  0  0  0  0  0
    1.2161   -4.7718    5.7675 H   0  0  0  0  0  0  0  0  0  0  0  0
   -0.5121   -2.8998    6.7418 H   0  0  0  0  0  0  0  0  0  0  0  0
    1.9161    1.0970    1.4630 H   0  0  0  0  0  0  0  0  0  0  0  0
    0.2144    3.0437    1.5786 H   0  0  0  0  0  0  0  0  0  0  0  0
  1 14  1  0
  1  2  2  0
  1 15  1  0
  2  3  1  0
  2 16  1  0
  3  4  1  0
  3 13  1  0
  4 12  1  0
  4  5  2  0
  5  6  1  0
  5 17  1  0
  6  7  2  0
  6 18  1  0
  7  8  1  0
  8 12  1  0
  8  9  2  0
  9 10  1  0
  9 19  1  0
 10 11  2  0
 10 20  1  0
 11 12  1  0
 13 14  2  0
 13 21  1  0
 14 22  1  0
M  CHG  1  14   1
M  END
>  <i_m_ct_stereo_status>  (380) 
1

>  <s_m_source_file>  (380) 
/var/tmp/pbs.5076255.sched01/tmpfsvwwkaa/138cw1meju8.sdf

>  <i_m_source_file_index>  (380) 
23

>  <i_lp_mmshare_version>  (380) 
48012

>  <i_f3d_flags>  (380) 
0

>  <s_epik_input>  (380) 
W2NIXTFuW2NIXVtjSF1uMS1jKFtjSF1bY0hdbjIpbihjMjMpbltjSF1bY0hdMw==

>  <s_epik_cmdline>  (380) 
J2VwaWtfcHl0aG9uJywgJy1waHQnLCAnMi4wJywgJy1waCcsICc3LjAnLCAnLXRuJywgJzgnLCAnLW1hJywgJzIwMCcsICctaW1hZScsICc8aW5maWxlLm1hZT4nLCAnLW9tYWUnLCAnPG91dGZpbGUubWFlPic=

>  <r_lp_tautomer_probability>  (380) 
1

>  <r_epik_Ionization_Penalty>  (380) 
1.66053

>  <r_epik_Ionization_Penalty_Charging>  (380) 
0

>  <r_epik_Ionization_Penalty_Neutral>  (380) 
1.66053

>  <r_epik_State_Penalty>  (380) 
1.76336

>  <r_epik_Charging_Adjusted_Penalty>  (380) 
1.76336

>  <i_epik_Tot_Q>  (380) 
1

>  <i_epik_Tot_abs_Q>  (380) 
1

>  <s_lp_Force_Field>  (380) 
OPLS3e

>  <r_lp_Energy>  (380) 
28.6613

>  <b_lp_Chiralities_Consistent>  (380) 
1

>  <s_lp_Variant>  (380) 
105:0-2

>  <s_i_glide_gridfile>  (380) 
pfpi4k_grid

>  <i_i_glide_lignum>  (380) 
23

>  <i_i_glide_rotatable_bonds>  (380) 
1

>  <r_i_docking_score>  (380) 
-4.09204

>  <r_i_glide_ligand_efficiency>  (380) 
-0.292289

>  <r_i_glide_ligand_efficiency_sa>  (380) 
-0.704457

>  <r_i_glide_ligand_efficiency_ln>  (380) 
-1.12448

>  <r_i_glide_gscore>  (380) 
-4.09204

>  <r_i_glide_lipo>  (380) 
0

>  <r_i_glide_hbond>  (380) 
-0.197396

>  <r_i_glide_metal>  (380) 
-0

>  <r_i_glide_rewards>  (380) 
-2.19178

>  <r_i_glide_evdw>  (380) 
-12.9642

>  <r_i_glide_ecoul>  (380) 
-8.70017

>  <r_i_glide_erotb>  (380) 
0.459772

>  <r_i_glide_esite>  (380) 
-0.209406

>  <r_i_glide_emodel>  (380) 
-32.6288

>  <r_i_glide_energy>  (380) 
-21.6643

>  <r_i_glide_einternal>  (380) 
0.73081

>  <r_i_glide_intrahb_reward>  (380) 
-0

>  <i_i_glide_confnum>  (380) 
6

>  <i_i_glide_posenum>  (380) 
3

>  <r_i_glide_eff_state_penalty>  (380) 
0

>  <ligand_id>  (380) 
105

>  <original_smiles>  (380) 
c1cn(-c2ccnc3ccnn23)cn1

>  <smiles>  (380) 
[H]c1nc2c([H])c([H])nn2c(-n2c([H])c([H])[n+]([H])c2[H])c1[H]

$$$$
107:0:0
     RDKit          3D

 45 48  0  0  1  0  0  0  0  0999 V2000
    1.1680   -7.1939    4.0878 C   0  0  0  0  0  0  0  0  0  0  0  0
    1.2666   -6.3457    2.8210 C   0  0  0  0  0  0  0  0  0  0  0  0
    0.3297   -6.2803    2.0282 O   0  0  0  0  0  0  0  0  0  0  0  0
    2.4655   -5.7273    2.7148 O   0  0  0  0  0  0  0  0  0  0  0  0
    2.7762   -4.8893    1.6049 C   0  0  2  0  0  0  0  0  0  0  0  0
    3.5771   -5.6857    0.5598 C   0  0  0  0  0  0  0  0  0  0  0  0
    4.8355   -4.8413    0.2505 C   0  0  2  0  0  0  0  0  0  0  0  0
    5.0955   -4.1978    1.6188 C   0  0  0  0  0  0  0  0  0  0  0  0
    3.7044   -3.7415    2.0562 C   0  0  1  0  0  0  0  0  0  0  0  0
    3.2619   -2.3734    1.4724 C   0  0  1  0  0  0  0  0  0  0  0  0
    3.7601   -1.3570    2.3314 O   0  0  0  0  0  0  0  0  0  0  0  0
    3.0485   -0.2691    2.7305 C   0  0  0  0  0  0  0  0  0  0  0  0
    1.6492   -0.0897    2.1224 C   0  0  0  0  0  0  0  0  0  0  0  0
    3.4959    0.5472    3.5260 O   0  0  0  0  0  0  0  0  0  0  0  0
    3.6377   -2.0045    0.0062 C   0  0  1  0  0  0  0  0  0  0  0  0
    5.1332   -1.7319   -0.2833 C   0  0  0  0  0  0  0  0  0  0  0  0
    5.5013   -2.8023   -1.2641 N   0  0  2  0  0  0  0  0  0  0  0  0
    4.9798   -2.3574   -2.5986 C   0  0  0  0  0  0  0  0  0  0  0  0
    3.4441   -2.4935   -2.4539 C   0  0  0  0  0  0  0  0  0  0  0  0
    3.3020   -3.0941   -1.0340 C   0  0  1  0  0  0  0  0  0  0  0  0
    4.5681   -3.9417   -0.9943 C   0  0  2  0  0  0  0  0  0  0  0  0
    1.3603   -6.5921    4.9757 H   0  0  0  0  0  0  0  0  0  0  0  0
    1.9037   -7.9961    4.0524 H   0  0  0  0  0  0  0  0  0  0  0  0
    0.1777   -7.6426    4.1833 H   0  0  0  0  0  0  0  0  0  0  0  0
    1.8721   -4.4788    1.1644 H   0  0  0  0  0  0  0  0  0  0  0  0
    3.8837   -6.6388    0.9942 H   0  0  0  0  0  0  0  0  0  0  0  0
    2.9777   -5.9065   -0.3214 H   0  0  0  0  0  0  0  0  0  0  0  0
    5.6689   -5.4974    0.0038 H   0  0  0  0  0  0  0  0  0  0  0  0
    5.4223   -4.9796    2.3121 H   0  0  0  0  0  0  0  0  0  0  0  0
    5.8715   -3.4364    1.6620 H   0  0  0  0  0  0  0  0  0  0  0  0
    3.6669   -3.6604    3.1432 H   0  0  0  0  0  0  0  0  0  0  0  0
    2.1737   -2.3979    1.5183 H   0  0  0  0  0  0  0  0  0  0  0  0
    1.0147   -0.9577    2.3094 H   0  0  0  0  0  0  0  0  0  0  0  0
    1.7219    0.0726    1.0524 H   0  0  0  0  0  0  0  0  0  0  0  0
    1.1658    0.8021    2.5338 H   0  0  0  0  0  0  0  0  0  0  0  0
    3.0874   -1.0985   -0.2523 H   0  0  0  0  0  0  0  0  0  0  0  0
    5.2472   -0.7311   -0.7219 H   0  0  0  0  0  0  0  0  0  0  0  0
    5.7661   -1.7238    0.6045 H   0  0  0  0  0  0  0  0  0  0  0  0
    5.2751   -1.3312   -2.8289 H   0  0  0  0  0  0  0  0  0  0  0  0
    5.3570   -3.0217   -3.3788 H   0  0  0  0  0  0  0  0  0  0  0  0
    2.9297   -1.5298   -2.5566 H   0  0  0  0  0  0  0  0  0  0  0  0
    3.0517   -3.1813   -3.2152 H   0  0  0  0  0  0  0  0  0  0  0  0
    2.3457   -3.6012   -0.8756 H   0  0  0  0  0  0  0  0  0  0  0  0
    4.5841   -4.6317   -1.8410 H   0  0  0  0  0  0  0  0  0  0  0  0
    6.4534   -3.0610   -1.2757 H   0  0  0  0  0  0  0  0  0  0  0  0
  1  2  1  0
  1 22  1  0
  1 23  1  0
  1 24  1  0
  2  3  2  0
  2  4  1  0
  4  5  1  0
  5  9  1  0
  5  6  1  0
  5 25  1  6
  6  7  1  0
  6 26  1  0
  6 27  1  0
  7 21  1  0
  7  8  1  0
  7 28  1  6
  8  9  1  0
  8 29  1  0
  8 30  1  0
  9 10  1  0
  9 31  1  1
 10 11  1  0
 10 15  1  0
 10 32  1  6
 11 12  1  0
 12 13  1  0
 12 14  2  0
 13 33  1  0
 13 34  1  0
 13 35  1  0
 15 20  1  0
 15 16  1  0
 15 36  1  6
 16 17  1  0
 16 37  1  0
 16 38  1  0
 17 21  1  0
 17 18  1  0
 17 45  1  6
 18 19  1  0
 18 39  1  0
 18 40  1  0
 19 20  1  0
 19 41  1  0
 19 42  1  0
 20 21  1  0
 20 43  1  1
 21 44  1  6
M  CHG  1  17   1
M  END
>  <i_m_ct_stereo_status>  (381) 
1

>  <s_m_source_file>  (381) 
/var/tmp/pbs.5076255.sched01/tmpfsvwwkaa/138cw1meju8.sdf

>  <i_m_source_file_index>  (381) 
25

>  <i_lp_mmshare_version>  (381) 
48012

>  <i_f3d_flags>  (381) 
0

>  <s_epik_input>  (381) 
W0NIM11DKD1PKU9bQ0BIXShbQ0gyXTEpW0NAQEhdKFtDSDJdMilbQ0BASF0oT0MoPU8pW0NIM10pW0NASF0oW0NASF0zW0NIMl1bQ0gyXTQpW0NIMl1ONFtDQEhdM1tDQEhdMTI=

>  <s_epik_cmdline>  (381) 
J2VwaWtfcHl0aG9uJywgJy1waHQnLCAnMi4wJywgJy1waCcsICc3LjAnLCAnLXRuJywgJzgnLCAnLW1hJywgJzIwMCcsICctaW1hZScsICc8aW5maWxlLm1hZT4nLCAnLW9tYWUnLCAnPG91dGZpbGUubWFlPic=

>  <r_epik_Ionization_Penalty>  (381) 
0.00150136

>  <r_epik_Ionization_Penalty_Charging>  (381) 
0.00150136

>  <r_epik_Ionization_Penalty_Neutral>  (381) 
0

>  <r_epik_State_Penalty>  (381) 
0.00100589

>  <r_epik_Charging_Adjusted_Penalty>  (381) 
0.00250725

>  <i_epik_Tot_Q>  (381) 
1

>  <i_epik_Tot_abs_Q>  (381) 
1

>  <s_epik_Chemistry_Notes>  (381) 
This compound has an ester and may undergo hydrolysis at high or low pH.

>  <s_lp_Force_Field>  (381) 
OPLS3e

>  <r_lp_Energy>  (381) 
52.5889

>  <b_lp_Chiralities_Consistent>  (381) 
1

>  <s_lp_Variant>  (381) 
107:0-1

>  <s_i_glide_gridfile>  (381) 
pfpi4k_grid

>  <i_i_glide_lignum>  (381) 
25

>  <i_i_glide_rotatable_bonds>  (381) 
4

>  <r_i_docking_score>  (381) 
-3.53167

>  <r_i_glide_ligand_efficiency>  (381) 
-0.168175

>  <r_i_glide_ligand_efficiency_sa>  (381) 
-0.463981

>  <r_i_glide_ligand_efficiency_ln>  (381) 
-0.873197

>  <r_i_glide_gscore>  (381) 
-3.53167

>  <r_i_glide_lipo>  (381) 
-0.258317

>  <r_i_glide_hbond>  (381) 
-0.210113

>  <r_i_glide_metal>  (381) 
-0

>  <r_i_glide_rewards>  (381) 
-1.40205

>  <r_i_glide_evdw>  (381) 
-23.7293

>  <r_i_glide_ecoul>  (381) 
-5.74224

>  <r_i_glide_erotb>  (381) 
0.422094

>  <r_i_glide_esite>  (381) 
-0.0354785

>  <r_i_glide_emodel>  (381) 
-33.4114

>  <r_i_glide_energy>  (381) 
-29.4715

>  <r_i_glide_einternal>  (381) 
5.28765

>  <r_i_glide_intrahb_reward>  (381) 
-0

>  <i_i_glide_confnum>  (381) 
3

>  <i_i_glide_posenum>  (381) 
1

>  <r_i_glide_eff_state_penalty>  (381) 
0

>  <ligand_id>  (381) 
107

>  <original_smiles>  (381) 
CC(=O)OC1CC2CC1C(OC(C)=O)C1CN3CCC1C23

>  <smiles>  (381) 
[H]C([H])([H])C(=O)OC1([H])C([H])([H])C2([H])C([H])([H])C1([H])C([H])(OC(=O)C([H])([H])[H])C1([H])C3([H])C([H])([H])C([H])([H])[N+]([H])(C1([H])[H])C23[H]

$$$$
107:0:1
     RDKit          3D

 45 48  0  0  1  0  0  0  0  0999 V2000
    9.0120   -6.2568    3.1115 C   0  0  0  0  0  0  0  0  0  0  0  0
    8.1031   -6.0633    1.9039 C   0  0  0  0  0  0  0  0  0  0  0  0
    7.4234   -6.9855    1.4525 O   0  0  0  0  0  0  0  0  0  0  0  0
    8.1077   -4.7930    1.4446 O   0  0  0  0  0  0  0  0  0  0  0  0
    7.1340   -4.3687    0.4937 C   0  0  2  0  0  0  0  0  0  0  0  0
    7.6573   -3.1322   -0.2741 C   0  0  0  0  0  0  0  0  0  0  0  0
    6.5416   -2.0716   -0.1746 C   0  0  2  0  0  0  0  0  0  0  0  0
    5.9624   -2.3827    1.2045 C   0  0  0  0  0  0  0  0  0  0  0  0
    5.8493   -3.9038    1.2178 C   0  0  1  0  0  0  0  0  0  0  0  0
    4.5390   -4.4502    0.5878 C   0  0  1  0  0  0  0  0  0  0  0  0
    3.5442   -4.4004    1.6066 O   0  0  0  0  0  0  0  0  0  0  0  0
    2.5799   -5.3346    1.6864 C   0  0  0  0  0  0  0  0  0  0  0  0
    1.6861   -5.1497    2.9042 C   0  0  0  0  0  0  0  0  0  0  0  0
    2.3757   -6.2394    0.8801 O   0  0  0  0  0  0  0  0  0  0  0  0
    4.0021   -3.7635   -0.7051 C   0  0  1  0  0  0  0  0  0  0  0  0
    3.4193   -2.3451   -0.5300 C   0  0  0  0  0  0  0  0  0  0  0  0
    4.2862   -1.4852   -1.3805 N   0  0  2  0  0  0  0  0  0  0  0  0
    3.8319   -1.6541   -2.7850 C   0  0  0  0  0  0  0  0  0  0  0  0
    4.3010   -3.0917   -3.1215 C   0  0  0  0  0  0  0  0  0  0  0  0
    5.0366   -3.5095   -1.8215 C   0  0  1  0  0  0  0  0  0  0  0  0
    5.6022   -2.1589   -1.4183 C   0  0  2  0  0  0  0  0  0  0  0  0
    8.7336   -5.5648    3.9064 H   0  0  0  0  0  0  0  0  0  0  0  0
   10.0541   -6.0683    2.8465 H   0  0  0  0  0  0  0  0  0  0  0  0
    8.9417   -7.2727    3.5025 H   0  0  0  0  0  0  0  0  0  0  0  0
    6.9095   -5.1738   -0.2039 H   0  0  0  0  0  0  0  0  0  0  0  0
    8.5612   -2.7576    0.2056 H   0  0  0  0  0  0  0  0  0  0  0  0
    7.9344   -3.3711   -1.3041 H   0  0  0  0  0  0  0  0  0  0  0  0
    6.9772   -1.0733   -0.1433 H   0  0  0  0  0  0  0  0  0  0  0  0
    6.7023   -2.0971    1.9481 H   0  0  0  0  0  0  0  0  0  0  0  0
    5.0773   -1.8284    1.4974 H   0  0  0  0  0  0  0  0  0  0  0  0
    5.8752   -4.2538    2.2511 H   0  0  0  0  0  0  0  0  0  0  0  0
    4.7257   -5.4996    0.3481 H   0  0  0  0  0  0  0  0  0  0  0  0
    1.2915   -4.1343    2.9365 H   0  0  0  0  0  0  0  0  0  0  0  0
    2.2507   -5.3349    3.8176 H   0  0  0  0  0  0  0  0  0  0  0  0
    0.8480   -5.8464    2.8740 H   0  0  0  0  0  0  0  0  0  0  0  0
    3.2113   -4.4017   -1.0997 H   0  0  0  0  0  0  0  0  0  0  0  0
    2.3955   -2.3420   -0.8965 H   0  0  0  0  0  0  0  0  0  0  0  0
    3.3411   -2.0047    0.4969 H   0  0  0  0  0  0  0  0  0  0  0  0
    2.7584   -1.5135   -2.9168 H   0  0  0  0  0  0  0  0  0  0  0  0
    4.3307   -0.9269   -3.4302 H   0  0  0  0  0  0  0  0  0  0  0  0
    3.4677   -3.7566   -3.3630 H   0  0  0  0  0  0  0  0  0  0  0  0
    4.9863   -3.0872   -3.9676 H   0  0  0  0  0  0  0  0  0  0  0  0
    5.7578   -4.3093   -1.9807 H   0  0  0  0  0  0  0  0  0  0  0  0
    6.1977   -1.7583   -2.2430 H   0  0  0  0  0  0  0  0  0  0  0  0
    4.2898   -0.5153   -1.0941 H   0  0  0  0  0  0  0  0  0  0  0  0
  1  2  1  0
  1 22  1  0
  1 23  1  0
  1 24  1  0
  2  3  2  0
  2  4  1  0
  4  5  1  0
  5  9  1  0
  5  6  1  0
  5 25  1  6
  6  7  1  0
  6 26  1  0
  6 27  1  0
  7 21  1  0
  7  8  1  0
  7 28  1  1
  8  9  1  0
  8 29  1  0
  8 30  1  0
  9 10  1  0
  9 31  1  1
 10 11  1  0
 10 15  1  0
 10 32  1  6
 11 12  1  0
 12 13  1  0
 12 14  2  0
 13 33  1  0
 13 34  1  0
 13 35  1  0
 15 20  1  0
 15 16  1  0
 15 36  1  6
 16 17  1  0
 16 37  1  0
 16 38  1  0
 17 21  1  0
 17 18  1  0
 17 45  1  1
 18 19  1  0
 18 39  1  0
 18 40  1  0
 19 20  1  0
 19 41  1  0
 19 42  1  0
 20 21  1  0
 20 43  1  6
 21 44  1  6
M  CHG  1  17   1
M  END
>  <i_m_ct_stereo_status>  (382) 
1

>  <s_m_source_file>  (382) 
/var/tmp/pbs.5076255.sched01/tmpfsvwwkaa/138cw1meju8.sdf

>  <i_m_source_file_index>  (382) 
25

>  <i_lp_mmshare_version>  (382) 
48012

>  <i_f3d_flags>  (382) 
0

>  <s_epik_input>  (382) 
W0NIM11DKD1PKU9bQ0BIXShbQ0gyXTEpW0NAQEhdKFtDSDJdMilbQ0BASF0oT0MoPU8pW0NIM10pW0NASF0oW0NASF0zW0NIMl1bQ0gyXTQpW0NIMl1ONFtDQEhdM1tDQEhdMTI=

>  <s_epik_cmdline>  (382) 
J2VwaWtfcHl0aG9uJywgJy1waHQnLCAnMi4wJywgJy1waCcsICc3LjAnLCAnLXRuJywgJzgnLCAnLW1hJywgJzIwMCcsICctaW1hZScsICc8aW5maWxlLm1hZT4nLCAnLW9tYWUnLCAnPG91dGZpbGUubWFlPic=

>  <r_epik_Ionization_Penalty>  (382) 
0.00150136

>  <r_epik_Ionization_Penalty_Charging>  (382) 
0.00150136

>  <r_epik_Ionization_Penalty_Neutral>  (382) 
0

>  <r_epik_State_Penalty>  (382) 
0.00100589

>  <r_epik_Charging_Adjusted_Penalty>  (382) 
0.00250725

>  <i_epik_Tot_Q>  (382) 
1

>  <i_epik_Tot_abs_Q>  (382) 
1

>  <s_epik_Chemistry_Notes>  (382) 
This compound has an ester and may undergo hydrolysis at high or low pH.

>  <s_lp_Force_Field>  (382) 
OPLS3e

>  <r_lp_Energy>  (382) 
52.5889

>  <b_lp_Chiralities_Consistent>  (382) 
1

>  <s_lp_Variant>  (382) 
107:0-1

>  <s_i_glide_gridfile>  (382) 
pfpi4k_grid

>  <i_i_glide_lignum>  (382) 
25

>  <i_i_glide_rotatable_bonds>  (382) 
4

>  <r_i_docking_score>  (382) 
-3.52839

>  <r_i_glide_ligand_efficiency>  (382) 
-0.168019

>  <r_i_glide_ligand_efficiency_sa>  (382) 
-0.463551

>  <r_i_glide_ligand_efficiency_ln>  (382) 
-0.872388

>  <r_i_glide_gscore>  (382) 
-3.52839

>  <r_i_glide_lipo>  (382) 
-0.662072

>  <r_i_glide_hbond>  (382) 
0

>  <r_i_glide_metal>  (382) 
-0

>  <r_i_glide_rewards>  (382) 
-1.40205

>  <r_i_glide_evdw>  (382) 
-26.5316

>  <r_i_glide_ecoul>  (382) 
-3.22009

>  <r_i_glide_erotb>  (382) 
0.422094

>  <r_i_glide_esite>  (382) 
-0.0767694

>  <r_i_glide_emodel>  (382) 
-35.9549

>  <r_i_glide_energy>  (382) 
-29.7517

>  <r_i_glide_einternal>  (382) 
0.702325

>  <r_i_glide_intrahb_reward>  (382) 
-0

>  <i_i_glide_confnum>  (382) 
3

>  <i_i_glide_posenum>  (382) 
2

>  <r_i_glide_eff_state_penalty>  (382) 
0

>  <ligand_id>  (382) 
107

>  <original_smiles>  (382) 
CC(=O)OC1CC2CC1C(OC(C)=O)C1CN3CCC1C23

>  <smiles>  (382) 
[H]C([H])([H])C(=O)OC1([H])C([H])([H])C2([H])C([H])([H])C1([H])C([H])(OC(=O)C([H])([H])[H])C1([H])C3([H])C([H])([H])C([H])([H])[N+]([H])(C1([H])[H])C23[H]

$$$$
107:0:2
     RDKit          3D

 45 48  0  0  1  0  0  0  0  0999 V2000
    1.0346   -7.1264    4.0629 C   0  0  0  0  0  0  0  0  0  0  0  0
    1.1698   -6.3492    2.7579 C   0  0  0  0  0  0  0  0  0  0  0  0
    0.2298   -6.2544    1.9658 O   0  0  0  0  0  0  0  0  0  0  0  0
    2.3943   -5.8015    2.6108 O   0  0  0  0  0  0  0  0  0  0  0  0
    2.7406   -5.0390    1.4553 C   0  0  2  0  0  0  0  0  0  0  0  0
    3.7371   -5.8497    0.5964 C   0  0  0  0  0  0  0  0  0  0  0  0
    4.9257   -4.9104    0.3260 C   0  0  2  0  0  0  0  0  0  0  0  0
    4.9534   -4.0982    1.6232 C   0  0  0  0  0  0  0  0  0  0  0  0
    3.4872   -3.7496    1.8723 C   0  0  1  0  0  0  0  0  0  0  0  0
    3.0061   -2.4767    1.1124 C   0  0  1  0  0  0  0  0  0  0  0  0
    3.3569   -1.3105    1.8556 O   0  0  0  0  0  0  0  0  0  0  0  0
    2.4634   -0.7097    2.6653 C   0  0  0  0  0  0  0  0  0  0  0  0
    3.0366    0.5265    3.3452 C   0  0  0  0  0  0  0  0  0  0  0  0
    1.3104   -1.0853    2.8795 O   0  0  0  0  0  0  0  0  0  0  0  0
    3.4956   -2.2450   -0.3468 C   0  0  1  0  0  0  0  0  0  0  0  0
    4.9794   -1.8613   -0.5224 C   0  0  0  0  0  0  0  0  0  0  0  0
    5.5382   -2.9775   -1.3350 N   0  0  2  0  0  0  0  0  0  0  0  0
    5.1531   -2.7307   -2.7482 C   0  0  0  0  0  0  0  0  0  0  0  0
    3.6333   -3.0084   -2.7518 C   0  0  0  0  0  0  0  0  0  0  0  0
    3.3843   -3.4591   -1.2883 C   0  0  1  0  0  0  0  0  0  0  0  0
    4.7120   -4.1638   -1.0269 C   0  0  2  0  0  0  0  0  0  0  0  0
    1.2581   -6.4901    4.9206 H   0  0  0  0  0  0  0  0  0  0  0  0
    1.7297   -7.9668    4.0703 H   0  0  0  0  0  0  0  0  0  0  0  0
    0.0230   -7.5208    4.1819 H   0  0  0  0  0  0  0  0  0  0  0  0
    1.8597   -4.7800    0.8686 H   0  0  0  0  0  0  0  0  0  0  0  0
    4.0834   -6.7176    1.1588 H   0  0  0  0  0  0  0  0  0  0  0  0
    3.2803   -6.2343   -0.3172 H   0  0  0  0  0  0  0  0  0  0  0  0
    5.8450   -5.4901    0.2430 H   0  0  0  0  0  0  0  0  0  0  0  0
    5.2789   -4.7646    2.4237 H   0  0  0  0  0  0  0  0  0  0  0  0
    5.6528   -3.2694    1.6588 H   0  0  0  0  0  0  0  0  0  0  0  0
    3.3271   -3.5827    2.9388 H   0  0  0  0  0  0  0  0  0  0  0  0
    1.9184   -2.5380    1.0528 H   0  0  0  0  0  0  0  0  0  0  0  0
    3.4716    1.1945    2.6021 H   0  0  0  0  0  0  0  0  0  0  0  0
    3.8125    0.2477    4.0588 H   0  0  0  0  0  0  0  0  0  0  0  0
    2.2579    1.0715    3.8791 H   0  0  0  0  0  0  0  0  0  0  0  0
    2.9127   -1.4244   -0.7548 H   0  0  0  0  0  0  0  0  0  0  0  0
    5.0544   -0.9072   -1.0500 H   0  0  0  0  0  0  0  0  0  0  0  0
    5.5116   -1.6909    0.4109 H   0  0  0  0  0  0  0  0  0  0  0  0
    5.3894   -1.7221   -3.0866 H   0  0  0  0  0  0  0  0  0  0  0  0
    5.6800   -3.4257   -3.4079 H   0  0  0  0  0  0  0  0  0  0  0  0
    3.0484   -2.1274   -3.0231 H   0  0  0  0  0  0  0  0  0  0  0  0
    3.3978   -3.8065   -3.4598 H   0  0  0  0  0  0  0  0  0  0  0  0
    2.4787   -4.0622   -1.1788 H   0  0  0  0  0  0  0  0  0  0  0  0
    4.8889   -4.9305   -1.7883 H   0  0  0  0  0  0  0  0  0  0  0  0
    6.5321   -3.1109   -1.2215 H   0  0  0  0  0  0  0  0  0  0  0  0
  1  2  1  0
  1 22  1  0
  1 23  1  0
  1 24  1  0
  2  3  2  0
  2  4  1  0
  4  5  1  0
  5  9  1  0
  5  6  1  0
  5 25  1  6
  6  7  1  0
  6 26  1  0
  6 27  1  0
  7 21  1  0
  7  8  1  0
  7 28  1  6
  8  9  1  0
  8 29  1  0
  8 30  1  0
  9 10  1  0
  9 31  1  1
 10 11  1  0
 10 15  1  0
 10 32  1  6
 11 12  1  0
 12 13  1  0
 12 14  2  0
 13 33  1  0
 13 34  1  0
 13 35  1  0
 15 20  1  0
 15 16  1  0
 15 36  1  6
 16 17  1  0
 16 37  1  0
 16 38  1  0
 17 21  1  0
 17 18  1  0
 17 45  1  6
 18 19  1  0
 18 39  1  0
 18 40  1  0
 19 20  1  0
 19 41  1  0
 19 42  1  0
 20 21  1  0
 20 43  1  6
 21 44  1  6
M  CHG  1  17   1
M  END
>  <i_m_ct_stereo_status>  (383) 
1

>  <s_m_source_file>  (383) 
/var/tmp/pbs.5076255.sched01/tmpfsvwwkaa/138cw1meju8.sdf

>  <i_m_source_file_index>  (383) 
25

>  <i_lp_mmshare_version>  (383) 
48012

>  <i_f3d_flags>  (383) 
0

>  <s_epik_input>  (383) 
W0NIM11DKD1PKU9bQ0BIXShbQ0gyXTEpW0NAQEhdKFtDSDJdMilbQ0BASF0oT0MoPU8pW0NIM10pW0NASF0oW0NASF0zW0NIMl1bQ0gyXTQpW0NIMl1ONFtDQEhdM1tDQEhdMTI=

>  <s_epik_cmdline>  (383) 
J2VwaWtfcHl0aG9uJywgJy1waHQnLCAnMi4wJywgJy1waCcsICc3LjAnLCAnLXRuJywgJzgnLCAnLW1hJywgJzIwMCcsICctaW1hZScsICc8aW5maWxlLm1hZT4nLCAnLW9tYWUnLCAnPG91dGZpbGUubWFlPic=

>  <r_epik_Ionization_Penalty>  (383) 
0.00150136

>  <r_epik_Ionization_Penalty_Charging>  (383) 
0.00150136

>  <r_epik_Ionization_Penalty_Neutral>  (383) 
0

>  <r_epik_State_Penalty>  (383) 
0.00100589

>  <r_epik_Charging_Adjusted_Penalty>  (383) 
0.00250725

>  <i_epik_Tot_Q>  (383) 
1

>  <i_epik_Tot_abs_Q>  (383) 
1

>  <s_epik_Chemistry_Notes>  (383) 
This compound has an ester and may undergo hydrolysis at high or low pH.

>  <s_lp_Force_Field>  (383) 
OPLS3e

>  <r_lp_Energy>  (383) 
52.5889

>  <b_lp_Chiralities_Consistent>  (383) 
1

>  <s_lp_Variant>  (383) 
107:0-1

>  <s_i_glide_gridfile>  (383) 
pfpi4k_grid

>  <i_i_glide_lignum>  (383) 
25

>  <i_i_glide_rotatable_bonds>  (383) 
4

>  <r_i_docking_score>  (383) 
-3.47022

>  <r_i_glide_ligand_efficiency>  (383) 
-0.165248

>  <r_i_glide_ligand_efficiency_sa>  (383) 
-0.455908

>  <r_i_glide_ligand_efficiency_ln>  (383) 
-0.858004

>  <r_i_glide_gscore>  (383) 
-3.47022

>  <r_i_glide_lipo>  (383) 
-0.356241

>  <r_i_glide_hbond>  (383) 
-0.266834

>  <r_i_glide_metal>  (383) 
-0

>  <r_i_glide_rewards>  (383) 
-1.40205

>  <r_i_glide_evdw>  (383) 
-22.761

>  <r_i_glide_ecoul>  (383) 
-4.53098

>  <r_i_glide_erotb>  (383) 
0.422094

>  <r_i_glide_esite>  (383) 
-0.0494916

>  <r_i_glide_emodel>  (383) 
-33.5764

>  <r_i_glide_energy>  (383) 
-27.292

>  <r_i_glide_einternal>  (383) 
0.526584

>  <r_i_glide_intrahb_reward>  (383) 
-0

>  <i_i_glide_confnum>  (383) 
3

>  <i_i_glide_posenum>  (383) 
22

>  <r_i_glide_eff_state_penalty>  (383) 
0

>  <ligand_id>  (383) 
107

>  <original_smiles>  (383) 
CC(=O)OC1CC2CC1C(OC(C)=O)C1CN3CCC1C23

>  <smiles>  (383) 
[H]C([H])([H])C(=O)OC1([H])C([H])([H])C2([H])C([H])([H])C1([H])C([H])(OC(=O)C([H])([H])[H])C1([H])C3([H])C([H])([H])C([H])([H])[N+]([H])(C1([H])[H])C23[H]

$$$$
108:0:0
     RDKit          3D

 42 45  0  0  1  0  0  0  0  0999 V2000
    5.3576   -0.8616    3.2140 C   0  0  0  0  0  0  0  0  0  0  0  0
    5.2878   -1.4530    1.7940 C   0  0  2  0  0  0  0  0  0  0  0  0
    4.8916   -0.3483    0.8088 C   0  0  0  0  0  0  0  0  0  0  0  0
    4.8539   -0.8872   -0.6200 C   0  0  0  0  0  0  0  0  0  0  0  0
    3.8125   -2.0001   -0.7415 C   0  0  1  0  0  0  0  0  0  0  0  0
    3.5543   -2.5107   -2.1614 C   0  0  1  0  0  0  0  0  0  0  0  0
    3.2816   -1.3797   -3.1881 C   0  0  0  0  0  0  0  0  0  0  0  0
    4.6514   -3.4497   -2.6634 C   0  0  0  0  0  0  0  0  0  0  0  0
    4.8235   -3.5325   -3.8709 O   0  0  0  0  0  0  0  0  0  0  0  0
    5.3012   -4.2368   -1.7465 O   0  0  0  0  0  0  0  0  0  0  0  0
    5.2641   -4.0186   -0.3520 C   0  0  2  0  0  0  0  0  0  0  0  0
    5.4215   -5.2320    0.3298 O   0  0  0  0  0  0  0  0  0  0  0  0
    4.2658   -5.7285    0.9608 C   0  0  1  0  0  0  0  0  0  0  0  0
    4.3386   -7.2590    0.9012 C   0  0  0  0  0  0  0  0  0  0  0  0
    4.2646   -5.2253    2.4227 C   0  0  0  0  0  0  0  0  0  0  0  0
    4.8856   -3.8307    2.6078 C   0  0  0  0  0  0  0  0  0  0  0  0
    4.3707   -2.7052    1.6861 C   0  0  2  0  0  0  0  0  0  0  0  0
    4.0719   -3.1679    0.2158 C   0  0  1  0  0  0  0  0  0  0  0  0
    2.8514   -3.9000    0.3313 O   0  0  0  0  0  0  0  0  0  0  0  0
    3.0945   -5.3871    0.2332 O   0  0  0  0  0  0  0  0  0  0  0  0
    4.3725   -0.5814    3.5898 H   0  0  0  0  0  0  0  0  0  0  0  0
    5.9835    0.0313    3.2381 H   0  0  0  0  0  0  0  0  0  0  0  0
    5.7971   -1.5625    3.9235 H   0  0  0  0  0  0  0  0  0  0  0  0
    6.3040   -1.7521    1.5310 H   0  0  0  0  0  0  0  0  0  0  0  0
    3.9207    0.0790    1.0764 H   0  0  0  0  0  0  0  0  0  0  0  0
    5.6201    0.4627    0.8681 H   0  0  0  0  0  0  0  0  0  0  0  0
    4.6006   -0.0641   -1.2837 H   0  0  0  0  0  0  0  0  0  0  0  0
    5.8464   -1.2334   -0.9114 H   0  0  0  0  0  0  0  0  0  0  0  0
    2.8799   -1.5490   -0.4102 H   0  0  0  0  0  0  0  0  0  0  0  0
    2.6435   -3.1124   -2.1161 H   0  0  0  0  0  0  0  0  0  0  0  0
    2.8559   -1.7830   -4.1110 H   0  0  0  0  0  0  0  0  0  0  0  0
    4.1888   -0.8331   -3.4615 H   0  0  0  0  0  0  0  0  0  0  0  0
    2.5669   -0.6516   -2.7947 H   0  0  0  0  0  0  0  0  0  0  0  0
    6.1781   -3.4741   -0.1423 H   0  0  0  0  0  0  0  0  0  0  0  0
    4.3009   -7.5910   -0.1360 H   0  0  0  0  0  0  0  0  0  0  0  0
    3.5065   -7.7278    1.4300 H   0  0  0  0  0  0  0  0  0  0  0  0
    5.2679   -7.6384    1.3290 H   0  0  0  0  0  0  0  0  0  0  0  0
    3.2695   -5.2873    2.8595 H   0  0  0  0  0  0  0  0  0  0  0  0
    4.8886   -5.8967    3.0150 H   0  0  0  0  0  0  0  0  0  0  0  0
    4.7501   -3.5374    3.6459 H   0  0  0  0  0  0  0  0  0  0  0  0
    5.9646   -3.9102    2.4723 H   0  0  0  0  0  0  0  0  0  0  0  0
    3.3983   -2.4013    2.0757 H   0  0  0  0  0  0  0  0  0  0  0  0
  1  2  1  0
  1 21  1  0
  1 22  1  0
  1 23  1  0
  2 17  1  0
  2  3  1  0
  2 24  1  6
  3  4  1  0
  3 25  1  0
  3 26  1  0
  4  5  1  0
  4 27  1  0
  4 28  1  0
  5 18  1  0
  5  6  1  0
  5 29  1  1
  6  7  1  0
  6  8  1  0
  6 30  1  1
  7 31  1  0
  7 32  1  0
  7 33  1  0
  8  9  2  0
  8 10  1  0
 10 11  1  0
 11 18  1  0
 11 12  1  0
 11 34  1  1
 12 13  1  0
 13 20  1  0
 13 14  1  1
 13 15  1  0
 14 35  1  0
 14 36  1  0
 14 37  1  0
 15 16  1  0
 15 38  1  0
 15 39  1  0
 16 17  1  0
 16 40  1  0
 16 41  1  0
 17 18  1  0
 17 42  1  1
 18 19  1  1
 19 20  1  0
M  END
>  <i_m_ct_stereo_status>  (384) 
1

>  <s_m_source_file>  (384) 
/var/tmp/pbs.5076255.sched01/tmpfsvwwkaa/138cw1meju8.sdf

>  <i_m_source_file_index>  (384) 
26

>  <i_lp_mmshare_version>  (384) 
48012

>  <i_f3d_flags>  (384) 
0

>  <s_epik_input>  (384) 
W0NAXTEyM1tDQEhdNFtDSDJdW0NIMl1bQ0BASF0oW0NIM10pW0NAQEhdMltDSDJdW0NIMl1bQ0BAXShbQ0gzXSkoT08zKU9bQ0BIXTFPQyg9TylbQ0BASF00W0NIM10=

>  <s_epik_cmdline>  (384) 
J2VwaWtfcHl0aG9uJywgJy1waHQnLCAnMi4wJywgJy1waCcsICc3LjAnLCAnLXRuJywgJzgnLCAnLW1hJywgJzIwMCcsICctaW1hZScsICc8aW5maWxlLm1hZT4nLCAnLW9tYWUnLCAnPG91dGZpbGUubWFlPic=

>  <r_lp_tautomer_probability>  (384) 
1

>  <r_epik_Ionization_Penalty>  (384) 
1.7205e-10

>  <r_epik_Ionization_Penalty_Charging>  (384) 
0

>  <r_epik_Ionization_Penalty_Neutral>  (384) 
1.7205e-10

>  <r_epik_State_Penalty>  (384) 
-0

>  <r_epik_Charging_Adjusted_Penalty>  (384) 
0

>  <i_epik_Tot_Q>  (384) 
0

>  <i_epik_Tot_abs_Q>  (384) 
0

>  <s_epik_Chemistry_Notes>  (384) 
This compound has an ester and may undergo hydrolysis at high or low pH. This compound contains an acetal/aminal-like group ( X-CH(R)-Y where X, Y are N, S, or O) that may be acid/base labile, releasing an aldehyde.

>  <s_lp_Force_Field>  (384) 
OPLS3e

>  <r_lp_Energy>  (384) 
36.9221

>  <b_lp_Chiralities_Consistent>  (384) 
1

>  <s_lp_Variant>  (384) 
108:0-1

>  <s_i_glide_gridfile>  (384) 
pfpi4k_grid

>  <i_i_glide_lignum>  (384) 
26

>  <i_i_glide_rotatable_bonds>  (384) 
0

>  <r_i_docking_score>  (384) 
-3.77549

>  <r_i_glide_ligand_efficiency>  (384) 
-0.188775

>  <r_i_glide_ligand_efficiency_sa>  (384) 
-0.512413

>  <r_i_glide_ligand_efficiency_ln>  (384) 
-0.944881

>  <r_i_glide_gscore>  (384) 
-3.77549

>  <r_i_glide_lipo>  (384) 
-0.604846

>  <r_i_glide_hbond>  (384) 
0

>  <r_i_glide_metal>  (384) 
-0

>  <r_i_glide_rewards>  (384) 
-1.70122

>  <r_i_glide_evdw>  (384) 
-25.8989

>  <r_i_glide_ecoul>  (384) 
-1.1632

>  <r_i_glide_erotb>  (384) 
0

>  <r_i_glide_esite>  (384) 
0

>  <r_i_glide_emodel>  (384) 
-32.8531

>  <r_i_glide_energy>  (384) 
-27.0621

>  <r_i_glide_einternal>  (384) 
0

>  <r_i_glide_intrahb_reward>  (384) 
-0

>  <i_i_glide_confnum>  (384) 
2

>  <i_i_glide_posenum>  (384) 
29

>  <r_i_glide_eff_state_penalty>  (384) 
0

>  <ligand_id>  (384) 
108

>  <original_smiles>  (384) 
CC1CCC2C(C)C(=O)OC3OC4(C)CCC1C32OO4

>  <smiles>  (384) 
[H]C([H])([H])C12OOC34C([H])(OC(=O)C([H])(C([H])([H])[H])C3([H])C([H])([H])C([H])([H])C([H])(C([H])([H])[H])C4([H])C([H])([H])C1([H])[H])O2

$$$$
108:0:1
     RDKit          3D

 42 45  0  0  1  0  0  0  0  0999 V2000
    8.4631   -2.5936   -0.3437 C   0  0  0  0  0  0  0  0  0  0  0  0
    6.9725   -2.9129   -0.5605 C   0  0  2  0  0  0  0  0  0  0  0  0
    6.7013   -3.0993   -2.0536 C   0  0  0  0  0  0  0  0  0  0  0  0
    5.2516   -3.4574   -2.3305 C   0  0  0  0  0  0  0  0  0  0  0  0
    4.3418   -2.3385   -1.8162 C   0  0  1  0  0  0  0  0  0  0  0  0
    2.8770   -2.5466   -2.1232 C   0  0  1  0  0  0  0  0  0  0  0  0
    2.5748   -2.8217   -3.6190 C   0  0  0  0  0  0  0  0  0  0  0  0
    2.2000   -3.5378   -1.1623 C   0  0  0  0  0  0  0  0  0  0  0  0
    1.1604   -4.0756   -1.5267 O   0  0  0  0  0  0  0  0  0  0  0  0
    2.6436   -3.6704    0.1014 O   0  0  0  0  0  0  0  0  0  0  0  0
    3.8743   -3.1950    0.5346 C   0  0  2  0  0  0  0  0  0  0  0  0
    3.7958   -2.8966    1.8948 O   0  0  0  0  0  0  0  0  0  0  0  0
    3.7580   -1.5225    2.2079 C   0  0  1  0  0  0  0  0  0  0  0  0
    2.8968   -1.3586    3.4612 C   0  0  0  0  0  0  0  0  0  0  0  0
    5.2102   -1.0918    2.4682 C   0  0  0  0  0  0  0  0  0  0  0  0
    6.2271   -1.8315    1.5938 C   0  0  0  0  0  0  0  0  0  0  0  0
    6.0094   -1.8818    0.0843 C   0  0  2  0  0  0  0  0  0  0  0  0
    4.5266   -2.0468   -0.3156 C   0  0  1  0  0  0  0  0  0  0  0  0
    3.9792   -0.7530   -0.0423 O   0  0  0  0  0  0  0  0  0  0  0  0
    3.0999   -0.7852    1.1889 O   0  0  0  0  0  0  0  0  0  0  0  0
    8.7488   -1.6078   -0.7067 H   0  0  0  0  0  0  0  0  0  0  0  0
    9.0838   -3.3064   -0.8829 H   0  0  0  0  0  0  0  0  0  0  0  0
    8.7570   -2.6466    0.7028 H   0  0  0  0  0  0  0  0  0  0  0  0
    6.7988   -3.8873   -0.1024 H   0  0  0  0  0  0  0  0  0  0  0  0
    6.9711   -2.2312   -2.6259 H   0  0  0  0  0  0  0  0  0  0  0  0
    7.3437   -3.8516   -2.4618 H   0  0  0  0  0  0  0  0  0  0  0  0
    5.1319   -3.5889   -3.4066 H   0  0  0  0  0  0  0  0  0  0  0  0
    5.0132   -4.4130   -1.8583 H   0  0  0  0  0  0  0  0  0  0  0  0
    4.6344   -1.4270   -2.3405 H   0  0  0  0  0  0  0  0  0  0  0  0
    2.4100   -1.5853   -1.9266 H   0  0  0  0  0  0  0  0  0  0  0  0
    1.5123   -2.6853   -3.8325 H   0  0  0  0  0  0  0  0  0  0  0  0
    2.8301   -3.8431   -3.9141 H   0  0  0  0  0  0  0  0  0  0  0  0
    3.1085   -2.1263   -4.2778 H   0  0  0  0  0  0  0  0  0  0  0  0
    4.5217   -4.0653    0.4623 H   0  0  0  0  0  0  0  0  0  0  0  0
    1.8659   -1.6266    3.2340 H   0  0  0  0  0  0  0  0  0  0  0  0
    2.9060   -0.3271    3.8177 H   0  0  0  0  0  0  0  0  0  0  0  0
    3.2375   -2.0056    4.2738 H   0  0  0  0  0  0  0  0  0  0  0  0
    5.3275   -0.0144    2.4015 H   0  0  0  0  0  0  0  0  0  0  0  0
    5.4679   -1.3606    3.4960 H   0  0  0  0  0  0  0  0  0  0  0  0
    7.1741   -1.3266    1.7011 H   0  0  0  0  0  0  0  0  0  0  0  0
    6.3472   -2.8518    1.9672 H   0  0  0  0  0  0  0  0  0  0  0  0
    6.2847   -0.9000   -0.2947 H   0  0  0  0  0  0  0  0  0  0  0  0
  1  2  1  0
  1 21  1  0
  1 22  1  0
  1 23  1  0
  2 17  1  0
  2  3  1  0
  2 24  1  1
  3  4  1  0
  3 25  1  0
  3 26  1  0
  4  5  1  0
  4 27  1  0
  4 28  1  0
  5 18  1  0
  5  6  1  0
  5 29  1  6
  6  7  1  0
  6  8  1  0
  6 30  1  1
  7 31  1  0
  7 32  1  0
  7 33  1  0
  8  9  2  0
  8 10  1  0
 10 11  1  0
 11 18  1  0
 11 12  1  0
 11 34  1  1
 12 13  1  0
 13 20  1  0
 13 14  1  1
 13 15  1  0
 14 35  1  0
 14 36  1  0
 14 37  1  0
 15 16  1  0
 15 38  1  0
 15 39  1  0
 16 17  1  0
 16 40  1  0
 16 41  1  0
 17 18  1  0
 17 42  1  6
 18 19  1  1
 19 20  1  0
M  END
>  <i_m_ct_stereo_status>  (385) 
1

>  <s_m_source_file>  (385) 
/var/tmp/pbs.5076255.sched01/tmpfsvwwkaa/138cw1meju8.sdf

>  <i_m_source_file_index>  (385) 
26

>  <i_lp_mmshare_version>  (385) 
48012

>  <i_f3d_flags>  (385) 
0

>  <s_epik_input>  (385) 
W0NAXTEyM1tDQEhdNFtDSDJdW0NIMl1bQ0BASF0oW0NIM10pW0NAQEhdMltDSDJdW0NIMl1bQ0BAXShbQ0gzXSkoT08zKU9bQ0BIXTFPQyg9TylbQ0BASF00W0NIM10=

>  <s_epik_cmdline>  (385) 
J2VwaWtfcHl0aG9uJywgJy1waHQnLCAnMi4wJywgJy1waCcsICc3LjAnLCAnLXRuJywgJzgnLCAnLW1hJywgJzIwMCcsICctaW1hZScsICc8aW5maWxlLm1hZT4nLCAnLW9tYWUnLCAnPG91dGZpbGUubWFlPic=

>  <r_lp_tautomer_probability>  (385) 
1

>  <r_epik_Ionization_Penalty>  (385) 
1.7205e-10

>  <r_epik_Ionization_Penalty_Charging>  (385) 
0

>  <r_epik_Ionization_Penalty_Neutral>  (385) 
1.7205e-10

>  <r_epik_State_Penalty>  (385) 
-0

>  <r_epik_Charging_Adjusted_Penalty>  (385) 
0

>  <i_epik_Tot_Q>  (385) 
0

>  <i_epik_Tot_abs_Q>  (385) 
0

>  <s_epik_Chemistry_Notes>  (385) 
This compound has an ester and may undergo hydrolysis at high or low pH. This compound contains an acetal/aminal-like group ( X-CH(R)-Y where X, Y are N, S, or O) that may be acid/base labile, releasing an aldehyde.

>  <s_lp_Force_Field>  (385) 
OPLS3e

>  <r_lp_Energy>  (385) 
36.9221

>  <b_lp_Chiralities_Consistent>  (385) 
1

>  <s_lp_Variant>  (385) 
108:0-1

>  <s_i_glide_gridfile>  (385) 
pfpi4k_grid

>  <i_i_glide_lignum>  (385) 
26

>  <i_i_glide_rotatable_bonds>  (385) 
0

>  <r_i_docking_score>  (385) 
-3.27276

>  <r_i_glide_ligand_efficiency>  (385) 
-0.163638

>  <r_i_glide_ligand_efficiency_sa>  (385) 
-0.444182

>  <r_i_glide_ligand_efficiency_ln>  (385) 
-0.819064

>  <r_i_glide_gscore>  (385) 
-3.27276

>  <r_i_glide_lipo>  (385) 
-0.721179

>  <r_i_glide_hbond>  (385) 
-0.0116057

>  <r_i_glide_metal>  (385) 
-0

>  <r_i_glide_rewards>  (385) 
-1.4841

>  <r_i_glide_evdw>  (385) 
-22.6618

>  <r_i_glide_ecoul>  (385) 
0.622034

>  <r_i_glide_erotb>  (385) 
0

>  <r_i_glide_esite>  (385) 
-0.0160919

>  <r_i_glide_emodel>  (385) 
-26.863

>  <r_i_glide_energy>  (385) 
-22.0398

>  <r_i_glide_einternal>  (385) 
0

>  <r_i_glide_intrahb_reward>  (385) 
-0

>  <i_i_glide_confnum>  (385) 
1

>  <i_i_glide_posenum>  (385) 
5

>  <r_i_glide_eff_state_penalty>  (385) 
0

>  <ligand_id>  (385) 
108

>  <original_smiles>  (385) 
CC1CCC2C(C)C(=O)OC3OC4(C)CCC1C32OO4

>  <smiles>  (385) 
[H]C([H])([H])C12OOC34C([H])(OC(=O)C([H])(C([H])([H])[H])C3([H])C([H])([H])C([H])([H])C([H])(C([H])([H])[H])C4([H])C([H])([H])C1([H])[H])O2

$$$$
108:0:2
     RDKit          3D

 42 45  0  0  1  0  0  0  0  0999 V2000
    5.6260   -9.6209    2.1431 C   0  0  0  0  0  0  0  0  0  0  0  0
    4.3056   -8.9952    2.6217 C   0  0  2  0  0  0  0  0  0  0  0  0
    3.2414  -10.0990    2.7626 C   0  0  0  0  0  0  0  0  0  0  0  0
    1.9194   -9.5342    3.2711 C   0  0  0  0  0  0  0  0  0  0  0  0
    1.3885   -8.4982    2.2738 C   0  0  1  0  0  0  0  0  0  0  0  0
   -0.0142   -7.9514    2.5738 C   0  0  1  0  0  0  0  0  0  0  0  0
   -1.0700   -9.0584    2.8217 C   0  0  0  0  0  0  0  0  0  0  0  0
   -0.0248   -6.9071    3.6963 C   0  0  0  0  0  0  0  0  0  0  0  0
   -1.0510   -6.7412    4.3576 O   0  0  0  0  0  0  0  0  0  0  0  0
    1.0631   -6.0823    3.8336 O   0  0  0  0  0  0  0  0  0  0  0  0
    2.3330   -6.3795    3.2881 C   0  0  2  0  0  0  0  0  0  0  0  0
    3.0273   -5.1815    3.0415 O   0  0  0  0  0  0  0  0  0  0  0  0
    3.1092   -4.7914    1.6955 C   0  0  1  0  0  0  0  0  0  0  0  0
    3.0831   -3.2611    1.6310 C   0  0  0  0  0  0  0  0  0  0  0  0
    4.4283   -5.3438    1.1003 C   0  0  0  0  0  0  0  0  0  0  0  0
    4.8705   -6.6847    1.7126 C   0  0  0  0  0  0  0  0  0  0  0  0
    3.8220   -7.8167    1.7273 C   0  0  2  0  0  0  0  0  0  0  0  0
    2.3632   -7.3265    2.0541 C   0  0  1  0  0  0  0  0  0  0  0  0
    1.9108   -6.6838    0.8685 O   0  0  0  0  0  0  0  0  0  0  0  0
    1.9530   -5.1835    0.9970 O   0  0  0  0  0  0  0  0  0  0  0  0
    5.5519   -9.9873    1.1182 H   0  0  0  0  0  0  0  0  0  0  0  0
    5.8976  -10.4652    2.7759 H   0  0  0  0  0  0  0  0  0  0  0  0
    6.4540   -8.9123    2.1955 H   0  0  0  0  0  0  0  0  0  0  0  0
    4.4764   -8.6092    3.6296 H   0  0  0  0  0  0  0  0  0  0  0  0
    3.0814  -10.6040    1.8059 H   0  0  0  0  0  0  0  0  0  0  0  0
    3.5954  -10.8619    3.4606 H   0  0  0  0  0  0  0  0  0  0  0  0
    1.2213  -10.3645    3.3713 H   0  0  0  0  0  0  0  0  0  0  0  0
    2.0575   -9.1160    4.2728 H   0  0  0  0  0  0  0  0  0  0  0  0
    1.3189   -9.0142    1.3138 H   0  0  0  0  0  0  0  0  0  0  0  0
   -0.3320   -7.4132    1.6745 H   0  0  0  0  0  0  0  0  0  0  0  0
   -2.0798   -8.6469    2.7979 H   0  0  0  0  0  0  0  0  0  0  0  0
   -0.9310   -9.5170    3.8027 H   0  0  0  0  0  0  0  0  0  0  0  0
   -1.0107   -9.8431    2.0647 H   0  0  0  0  0  0  0  0  0  0  0  0
    2.8925   -6.8600    4.0914 H   0  0  0  0  0  0  0  0  0  0  0  0
    2.1165   -2.8967    1.9908 H   0  0  0  0  0  0  0  0  0  0  0  0
    3.2249   -2.8876    0.6063 H   0  0  0  0  0  0  0  0  0  0  0  0
    3.8643   -2.8309    2.2611 H   0  0  0  0  0  0  0  0  0  0  0  0
    4.4156   -5.3780    0.0057 H   0  0  0  0  0  0  0  0  0  0  0  0
    5.2312   -4.6443    1.3569 H   0  0  0  0  0  0  0  0  0  0  0  0
    5.7626   -7.0235    1.1892 H   0  0  0  0  0  0  0  0  0  0  0  0
    5.1951   -6.5062    2.7400 H   0  0  0  0  0  0  0  0  0  0  0  0
    3.7753   -8.2032    0.7065 H   0  0  0  0  0  0  0  0  0  0  0  0
  1  2  1  0
  1 21  1  0
  1 22  1  0
  1 23  1  0
  2 17  1  0
  2  3  1  0
  2 24  1  1
  3  4  1  0
  3 25  1  0
  3 26  1  0
  4  5  1  0
  4 27  1  0
  4 28  1  0
  5 18  1  0
  5  6  1  0
  5 29  1  6
  6  7  1  0
  6  8  1  0
  6 30  1  6
  7 31  1  0
  7 32  1  0
  7 33  1  0
  8  9  2  0
  8 10  1  0
 10 11  1  0
 11 18  1  0
 11 12  1  0
 11 34  1  1
 12 13  1  0
 13 20  1  0
 13 14  1  1
 13 15  1  0
 14 35  1  0
 14 36  1  0
 14 37  1  0
 15 16  1  0
 15 38  1  0
 15 39  1  0
 16 17  1  0
 16 40  1  0
 16 41  1  0
 17 18  1  0
 17 42  1  6
 18 19  1  6
 19 20  1  0
M  END
>  <i_m_ct_stereo_status>  (386) 
1

>  <s_m_source_file>  (386) 
/var/tmp/pbs.5076255.sched01/tmpfsvwwkaa/138cw1meju8.sdf

>  <i_m_source_file_index>  (386) 
26

>  <i_lp_mmshare_version>  (386) 
48012

>  <i_f3d_flags>  (386) 
0

>  <s_epik_input>  (386) 
W0NAXTEyM1tDQEhdNFtDSDJdW0NIMl1bQ0BASF0oW0NIM10pW0NAQEhdMltDSDJdW0NIMl1bQ0BAXShbQ0gzXSkoT08zKU9bQ0BIXTFPQyg9TylbQ0BASF00W0NIM10=

>  <s_epik_cmdline>  (386) 
J2VwaWtfcHl0aG9uJywgJy1waHQnLCAnMi4wJywgJy1waCcsICc3LjAnLCAnLXRuJywgJzgnLCAnLW1hJywgJzIwMCcsICctaW1hZScsICc8aW5maWxlLm1hZT4nLCAnLW9tYWUnLCAnPG91dGZpbGUubWFlPic=

>  <r_lp_tautomer_probability>  (386) 
1

>  <r_epik_Ionization_Penalty>  (386) 
1.7205e-10

>  <r_epik_Ionization_Penalty_Charging>  (386) 
0

>  <r_epik_Ionization_Penalty_Neutral>  (386) 
1.7205e-10

>  <r_epik_State_Penalty>  (386) 
-0

>  <r_epik_Charging_Adjusted_Penalty>  (386) 
0

>  <i_epik_Tot_Q>  (386) 
0

>  <i_epik_Tot_abs_Q>  (386) 
0

>  <s_epik_Chemistry_Notes>  (386) 
This compound has an ester and may undergo hydrolysis at high or low pH. This compound contains an acetal/aminal-like group ( X-CH(R)-Y where X, Y are N, S, or O) that may be acid/base labile, releasing an aldehyde.

>  <s_lp_Force_Field>  (386) 
OPLS3e

>  <r_lp_Energy>  (386) 
36.9221

>  <b_lp_Chiralities_Consistent>  (386) 
1

>  <s_lp_Variant>  (386) 
108:0-1

>  <s_i_glide_gridfile>  (386) 
pfpi4k_grid

>  <i_i_glide_lignum>  (386) 
26

>  <i_i_glide_rotatable_bonds>  (386) 
0

>  <r_i_docking_score>  (386) 
-3.06822

>  <r_i_glide_ligand_efficiency>  (386) 
-0.153411

>  <r_i_glide_ligand_efficiency_sa>  (386) 
-0.416421

>  <r_i_glide_ligand_efficiency_ln>  (386) 
-0.767873

>  <r_i_glide_gscore>  (386) 
-3.06822

>  <r_i_glide_lipo>  (386) 
-0.103274

>  <r_i_glide_hbond>  (386) 
-0.0656333

>  <r_i_glide_metal>  (386) 
-0

>  <r_i_glide_rewards>  (386) 
-1.48489

>  <r_i_glide_evdw>  (386) 
-21.8227

>  <r_i_glide_ecoul>  (386) 
-1.812

>  <r_i_glide_erotb>  (386) 
0

>  <r_i_glide_esite>  (386) 
-0.0514787

>  <r_i_glide_emodel>  (386) 
-28.3212

>  <r_i_glide_energy>  (386) 
-23.6347

>  <r_i_glide_einternal>  (386) 
0

>  <r_i_glide_intrahb_reward>  (386) 
-0

>  <i_i_glide_confnum>  (386) 
2

>  <i_i_glide_posenum>  (386) 
2

>  <r_i_glide_eff_state_penalty>  (386) 
0

>  <ligand_id>  (386) 
108

>  <original_smiles>  (386) 
CC1CCC2C(C)C(=O)OC3OC4(C)CCC1C32OO4

>  <smiles>  (386) 
[H]C([H])([H])C12OOC34C([H])(OC(=O)C([H])(C([H])([H])[H])C3([H])C([H])([H])C([H])([H])C([H])(C([H])([H])[H])C4([H])C([H])([H])C1([H])[H])O2

$$$$
109:0:0
     RDKit          3D

 47 54  0  0  1  0  0  0  0  0999 V2000
    3.8918   -6.1490    1.7444 O   0  0  0  0  0  0  0  0  0  0  0  0
    5.0228   -5.6586    1.7920 C   0  0  0  0  0  0  0  0  0  0  0  0
    5.3007   -4.3986    1.4075 N   0  0  0  0  0  0  0  0  0  0  0  0
    4.3870   -3.4548    0.7592 C   0  0  2  0  0  0  0  0  0  0  0  0
    4.1025   -3.8695   -0.7099 C   0  0  2  0  0  0  0  0  0  0  0  0
    5.4099   -3.8497   -1.5295 C   0  0  0  0  0  0  0  0  0  0  0  0
    6.0142   -2.4313   -1.5201 C   0  0  1  0  0  0  0  0  0  0  0  0
    5.0080   -1.4563   -2.1623 C   0  0  0  0  0  0  0  0  0  0  0  0
    3.7026   -1.4727   -1.3502 C   0  0  1  0  0  0  0  0  0  0  0  0
    3.1007   -2.8929   -1.3517 C   0  0  0  0  0  0  0  0  0  0  0  0
    3.9861   -1.0422    0.1041 C   0  0  0  0  0  0  0  0  0  0  0  0
    4.9891   -2.0247    0.7505 C   0  0  2  0  0  0  0  0  0  0  0  0
    6.3065   -2.0062   -0.0633 C   0  0  0  0  0  0  0  0  0  0  0  0
    6.2114   -6.5329    2.2138 C   0  0  1  0  0  0  0  0  0  0  0  0
    6.4426   -8.0190    1.8136 C   0  0  2  0  0  0  0  0  0  0  0  0
    6.6268   -8.9947    3.0834 C   0  0  0  0  0  0  0  0  0  0  0  0
    7.5479   -8.0603    4.0645 C   0  0  1  0  0  0  0  0  0  0  0  0
    8.1406   -7.5390    3.0206 C   0  0  1  0  0  0  0  0  0  0  0  0
    7.8195   -7.4352    1.6235 C   0  0  2  0  0  0  0  0  0  0  0  0
    7.6512   -6.0570    2.1928 C   0  0  2  0  0  0  0  0  0  0  0  0
    7.8553   -6.3374    3.8078 C   0  0  2  0  0  0  0  0  0  0  0  0
    6.6525   -6.6472    3.5829 C   0  0  1  0  0  0  0  0  0  0  0  0
    6.2707   -4.1201    1.4667 H   0  0  0  0  0  0  0  0  0  0  0  0
    3.4476   -3.4434    1.3183 H   0  0  0  0  0  0  0  0  0  0  0  0
    3.6719   -4.8718   -0.7214 H   0  0  0  0  0  0  0  0  0  0  0  0
    6.1204   -4.5534   -1.1029 H   0  0  0  0  0  0  0  0  0  0  0  0
    5.2202   -4.1776   -2.5519 H   0  0  0  0  0  0  0  0  0  0  0  0
    6.9404   -2.4303   -2.0968 H   0  0  0  0  0  0  0  0  0  0  0  0
    5.4106   -0.4431   -2.2030 H   0  0  0  0  0  0  0  0  0  0  0  0
    4.8022   -1.7543   -3.1928 H   0  0  0  0  0  0  0  0  0  0  0  0
    2.9978   -0.7769   -1.8060 H   0  0  0  0  0  0  0  0  0  0  0  0
    2.8585   -3.2043   -2.3676 H   0  0  0  0  0  0  0  0  0  0  0  0
    2.1639   -2.9076   -0.7978 H   0  0  0  0  0  0  0  0  0  0  0  0
    4.3869   -0.0294    0.1224 H   0  0  0  0  0  0  0  0  0  0  0  0
    3.0541   -1.0123    0.6715 H   0  0  0  0  0  0  0  0  0  0  0  0
    5.1842   -1.7075    1.7770 H   0  0  0  0  0  0  0  0  0  0  0  0
    7.0449   -2.6778    0.3766 H   0  0  0  0  0  0  0  0  0  0  0  0
    6.7450   -1.0118   -0.0237 H   0  0  0  0  0  0  0  0  0  0  0  0
    5.9549   -8.3779    0.9049 H   0  0  0  0  0  0  0  0  0  0  0  0
    5.6861   -9.3120    3.5377 H   0  0  0  0  0  0  0  0  0  0  0  0
    7.1730   -9.8981    2.8039 H   0  0  0  0  0  0  0  0  0  0  0  0
    8.2508   -8.5768    4.7227 H   0  0  0  0  0  0  0  0  0  0  0  0
    9.2642   -7.6647    3.2146 H   0  0  0  0  0  0  0  0  0  0  0  0
    8.6073   -7.7956    0.9521 H   0  0  0  0  0  0  0  0  0  0  0  0
    7.9523   -5.1531    1.6522 H   0  0  0  0  0  0  0  0  0  0  0  0
    7.8136   -5.5780    4.5921 H   0  0  0  0  0  0  0  0  0  0  0  0
    5.9226   -6.7866    4.4252 H   0  0  0  0  0  0  0  0  0  0  0  0
  1  2  2  0
  2  3  1  0
 14  2  1  1
  3  4  1  0
  3 23  1  0
  4 12  1  0
  4  5  1  0
  4 24  1  1
  5 10  1  0
  5  6  1  0
  5 25  1  1
  6  7  1  0
  6 26  1  0
  6 27  1  0
  7 13  1  0
  7  8  1  0
  7 28  1  6
  8  9  1  0
  8 29  1  0
  8 30  1  0
  9 10  1  0
  9 11  1  0
  9 31  1  6
 10 32  1  0
 10 33  1  0
 11 12  1  0
 11 34  1  0
 11 35  1  0
 12 13  1  0
 12 36  1  1
 13 37  1  0
 13 38  1  0
 14 20  1  0
 14 22  1  0
 14 15  1  0
 15 19  1  0
 15 16  1  0
 15 39  1  6
 16 17  1  0
 16 40  1  0
 16 41  1  0
 17 21  1  0
 17 18  1  0
 17 42  1  1
 18 22  1  0
 18 19  1  0
 18 43  1  6
 19 20  1  0
 19 44  1  6
 20 21  1  0
 20 45  1  6
 21 22  1  0
 21 46  1  1
 22 47  1  1
M  END
>  <i_m_ct_stereo_status>  (387) 
1

>  <s_m_source_file>  (387) 
/var/tmp/pbs.5076255.sched01/tmpfsvwwkaa/138cw1meju8.sdf

>  <i_m_source_file_index>  (387) 
27

>  <i_lp_mmshare_version>  (387) 
48012

>  <i_f3d_flags>  (387) 
0

>  <s_epik_input>  (387) 
W0NAQEhdMTJbQ0BASF0oW0NAQEhdMzQpW0NAQEhdKFtDSDJdNSlbQ0BIXTRbQ0BIXTJbQ0BASF01W0NAXTEzQyg9TylbTkhdW0NASF0oW0NASF02NylbQ0BASF04W0NIMl1bQ0BIXShbQ0gyXTcpW0NIMl1bQ0BIXShbQ0gyXTYpW0NIMl04

>  <s_epik_cmdline>  (387) 
J2VwaWtfcHl0aG9uJywgJy1waHQnLCAnMi4wJywgJy1waCcsICc3LjAnLCAnLXRuJywgJzgnLCAnLW1hJywgJzIwMCcsICctaW1hZScsICc8aW5maWxlLm1hZT4nLCAnLW9tYWUnLCAnPG91dGZpbGUubWFlPic=

>  <r_lp_tautomer_probability>  (387) 
1

>  <r_epik_Ionization_Penalty>  (387) 
2.79161e-07

>  <r_epik_Ionization_Penalty_Charging>  (387) 
0

>  <r_epik_Ionization_Penalty_Neutral>  (387) 
2.79161e-07

>  <r_epik_State_Penalty>  (387) 
-0

>  <r_epik_Charging_Adjusted_Penalty>  (387) 
0

>  <i_epik_Tot_Q>  (387) 
0

>  <i_epik_Tot_abs_Q>  (387) 
0

>  <s_lp_Force_Field>  (387) 
OPLS3e

>  <r_lp_Energy>  (387) 
379.005

>  <b_lp_Chiralities_Consistent>  (387) 
1

>  <s_lp_Variant>  (387) 
109:0-1

>  <s_i_glide_gridfile>  (387) 
pfpi4k_grid

>  <i_i_glide_lignum>  (387) 
27

>  <i_i_glide_rotatable_bonds>  (387) 
3

>  <r_i_docking_score>  (387) 
-2.32863

>  <r_i_glide_ligand_efficiency>  (387) 
-0.105847

>  <r_i_glide_ligand_efficiency_sa>  (387) 
-0.296587

>  <r_i_glide_ligand_efficiency_ln>  (387) 
-0.569202

>  <r_i_glide_gscore>  (387) 
-2.32863

>  <r_i_glide_lipo>  (387) 
-0.25248

>  <r_i_glide_hbond>  (387) 
0

>  <r_i_glide_metal>  (387) 
-0

>  <r_i_glide_rewards>  (387) 
-1.43956

>  <r_i_glide_evdw>  (387) 
-24.4856

>  <r_i_glide_ecoul>  (387) 
-0.276754

>  <r_i_glide_erotb>  (387) 
0.629205

>  <r_i_glide_esite>  (387) 
0

>  <r_i_glide_emodel>  (387) 
-27.4087

>  <r_i_glide_energy>  (387) 
-24.7623

>  <r_i_glide_einternal>  (387) 
1.49084

>  <r_i_glide_intrahb_reward>  (387) 
-0

>  <i_i_glide_confnum>  (387) 
4

>  <i_i_glide_posenum>  (387) 
20

>  <r_i_glide_eff_state_penalty>  (387) 
0

>  <ligand_id>  (387) 
109

>  <original_smiles>  (387) 
O=C(NC1C2CC3CC(C2)CC1C3)C12C3CC4C5C3C1C4C52

>  <smiles>  (387) 
[H]N(C(=O)C12C3([H])C([H])([H])C4([H])C5([H])C3([H])C1([H])C4([H])C52[H])C1([H])C2([H])C([H])([H])C3([H])C([H])([H])C([H])(C2([H])[H])C([H])([H])C1([H])C3([H])[H]

$$$$
109:0:1
     RDKit          3D

 47 54  0  0  1  0  0  0  0  0999 V2000
    2.0652   -5.2392    0.9224 O   0  0  0  0  0  0  0  0  0  0  0  0
    3.2514   -5.3246    0.6110 C   0  0  0  0  0  0  0  0  0  0  0  0
    3.8826   -4.4914   -0.2330 N   0  0  0  0  0  0  0  0  0  0  0  0
    3.3840   -3.2733   -0.8339 C   0  0  2  0  0  0  0  0  0  0  0  0
    2.9902   -3.4706   -2.3261 C   0  0  2  0  0  0  0  0  0  0  0  0
    4.2360   -3.8434   -3.1716 C   0  0  0  0  0  0  0  0  0  0  0  0
    5.2511   -2.7357   -3.0890 C   0  0  1  0  0  0  0  0  0  0  0  0
    4.5433   -1.5099   -3.6652 C   0  0  0  0  0  0  0  0  0  0  0  0
    3.3556   -1.1156   -2.8239 C   0  0  1  0  0  0  0  0  0  0  0  0
    2.3529   -2.2557   -2.9325 C   0  0  0  0  0  0  0  0  0  0  0  0
    3.8274   -0.9347   -1.3610 C   0  0  0  0  0  0  0  0  0  0  0  0
    4.4639   -2.1721   -0.7828 C   0  0  2  0  0  0  0  0  0  0  0  0
    5.6903   -2.5333   -1.6292 C   0  0  0  0  0  0  0  0  0  0  0  0
    4.1160   -6.4335    1.2421 C   0  0  1  0  0  0  0  0  0  0  0  0
    4.6122   -7.7222    0.5339 C   0  0  2  0  0  0  0  0  0  0  0  0
    4.1492   -9.0532    1.3232 C   0  0  0  0  0  0  0  0  0  0  0  0
    4.4016   -8.5889    2.8782 C   0  0  1  0  0  0  0  0  0  0  0  0
    5.4226   -7.8538    2.5288 C   0  0  1  0  0  0  0  0  0  0  0  0
    5.8635   -7.2712    1.2674 C   0  0  2  0  0  0  0  0  0  0  0  0
    5.3226   -6.1264    2.0950 C   0  0  2  0  0  0  0  0  0  0  0  0
    4.7026   -6.9206    3.4052 C   0  0  2  0  0  0  0  0  0  0  0  0
    3.8059   -7.0162    2.5258 C   0  0  1  0  0  0  0  0  0  0  0  0
    4.8522   -4.7195   -0.4657 H   0  0  0  0  0  0  0  0  0  0  0  0
    2.4988   -2.9030   -0.2913 H   0  0  0  0  0  0  0  0  0  0  0  0
    2.2130   -4.2382   -2.3712 H   0  0  0  0  0  0  0  0  0  0  0  0
    4.6970   -4.7620   -2.8037 H   0  0  0  0  0  0  0  0  0  0  0  0
    3.9332   -4.0322   -4.1967 H   0  0  0  0  0  0  0  0  0  0  0  0
    6.1215   -3.0515   -3.6407 H   0  0  0  0  0  0  0  0  0  0  0  0
    5.1433   -0.6540   -3.5167 H   0  0  0  0  0  0  0  0  0  0  0  0
    4.2672   -1.6144   -4.7140 H   0  0  0  0  0  0  0  0  0  0  0  0
    2.9375   -0.1898   -3.2001 H   0  0  0  0  0  0  0  0  0  0  0  0
    2.0501   -2.4209   -3.9718 H   0  0  0  0  0  0  0  0  0  0  0  0
    1.4940   -2.1097   -2.3221 H   0  0  0  0  0  0  0  0  0  0  0  0
    4.5312   -0.1028   -1.3065 H   0  0  0  0  0  0  0  0  0  0  0  0
    3.0056   -0.7099   -0.6988 H   0  0  0  0  0  0  0  0  0  0  0  0
    4.7396   -1.9520    0.2469 H   0  0  0  0  0  0  0  0  0  0  0  0
    6.1718   -3.4238   -1.2306 H   0  0  0  0  0  0  0  0  0  0  0  0
    6.4165   -1.7215   -1.5766 H   0  0  0  0  0  0  0  0  0  0  0  0
    4.6165   -7.6797   -0.5452 H   0  0  0  0  0  0  0  0  0  0  0  0
    3.1183   -9.3615    1.1151 H   0  0  0  0  0  0  0  0  0  0  0  0
    4.7969   -9.8846    1.0681 H   0  0  0  0  0  0  0  0  0  0  0  0
    4.7003   -9.3713    3.5873 H   0  0  0  0  0  0  0  0  0  0  0  0
    6.2718   -8.1829    3.2086 H   0  0  0  0  0  0  0  0  0  0  0  0
    6.9135   -7.4700    1.0333 H   0  0  0  0  0  0  0  0  0  0  0  0
    5.7640   -5.1239    2.0763 H   0  0  0  0  0  0  0  0  0  0  0  0
    4.1754   -6.4474    4.2307 H   0  0  0  0  0  0  0  0  0  0  0  0
    2.7620   -7.3056    2.8135 H   0  0  0  0  0  0  0  0  0  0  0  0
  1  2  2  0
  2  3  1  0
 14  2  1  6
  3  4  1  0
  3 23  1  0
  4 12  1  0
  4  5  1  0
  4 24  1  1
  5 10  1  0
  5  6  1  0
  5 25  1  1
  6  7  1  0
  6 26  1  0
  6 27  1  0
  7 13  1  0
  7  8  1  0
  7 28  1  6
  8  9  1  0
  8 29  1  0
  8 30  1  0
  9 10  1  0
  9 11  1  0
  9 31  1  6
 10 32  1  0
 10 33  1  0
 11 12  1  0
 11 34  1  0
 11 35  1  0
 12 13  1  0
 12 36  1  1
 13 37  1  0
 13 38  1  0
 14 20  1  0
 14 22  1  0
 14 15  1  0
 15 19  1  0
 15 16  1  0
 15 39  1  6
 16 17  1  0
 16 40  1  0
 16 41  1  0
 17 21  1  0
 17 18  1  0
 17 42  1  1
 18 22  1  0
 18 19  1  0
 18 43  1  1
 19 20  1  0
 19 44  1  6
 20 21  1  0
 20 45  1  1
 21 22  1  0
 21 46  1  1
 22 47  1  1
M  END
>  <i_m_ct_stereo_status>  (388) 
1

>  <s_m_source_file>  (388) 
/var/tmp/pbs.5076255.sched01/tmpfsvwwkaa/138cw1meju8.sdf

>  <i_m_source_file_index>  (388) 
27

>  <i_lp_mmshare_version>  (388) 
48012

>  <i_f3d_flags>  (388) 
0

>  <s_epik_input>  (388) 
W0NAQEhdMTJbQ0BASF0oW0NAQEhdMzQpW0NAQEhdKFtDSDJdNSlbQ0BIXTRbQ0BIXTJbQ0BASF01W0NAXTEzQyg9TylbTkhdW0NASF0oW0NASF02NylbQ0BASF04W0NIMl1bQ0BIXShbQ0gyXTcpW0NIMl1bQ0BIXShbQ0gyXTYpW0NIMl04

>  <s_epik_cmdline>  (388) 
J2VwaWtfcHl0aG9uJywgJy1waHQnLCAnMi4wJywgJy1waCcsICc3LjAnLCAnLXRuJywgJzgnLCAnLW1hJywgJzIwMCcsICctaW1hZScsICc8aW5maWxlLm1hZT4nLCAnLW9tYWUnLCAnPG91dGZpbGUubWFlPic=

>  <r_lp_tautomer_probability>  (388) 
1

>  <r_epik_Ionization_Penalty>  (388) 
2.79161e-07

>  <r_epik_Ionization_Penalty_Charging>  (388) 
0

>  <r_epik_Ionization_Penalty_Neutral>  (388) 
2.79161e-07

>  <r_epik_State_Penalty>  (388) 
-0

>  <r_epik_Charging_Adjusted_Penalty>  (388) 
0

>  <i_epik_Tot_Q>  (388) 
0

>  <i_epik_Tot_abs_Q>  (388) 
0

>  <s_lp_Force_Field>  (388) 
OPLS3e

>  <r_lp_Energy>  (388) 
379.005

>  <b_lp_Chiralities_Consistent>  (388) 
1

>  <s_lp_Variant>  (388) 
109:0-1

>  <s_i_glide_gridfile>  (388) 
pfpi4k_grid

>  <i_i_glide_lignum>  (388) 
27

>  <i_i_glide_rotatable_bonds>  (388) 
3

>  <r_i_docking_score>  (388) 
-2.20454

>  <r_i_glide_ligand_efficiency>  (388) 
-0.100206

>  <r_i_glide_ligand_efficiency_sa>  (388) 
-0.280782

>  <r_i_glide_ligand_efficiency_ln>  (388) 
-0.538869

>  <r_i_glide_gscore>  (388) 
-2.20454

>  <r_i_glide_lipo>  (388) 
-0.531085

>  <r_i_glide_hbond>  (388) 
-0.0445595

>  <r_i_glide_metal>  (388) 
-0

>  <r_i_glide_rewards>  (388) 
-1.39487

>  <r_i_glide_evdw>  (388) 
-11.4893

>  <r_i_glide_ecoul>  (388) 
-1.65979

>  <r_i_glide_erotb>  (388) 
0.629205

>  <r_i_glide_esite>  (388) 
-0.0397902

>  <r_i_glide_emodel>  (388) 
-15.3674

>  <r_i_glide_energy>  (388) 
-13.1491

>  <r_i_glide_einternal>  (388) 
1.49285

>  <r_i_glide_intrahb_reward>  (388) 
-0

>  <i_i_glide_confnum>  (388) 
4

>  <i_i_glide_posenum>  (388) 
33

>  <r_i_glide_eff_state_penalty>  (388) 
0

>  <ligand_id>  (388) 
109

>  <original_smiles>  (388) 
O=C(NC1C2CC3CC(C2)CC1C3)C12C3CC4C5C3C1C4C52

>  <smiles>  (388) 
[H]N(C(=O)C12C3([H])C([H])([H])C4([H])C5([H])C3([H])C1([H])C4([H])C52[H])C1([H])C2([H])C([H])([H])C3([H])C([H])([H])C([H])(C2([H])[H])C([H])([H])C1([H])C3([H])[H]

$$$$
109:0:2
     RDKit          3D

 47 54  0  0  1  0  0  0  0  0999 V2000
    2.2222   -5.2840    0.6102 O   0  0  0  0  0  0  0  0  0  0  0  0
    3.4477   -5.1979    0.5521 C   0  0  0  0  0  0  0  0  0  0  0  0
    4.1216   -4.2480   -0.1107 N   0  0  0  0  0  0  0  0  0  0  0  0
    3.5508   -3.0863   -0.8013 C   0  0  2  0  0  0  0  0  0  0  0  0
    3.0761   -3.4547   -2.2318 C   0  0  2  0  0  0  0  0  0  0  0  0
    4.2937   -3.8973   -3.0938 C   0  0  0  0  0  0  0  0  0  0  0  0
    5.2844   -2.7338   -3.1810 C   0  0  1  0  0  0  0  0  0  0  0  0
    4.5148   -1.5617   -3.8700 C   0  0  0  0  0  0  0  0  0  0  0  0
    3.3865   -1.1237   -2.9783 C   0  0  1  0  0  0  0  0  0  0  0  0
    2.4223   -2.2860   -2.9416 C   0  0  0  0  0  0  0  0  0  0  0  0
    3.9521   -0.7906   -1.5818 C   0  0  0  0  0  0  0  0  0  0  0  0
    4.6164   -1.9733   -0.9095 C   0  0  2  0  0  0  0  0  0  0  0  0
    5.8084   -2.4007   -1.7699 C   0  0  0  0  0  0  0  0  0  0  0  0
    4.3074   -6.2546    1.2662 C   0  0  1  0  0  0  0  0  0  0  0  0
    3.8756   -7.7048    1.6101 C   0  0  2  0  0  0  0  0  0  0  0  0
    3.9983   -8.0496    3.1851 C   0  0  0  0  0  0  0  0  0  0  0  0
    5.4284   -7.3170    3.5451 C   0  0  1  0  0  0  0  0  0  0  0  0
    5.8909   -7.5858    2.3510 C   0  0  1  0  0  0  0  0  0  0  0  0
    5.2815   -7.9446    1.1043 C   0  0  2  0  0  0  0  0  0  0  0  0
    5.7653   -6.5221    0.9459 C   0  0  2  0  0  0  0  0  0  0  0  0
    6.2599   -6.1728    2.4850 C   0  0  2  0  0  0  0  0  0  0  0  0
    5.0139   -5.9845    2.5056 C   0  0  1  0  0  0  0  0  0  0  0  0
    5.1210   -4.3492   -0.1677 H   0  0  0  0  0  0  0  0  0  0  0  0
    2.6924   -2.7228   -0.2323 H   0  0  0  0  0  0  0  0  0  0  0  0
    2.3130   -4.2281   -2.1659 H   0  0  0  0  0  0  0  0  0  0  0  0
    4.7985   -4.7720   -2.6458 H   0  0  0  0  0  0  0  0  0  0  0  0
    3.9420   -4.1495   -4.1072 H   0  0  0  0  0  0  0  0  0  0  0  0
    6.1391   -3.0948   -3.7400 H   0  0  0  0  0  0  0  0  0  0  0  0
    5.0027   -0.6391   -4.0392 H   0  0  0  0  0  0  0  0  0  0  0  0
    4.1632   -1.8773   -4.8525 H   0  0  0  0  0  0  0  0  0  0  0  0
    2.9334   -0.2450   -3.4368 H   0  0  0  0  0  0  0  0  0  0  0  0
    2.0395   -2.5469   -3.9221 H   0  0  0  0  0  0  0  0  0  0  0  0
    1.5547   -2.0256   -2.3505 H   0  0  0  0  0  0  0  0  0  0  0  0
    4.6088    0.0805   -1.6474 H   0  0  0  0  0  0  0  0  0  0  0  0
    3.1416   -0.6395   -0.8866 H   0  0  0  0  0  0  0  0  0  0  0  0
    4.9308   -1.6576    0.0887 H   0  0  0  0  0  0  0  0  0  0  0  0
    6.3101   -3.2622   -1.3079 H   0  0  0  0  0  0  0  0  0  0  0  0
    6.5374   -1.5922   -1.8106 H   0  0  0  0  0  0  0  0  0  0  0  0
    3.0767   -8.1504    1.0110 H   0  0  0  0  0  0  0  0  0  0  0  0
    3.1554   -7.6972    3.7913 H   0  0  0  0  0  0  0  0  0  0  0  0
    4.0926   -9.1223    3.3381 H   0  0  0  0  0  0  0  0  0  0  0  0
    6.0342   -7.7739    4.3330 H   0  0  0  0  0  0  0  0  0  0  0  0
    6.8940   -8.1138    2.5188 H   0  0  0  0  0  0  0  0  0  0  0  0
    5.6904   -8.8509    0.6376 H   0  0  0  0  0  0  0  0  0  0  0  0
    6.2340   -6.1340    0.0423 H   0  0  0  0  0  0  0  0  0  0  0  0
    6.7076   -5.2293    2.8215 H   0  0  0  0  0  0  0  0  0  0  0  0
    4.5260   -5.4222    3.3461 H   0  0  0  0  0  0  0  0  0  0  0  0
  1  2  2  0
  2  3  1  0
 14  2  1  6
  3  4  1  0
  3 23  1  0
  4 12  1  0
  4  5  1  0
  4 24  1  1
  5 10  1  0
  5  6  1  0
  5 25  1  1
  6  7  1  0
  6 26  1  0
  6 27  1  0
  7 13  1  0
  7  8  1  0
  7 28  1  6
  8  9  1  0
  8 29  1  0
  8 30  1  0
  9 10  1  0
  9 11  1  0
  9 31  1  6
 10 32  1  0
 10 33  1  0
 11 12  1  0
 11 34  1  0
 11 35  1  0
 12 13  1  0
 12 36  1  1
 13 37  1  0
 13 38  1  0
 14 20  1  0
 14 22  1  0
 14 15  1  0
 15 19  1  0
 15 16  1  0
 15 39  1  6
 16 17  1  0
 16 40  1  0
 16 41  1  0
 17 21  1  0
 17 18  1  0
 17 42  1  1
 18 22  1  0
 18 19  1  0
 18 43  1  1
 19 20  1  0
 19 44  1  6
 20 21  1  0
 20 45  1  6
 21 22  1  0
 21 46  1  6
 22 47  1  1
M  END
>  <i_m_ct_stereo_status>  (389) 
1

>  <s_m_source_file>  (389) 
/var/tmp/pbs.5076255.sched01/tmpfsvwwkaa/138cw1meju8.sdf

>  <i_m_source_file_index>  (389) 
27

>  <i_lp_mmshare_version>  (389) 
48012

>  <i_f3d_flags>  (389) 
0

>  <s_epik_input>  (389) 
W0NAQEhdMTJbQ0BASF0oW0NAQEhdMzQpW0NAQEhdKFtDSDJdNSlbQ0BIXTRbQ0BIXTJbQ0BASF01W0NAXTEzQyg9TylbTkhdW0NASF0oW0NASF02NylbQ0BASF04W0NIMl1bQ0BIXShbQ0gyXTcpW0NIMl1bQ0BIXShbQ0gyXTYpW0NIMl04

>  <s_epik_cmdline>  (389) 
J2VwaWtfcHl0aG9uJywgJy1waHQnLCAnMi4wJywgJy1waCcsICc3LjAnLCAnLXRuJywgJzgnLCAnLW1hJywgJzIwMCcsICctaW1hZScsICc8aW5maWxlLm1hZT4nLCAnLW9tYWUnLCAnPG91dGZpbGUubWFlPic=

>  <r_lp_tautomer_probability>  (389) 
1

>  <r_epik_Ionization_Penalty>  (389) 
2.79161e-07

>  <r_epik_Ionization_Penalty_Charging>  (389) 
0

>  <r_epik_Ionization_Penalty_Neutral>  (389) 
2.79161e-07

>  <r_epik_State_Penalty>  (389) 
-0

>  <r_epik_Charging_Adjusted_Penalty>  (389) 
0

>  <i_epik_Tot_Q>  (389) 
0

>  <i_epik_Tot_abs_Q>  (389) 
0

>  <s_lp_Force_Field>  (389) 
OPLS3e

>  <r_lp_Energy>  (389) 
379.005

>  <b_lp_Chiralities_Consistent>  (389) 
1

>  <s_lp_Variant>  (389) 
109:0-1

>  <s_i_glide_gridfile>  (389) 
pfpi4k_grid

>  <i_i_glide_lignum>  (389) 
27

>  <i_i_glide_rotatable_bonds>  (389) 
3

>  <r_i_docking_score>  (389) 
-1.81793

>  <r_i_glide_ligand_efficiency>  (389) 
-0.082633

>  <r_i_glide_ligand_efficiency_sa>  (389) 
-0.231541

>  <r_i_glide_ligand_efficiency_ln>  (389) 
-0.444368

>  <r_i_glide_gscore>  (389) 
-1.81793

>  <r_i_glide_lipo>  (389) 
-0.423539

>  <r_i_glide_hbond>  (389) 
-0.0129349

>  <r_i_glide_metal>  (389) 
-0

>  <r_i_glide_rewards>  (389) 
-1.39487

>  <r_i_glide_evdw>  (389) 
-10.0424

>  <r_i_glide_ecoul>  (389) 
-0.632072

>  <r_i_glide_erotb>  (389) 
0.629205

>  <r_i_glide_esite>  (389) 
-0.0188524

>  <r_i_glide_emodel>  (389) 
-11.0221

>  <r_i_glide_energy>  (389) 
-10.6745

>  <r_i_glide_einternal>  (389) 
1.73851

>  <r_i_glide_intrahb_reward>  (389) 
-0

>  <i_i_glide_confnum>  (389) 
4

>  <i_i_glide_posenum>  (389) 
8

>  <r_i_glide_eff_state_penalty>  (389) 
0

>  <ligand_id>  (389) 
109

>  <original_smiles>  (389) 
O=C(NC1C2CC3CC(C2)CC1C3)C12C3CC4C5C3C1C4C52

>  <smiles>  (389) 
[H]N(C(=O)C12C3([H])C([H])([H])C4([H])C5([H])C3([H])C1([H])C4([H])C52[H])C1([H])C2([H])C([H])([H])C3([H])C([H])([H])C([H])(C2([H])[H])C([H])([H])C1([H])C3([H])[H]

$$$$
111:0:0
     RDKit          3D

 48 52  0  0  1  0  0  0  0  0999 V2000
    8.3853   -2.5953    0.0652 C   0  0  0  0  0  0  0  0  0  0  0  0
    7.6967   -3.9010   -0.3417 C   0  0  0  0  0  0  0  0  0  0  0  0
    6.8476   -4.4207    0.7224 N   0  0  0  0  0  0  0  0  0  0  0  0
    5.5617   -4.0745    0.8793 C   0  0  0  0  0  0  0  0  0  0  0  0
    4.8943   -3.3227    0.1663 O   0  0  0  0  0  0  0  0  0  0  0  0
    4.9751   -4.7936    2.0867 C   0  0  2  0  0  0  0  0  0  0  0  0
    6.1339   -5.6557    2.6251 C   0  0  2  0  0  0  0  0  0  0  0  0
    7.2500   -5.3144    1.6442 C   0  0  0  0  0  0  0  0  0  0  0  0
    8.3617   -5.8203    1.7346 O   0  0  0  0  0  0  0  0  0  0  0  0
    5.5447   -7.0986    2.5618 C   0  0  2  0  0  0  0  0  0  0  0  0
    5.3083   -7.5129    1.1161 C   0  0  0  0  0  0  0  0  0  0  0  0
    4.3161   -6.7393    0.6545 C   0  0  0  0  0  0  0  0  0  0  0  0
    3.8974   -5.8314    1.7907 C   0  0  1  0  0  0  0  0  0  0  0  0
    4.0717   -6.7768    2.9856 C   0  0  1  0  0  0  0  0  0  0  0  0
    3.1303   -7.9797    2.9692 C   0  0  0  0  0  0  0  0  0  0  0  0
    3.6812   -9.2156    3.3226 N   0  0  0  0  0  0  0  0  0  0  0  0
    2.8107  -10.2092    3.2672 C   0  0  0  0  0  0  0  0  0  0  0  0
    3.1336  -11.5250    3.5466 N   0  0  0  0  0  0  0  0  0  0  0  0
    1.1909   -9.6925    2.8744 S   0  0  0  0  0  0  0  0  0  0  0  0
    1.7711   -8.0486    2.6881 C   0  0  0  0  0  0  0  0  0  0  0  0
    0.5324   -6.7637    2.3742 S   0  0  0  0  0  0  0  0  0  0  0  0
    0.9699   -5.9303    1.2240 O   0  0  0  0  0  0  0  0  0  0  0  0
   -0.7768   -7.4152    2.3587 O   0  0  0  0  0  0  0  0  0  0  0  0
    0.6026   -5.7898    3.8973 C   0  0  0  0  0  0  0  0  0  0  0  0
    1.4332   -4.6571    4.0620 C   0  0  0  0  0  0  0  0  0  0  0  0
    1.4385   -3.9543    5.2864 C   0  0  0  0  0  0  0  0  0  0  0  0
    0.6195   -4.3832    6.3504 C   0  0  0  0  0  0  0  0  0  0  0  0
   -0.1906   -5.5269    6.1960 C   0  0  0  0  0  0  0  0  0  0  0  0
   -0.1875   -6.2395    4.9792 C   0  0  0  0  0  0  0  0  0  0  0  0
    9.0171   -2.2424   -0.7495 H   0  0  0  0  0  0  0  0  0  0  0  0
    9.0317   -2.7483    0.9278 H   0  0  0  0  0  0  0  0  0  0  0  0
    7.6642   -1.8098    0.3039 H   0  0  0  0  0  0  0  0  0  0  0  0
    7.1015   -3.7384   -1.2407 H   0  0  0  0  0  0  0  0  0  0  0  0
    8.4493   -4.6451   -0.5987 H   0  0  0  0  0  0  0  0  0  0  0  0
    4.6076   -4.0710    2.8163 H   0  0  0  0  0  0  0  0  0  0  0  0
    6.3737   -5.3543    3.6485 H   0  0  0  0  0  0  0  0  0  0  0  0
    6.0446   -7.8387    3.1839 H   0  0  0  0  0  0  0  0  0  0  0  0
    5.8343   -8.3273    0.6041 H   0  0  0  0  0  0  0  0  0  0  0  0
    3.8343   -6.7861   -0.3167 H   0  0  0  0  0  0  0  0  0  0  0  0
    2.9761   -5.2889    1.6954 H   0  0  0  0  0  0  0  0  0  0  0  0
    4.0104   -6.2689    3.9598 H   0  0  0  0  0  0  0  0  0  0  0  0
    4.0916  -11.7997    3.7407 H   0  0  0  0  0  0  0  0  0  0  0  0
    2.0642   -4.2959    3.2655 H   0  0  0  0  0  0  0  0  0  0  0  0
    2.0660   -3.0779    5.4098 H   0  0  0  0  0  0  0  0  0  0  0  0
    0.6174   -3.8422    7.2889 H   0  0  0  0  0  0  0  0  0  0  0  0
   -0.8201   -5.8566    7.0136 H   0  0  0  0  0  0  0  0  0  0  0  0
   -0.8057   -7.1221    4.8631 H   0  0  0  0  0  0  0  0  0  0  0  0
    2.4451  -12.2609    3.4903 H   0  0  0  0  0  0  0  0  0  0  0  0
  1  2  1  0
  1 30  1  0
  1 31  1  0
  1 32  1  0
  2 33  1  0
  2 34  1  0
  2  3  1  0
  3  8  1  0
  3  4  1  0
  4  5  2  0
  4  6  1  0
  6 13  1  0
  6 35  1  1
  6  7  1  0
  7 10  1  0
  7 36  1  1
  7  8  1  0
  8  9  2  0
 10 14  1  0
 10 11  1  0
 10 37  1  1
 11 12  2  0
 11 38  1  0
 12 13  1  0
 12 39  1  0
 13 14  1  0
 13 40  1  6
 14 15  1  0
 14 41  1  1
 15 20  2  0
 15 16  1  0
 16 17  2  0
 17 18  1  0
 17 19  1  0
 18 42  1  0
 18 48  1  0
 19 20  1  0
 20 21  1  0
 21 22  2  0
 21 23  2  0
 21 24  1  0
 24 29  1  0
 24 25  2  0
 25 26  1  0
 25 43  1  0
 26 27  2  0
 26 44  1  0
 27 28  1  0
 27 45  1  0
 28 29  2  0
 28 46  1  0
 29 47  1  0
M  END
>  <i_m_ct_stereo_status>  (390) 
1

>  <s_m_source_file>  (390) 
/var/tmp/pbs.5076255.sched01/tmpfsvwwkaa/138cw1meju8.sdf

>  <i_m_source_file_index>  (390) 
29

>  <i_lp_mmshare_version>  (390) 
48012

>  <i_f3d_flags>  (390) 
0

>  <s_epik_input>  (390) 
W0NIM11bQ0gyXW4oYzFbT0hdKWMoW09IXSljKGMxMilbQ0BASF0zW0NIXT1bQ0hdW0NASF0yW0NASF0zYzRbbkhdL2MoPU5cW0hdKXNjNFMoPU8pKD1PKWM1W2NIXVtjSF1bY0hdW2NIXVtjSF01

>  <s_epik_cmdline>  (390) 
J2VwaWtfcHl0aG9uJywgJy1waHQnLCAnMi4wJywgJy1waCcsICc3LjAnLCAnLXRuJywgJzgnLCAnLW1hJywgJzIwMCcsICctaW1hZScsICc8aW5maWxlLm1hZT4nLCAnLW9tYWUnLCAnPG91dGZpbGUubWFlPic=

>  <r_lp_tautomer_probability>  (390) 
1

>  <r_epik_Ionization_Penalty>  (390) 
3.68372e-06

>  <r_epik_Ionization_Penalty_Charging>  (390) 
0

>  <r_epik_Ionization_Penalty_Neutral>  (390) 
3.68372e-06

>  <r_epik_State_Penalty>  (390) 
-0

>  <r_epik_Charging_Adjusted_Penalty>  (390) 
0

>  <i_epik_Tot_Q>  (390) 
0

>  <i_epik_Tot_abs_Q>  (390) 
0

>  <s_lp_Force_Field>  (390) 
OPLS3e

>  <r_lp_Energy>  (390) 
27.3245

>  <b_lp_Chiralities_Consistent>  (390) 
1

>  <s_lp_Variant>  (390) 
111:0-1

>  <s_i_glide_gridfile>  (390) 
pfpi4k_grid

>  <i_i_glide_lignum>  (390) 
29

>  <i_i_glide_rotatable_bonds>  (390) 
4

>  <r_i_docking_score>  (390) 
-3.20879

>  <r_i_glide_ligand_efficiency>  (390) 
-0.110648

>  <r_i_glide_ligand_efficiency_sa>  (390) 
-0.339946

>  <r_i_glide_ligand_efficiency_ln>  (390) 
-0.734733

>  <r_i_glide_gscore>  (390) 
-3.20879

>  <r_i_glide_lipo>  (390) 
-0.523048

>  <r_i_glide_hbond>  (390) 
-0.00481825

>  <r_i_glide_metal>  (390) 
-0

>  <r_i_glide_rewards>  (390) 
-0.849381

>  <r_i_glide_evdw>  (390) 
-28.8875

>  <r_i_glide_ecoul>  (390) 
-2.80446

>  <r_i_glide_erotb>  (390) 
0.32317

>  <r_i_glide_esite>  (390) 
-0.289674

>  <r_i_glide_emodel>  (390) 
-37.5211

>  <r_i_glide_energy>  (390) 
-31.692

>  <r_i_glide_einternal>  (390) 
0.586439

>  <r_i_glide_intrahb_reward>  (390) 
-0

>  <i_i_glide_confnum>  (390) 
1

>  <i_i_glide_posenum>  (390) 
30

>  <r_i_glide_eff_state_penalty>  (390) 
0

>  <ligand_id>  (390) 
111

>  <original_smiles>  (390) 
CCn1c(O)c2c(c1O)C1C=CC2C1c1[nH]c(=N)sc1S(=O)(=O)c1ccccc1

>  <smiles>  (390) 
[H]C1=C([H])C2([H])C3([H])C(=O)N(C([H])([H])C([H])([H])[H])C(=O)C3([H])C1([H])C2([H])c1nc(N([H])[H])sc1S(=O)(=O)c1c([H])c([H])c([H])c([H])c1[H]

$$$$
111:0:1
     RDKit          3D

 48 52  0  0  1  0  0  0  0  0999 V2000
    4.7468   -3.4508   -2.9693 C   0  0  0  0  0  0  0  0  0  0  0  0
    5.0970   -3.7751   -1.5123 C   0  0  0  0  0  0  0  0  0  0  0  0
    4.5715   -2.7554   -0.6100 N   0  0  0  0  0  0  0  0  0  0  0  0
    3.3413   -2.7870   -0.0806 C   0  0  0  0  0  0  0  0  0  0  0  0
    2.4853   -3.6556   -0.2431 O   0  0  0  0  0  0  0  0  0  0  0  0
    3.1399   -1.5862    0.8321 C   0  0  2  0  0  0  0  0  0  0  0  0
    4.4694   -0.8293    0.7818 C   0  0  2  0  0  0  0  0  0  0  0  0
    5.2941   -1.7084   -0.1618 C   0  0  0  0  0  0  0  0  0  0  0  0
    6.4673   -1.4563   -0.4305 O   0  0  0  0  0  0  0  0  0  0  0  0
    4.8993   -0.8128    2.2854 C   0  0  2  0  0  0  0  0  0  0  0  0
    5.2039   -2.2344    2.7612 C   0  0  0  0  0  0  0  0  0  0  0  0
    4.0418   -2.8845    2.7887 C   0  0  0  0  0  0  0  0  0  0  0  0
    2.9752   -1.9167    2.3145 C   0  0  1  0  0  0  0  0  0  0  0  0
    3.5023   -0.6026    2.9297 C   0  0  1  0  0  0  0  0  0  0  0  0
    3.4709   -0.5809    4.4532 C   0  0  0  0  0  0  0  0  0  0  0  0
    4.6057   -0.0597    5.0934 N   0  0  0  0  0  0  0  0  0  0  0  0
    4.5372   -0.0989    6.4142 C   0  0  0  0  0  0  0  0  0  0  0  0
    5.5665    0.2910    7.2484 N   0  0  0  0  0  0  0  0  0  0  0  0
    2.9977   -0.6954    7.0061 S   0  0  0  0  0  0  0  0  0  0  0  0
    2.4766   -0.9388    5.3541 C   0  0  0  0  0  0  0  0  0  0  0  0
    0.7678   -1.4547    5.0846 S   0  0  0  0  0  0  0  0  0  0  0  0
    0.7371   -2.7015    4.2888 O   0  0  0  0  0  0  0  0  0  0  0  0
    0.1344   -1.4908    6.4166 O   0  0  0  0  0  0  0  0  0  0  0  0
    0.0344   -0.0929    4.1613 C   0  0  0  0  0  0  0  0  0  0  0  0
    0.3494    0.1923    2.8152 C   0  0  0  0  0  0  0  0  0  0  0  0
   -0.1564    1.3378    2.1726 C   0  0  0  0  0  0  0  0  0  0  0  0
   -1.0309    2.1857    2.8734 C   0  0  0  0  0  0  0  0  0  0  0  0
   -1.3613    1.9050    4.2103 C   0  0  0  0  0  0  0  0  0  0  0  0
   -0.8160    0.7814    4.8660 C   0  0  0  0  0  0  0  0  0  0  0  0
    5.1515   -4.2147   -3.6284 H   0  0  0  0  0  0  0  0  0  0  0  0
    5.1554   -2.4856   -3.2726 H   0  0  0  0  0  0  0  0  0  0  0  0
    3.6661   -3.4188   -3.1188 H   0  0  0  0  0  0  0  0  0  0  0  0
    4.6994   -4.7550   -1.2389 H   0  0  0  0  0  0  0  0  0  0  0  0
    6.1807   -3.8501   -1.3957 H   0  0  0  0  0  0  0  0  0  0  0  0
    2.3226   -0.9682    0.4816 H   0  0  0  0  0  0  0  0  0  0  0  0
    4.3147    0.1807    0.3841 H   0  0  0  0  0  0  0  0  0  0  0  0
    5.6462   -0.0493    2.5532 H   0  0  0  0  0  0  0  0  0  0  0  0
    6.1825   -2.5809    3.0725 H   0  0  0  0  0  0  0  0  0  0  0  0
    3.8406   -3.8825    3.1394 H   0  0  0  0  0  0  0  0  0  0  0  0
    1.9653   -2.2355    2.4605 H   0  0  0  0  0  0  0  0  0  0  0  0
    3.0558    0.3222    2.5467 H   0  0  0  0  0  0  0  0  0  0  0  0
    6.4422    0.6195    6.8784 H   0  0  0  0  0  0  0  0  0  0  0  0
    0.9781   -0.4238    2.2044 H   0  0  0  0  0  0  0  0  0  0  0  0
    0.1169    1.5431    1.1452 H   0  0  0  0  0  0  0  0  0  0  0  0
   -1.4421    3.0478    2.3603 H   0  0  0  0  0  0  0  0  0  0  0  0
   -2.0395    2.5528    4.7438 H   0  0  0  0  0  0  0  0  0  0  0  0
   -1.0480    0.5842    5.9016 H   0  0  0  0  0  0  0  0  0  0  0  0
    5.4733    0.2743    8.2574 H   0  0  0  0  0  0  0  0  0  0  0  0
  1  2  1  0
  1 30  1  0
  1 31  1  0
  1 32  1  0
  2 33  1  0
  2 34  1  0
  2  3  1  0
  3  8  1  0
  3  4  1  0
  4  5  2  0
  4  6  1  0
  6 13  1  0
  6 35  1  6
  6  7  1  0
  7 10  1  0
  7 36  1  6
  7  8  1  0
  8  9  2  0
 10 14  1  0
 10 11  1  0
 10 37  1  6
 11 12  2  0
 11 38  1  0
 12 13  1  0
 12 39  1  0
 13 14  1  0
 13 40  1  6
 14 15  1  0
 14 41  1  6
 15 20  2  0
 15 16  1  0
 16 17  2  0
 17 18  1  0
 17 19  1  0
 18 42  1  0
 18 48  1  0
 19 20  1  0
 20 21  1  0
 21 22  2  0
 21 23  2  0
 21 24  1  0
 24 29  1  0
 24 25  2  0
 25 26  1  0
 25 43  1  0
 26 27  2  0
 26 44  1  0
 27 28  1  0
 27 45  1  0
 28 29  2  0
 28 46  1  0
 29 47  1  0
M  END
>  <i_m_ct_stereo_status>  (391) 
1

>  <s_m_source_file>  (391) 
/var/tmp/pbs.5076255.sched01/tmpfsvwwkaa/138cw1meju8.sdf

>  <i_m_source_file_index>  (391) 
29

>  <i_lp_mmshare_version>  (391) 
48012

>  <i_f3d_flags>  (391) 
0

>  <s_epik_input>  (391) 
W0NIM11bQ0gyXW4oYzFbT0hdKWMoW09IXSljKGMxMilbQ0BASF0zW0NIXT1bQ0hdW0NASF0yW0NASF0zYzRbbkhdL2MoPU5cW0hdKXNjNFMoPU8pKD1PKWM1W2NIXVtjSF1bY0hdW2NIXVtjSF01

>  <s_epik_cmdline>  (391) 
J2VwaWtfcHl0aG9uJywgJy1waHQnLCAnMi4wJywgJy1waCcsICc3LjAnLCAnLXRuJywgJzgnLCAnLW1hJywgJzIwMCcsICctaW1hZScsICc8aW5maWxlLm1hZT4nLCAnLW9tYWUnLCAnPG91dGZpbGUubWFlPic=

>  <r_lp_tautomer_probability>  (391) 
1

>  <r_epik_Ionization_Penalty>  (391) 
3.68372e-06

>  <r_epik_Ionization_Penalty_Charging>  (391) 
0

>  <r_epik_Ionization_Penalty_Neutral>  (391) 
3.68372e-06

>  <r_epik_State_Penalty>  (391) 
-0

>  <r_epik_Charging_Adjusted_Penalty>  (391) 
0

>  <i_epik_Tot_Q>  (391) 
0

>  <i_epik_Tot_abs_Q>  (391) 
0

>  <s_lp_Force_Field>  (391) 
OPLS3e

>  <r_lp_Energy>  (391) 
27.3245

>  <b_lp_Chiralities_Consistent>  (391) 
1

>  <s_lp_Variant>  (391) 
111:0-1

>  <s_i_glide_gridfile>  (391) 
pfpi4k_grid

>  <i_i_glide_lignum>  (391) 
29

>  <i_i_glide_rotatable_bonds>  (391) 
4

>  <r_i_docking_score>  (391) 
-2.54247

>  <r_i_glide_ligand_efficiency>  (391) 
-0.0876713

>  <r_i_glide_ligand_efficiency_sa>  (391) 
-0.269354

>  <r_i_glide_ligand_efficiency_ln>  (391) 
-0.58216

>  <r_i_glide_gscore>  (391) 
-2.54247

>  <r_i_glide_lipo>  (391) 
-0.376644

>  <r_i_glide_hbond>  (391) 
-0.114649

>  <r_i_glide_metal>  (391) 
-0

>  <r_i_glide_rewards>  (391) 
-0.480583

>  <r_i_glide_evdw>  (391) 
-27.4622

>  <r_i_glide_ecoul>  (391) 
-2.99322

>  <r_i_glide_erotb>  (391) 
0.32317

>  <r_i_glide_esite>  (391) 
-0.0716686

>  <r_i_glide_emodel>  (391) 
-34.6506

>  <r_i_glide_energy>  (391) 
-30.4554

>  <r_i_glide_einternal>  (391) 
0.929001

>  <r_i_glide_intrahb_reward>  (391) 
-0

>  <i_i_glide_confnum>  (391) 
1

>  <i_i_glide_posenum>  (391) 
35

>  <r_i_glide_eff_state_penalty>  (391) 
0

>  <ligand_id>  (391) 
111

>  <original_smiles>  (391) 
CCn1c(O)c2c(c1O)C1C=CC2C1c1[nH]c(=N)sc1S(=O)(=O)c1ccccc1

>  <smiles>  (391) 
[H]C1=C([H])C2([H])C3([H])C(=O)N(C([H])([H])C([H])([H])[H])C(=O)C3([H])C1([H])C2([H])c1nc(N([H])[H])sc1S(=O)(=O)c1c([H])c([H])c([H])c([H])c1[H]

$$$$
111:0:2
     RDKit          3D

 48 52  0  0  1  0  0  0  0  0999 V2000
    6.5841   -3.0015   -1.9517 C   0  0  0  0  0  0  0  0  0  0  0  0
    6.0539   -2.0625   -0.8597 C   0  0  0  0  0  0  0  0  0  0  0  0
    5.4273   -2.8051    0.2169 N   0  0  0  0  0  0  0  0  0  0  0  0
    4.1130   -2.9953    0.3334 C   0  0  0  0  0  0  0  0  0  0  0  0
    3.2262   -2.6284   -0.4365 O   0  0  0  0  0  0  0  0  0  0  0  0
    3.8047   -3.7992    1.5826 C   0  0  2  0  0  0  0  0  0  0  0  0
    5.1864   -4.1214    2.1803 C   0  0  2  0  0  0  0  0  0  0  0  0
    6.1261   -3.4520    1.1732 C   0  0  0  0  0  0  0  0  0  0  0  0
    7.3464   -3.5557    1.2636 O   0  0  0  0  0  0  0  0  0  0  0  0
    5.1905   -5.6828    2.2053 C   0  0  2  0  0  0  0  0  0  0  0  0
    5.2138   -6.2034    0.7841 C   0  0  0  0  0  0  0  0  0  0  0  0
    4.0231   -5.9241    0.2538 C   0  0  0  0  0  0  0  0  0  0  0  0
    3.1852   -5.1998    1.3079 C   0  0  1  0  0  0  0  0  0  0  0  0
    3.7157   -5.9418    2.5800 C   0  0  1  0  0  0  0  0  0  0  0  0
    3.2867   -7.4114    2.6588 C   0  0  0  0  0  0  0  0  0  0  0  0
    4.2728   -8.3536    2.8800 N   0  0  0  0  0  0  0  0  0  0  0  0
    3.8414   -9.6007    2.8973 C   0  0  0  0  0  0  0  0  0  0  0  0
    4.6806  -10.6981    3.0708 N   0  0  0  0  0  0  0  0  0  0  0  0
    2.1053   -9.7248    2.7347 S   0  0  0  0  0  0  0  0  0  0  0  0
    2.0224   -7.9856    2.6104 C   0  0  0  0  0  0  0  0  0  0  0  0
    0.3814   -7.1903    2.5600 S   0  0  0  0  0  0  0  0  0  0  0  0
    0.3049   -6.3619    1.3455 O   0  0  0  0  0  0  0  0  0  0  0  0
   -0.5877   -8.2811    2.8143 O   0  0  0  0  0  0  0  0  0  0  0  0
    0.3810   -6.1174    4.0017 C   0  0  0  0  0  0  0  0  0  0  0  0
   -0.1761   -6.5946    5.1958 C   0  0  0  0  0  0  0  0  0  0  0  0
   -0.1834   -5.7702    6.3375 C   0  0  0  0  0  0  0  0  0  0  0  0
    0.3899   -4.4792    6.2941 C   0  0  0  0  0  0  0  0  0  0  0  0
    0.9757   -4.0153    5.1011 C   0  0  0  0  0  0  0  0  0  0  0  0
    0.9590   -4.8287    3.9535 C   0  0  0  0  0  0  0  0  0  0  0  0
    7.0796   -2.4094   -2.7204 H   0  0  0  0  0  0  0  0  0  0  0  0
    5.7826   -3.5784   -2.4142 H   0  0  0  0  0  0  0  0  0  0  0  0
    7.3290   -3.6924   -1.5647 H   0  0  0  0  0  0  0  0  0  0  0  0
    6.8783   -1.4711   -0.4426 H   0  0  0  0  0  0  0  0  0  0  0  0
    5.3578   -1.3350   -1.2993 H   0  0  0  0  0  0  0  0  0  0  0  0
    3.1820   -3.2280    2.2621 H   0  0  0  0  0  0  0  0  0  0  0  0
    5.2807   -3.6977    3.1837 H   0  0  0  0  0  0  0  0  0  0  0  0
    5.9274   -6.1366    2.8685 H   0  0  0  0  0  0  0  0  0  0  0  0
    6.0313   -6.7438    0.3454 H   0  0  0  0  0  0  0  0  0  0  0  0
    3.6478   -6.2047   -0.7113 H   0  0  0  0  0  0  0  0  0  0  0  0
    2.1133   -5.1607    1.0870 H   0  0  0  0  0  0  0  0  0  0  0  0
    3.4907   -5.4328    3.5265 H   0  0  0  0  0  0  0  0  0  0  0  0
    5.6931  -10.5956    3.0585 H   0  0  0  0  0  0  0  0  0  0  0  0
   -0.5976   -7.5946    5.2293 H   0  0  0  0  0  0  0  0  0  0  0  0
   -0.6290   -6.1290    7.2546 H   0  0  0  0  0  0  0  0  0  0  0  0
    0.3839   -3.8484    7.1750 H   0  0  0  0  0  0  0  0  0  0  0  0
    1.4320   -3.0290    5.0596 H   0  0  0  0  0  0  0  0  0  0  0  0
    1.3789   -4.4338    3.0424 H   0  0  0  0  0  0  0  0  0  0  0  0
    4.3323  -11.6577    2.9990 H   0  0  0  0  0  0  0  0  0  0  0  0
  1  2  1  0
  1 30  1  0
  1 31  1  0
  1 32  1  0
  2 33  1  0
  2 34  1  0
  2  3  1  0
  3  8  1  0
  3  4  1  0
  4  5  2  0
  4  6  1  0
  6 13  1  0
  6 35  1  1
  6  7  1  0
  7 10  1  0
  7 36  1  1
  7  8  1  0
  8  9  2  0
 10 14  1  0
 10 11  1  0
 10 37  1  1
 11 12  2  0
 11 38  1  0
 12 13  1  0
 12 39  1  0
 13 14  1  0
 13 40  1  6
 14 15  1  0
 14 41  1  1
 15 20  2  0
 15 16  1  0
 16 17  2  0
 17 18  1  0
 17 19  1  0
 18 42  1  0
 18 48  1  0
 19 20  1  0
 20 21  1  0
 21 22  2  0
 21 23  2  0
 21 24  1  0
 24 29  1  0
 24 25  2  0
 25 26  1  0
 25 43  1  0
 26 27  2  0
 26 44  1  0
 27 28  1  0
 27 45  1  0
 28 29  2  0
 28 46  1  0
 29 47  1  0
M  END
>  <i_m_ct_stereo_status>  (392) 
1

>  <s_m_source_file>  (392) 
/var/tmp/pbs.5076255.sched01/tmpfsvwwkaa/138cw1meju8.sdf

>  <i_m_source_file_index>  (392) 
29

>  <i_lp_mmshare_version>  (392) 
48012

>  <i_f3d_flags>  (392) 
0

>  <s_epik_input>  (392) 
W0NIM11bQ0gyXW4oYzFbT0hdKWMoW09IXSljKGMxMilbQ0BASF0zW0NIXT1bQ0hdW0NASF0yW0NASF0zYzRbbkhdL2MoPU5cW0hdKXNjNFMoPU8pKD1PKWM1W2NIXVtjSF1bY0hdW2NIXVtjSF01

>  <s_epik_cmdline>  (392) 
J2VwaWtfcHl0aG9uJywgJy1waHQnLCAnMi4wJywgJy1waCcsICc3LjAnLCAnLXRuJywgJzgnLCAnLW1hJywgJzIwMCcsICctaW1hZScsICc8aW5maWxlLm1hZT4nLCAnLW9tYWUnLCAnPG91dGZpbGUubWFlPic=

>  <r_lp_tautomer_probability>  (392) 
1

>  <r_epik_Ionization_Penalty>  (392) 
3.68372e-06

>  <r_epik_Ionization_Penalty_Charging>  (392) 
0

>  <r_epik_Ionization_Penalty_Neutral>  (392) 
3.68372e-06

>  <r_epik_State_Penalty>  (392) 
-0

>  <r_epik_Charging_Adjusted_Penalty>  (392) 
0

>  <i_epik_Tot_Q>  (392) 
0

>  <i_epik_Tot_abs_Q>  (392) 
0

>  <s_lp_Force_Field>  (392) 
OPLS3e

>  <r_lp_Energy>  (392) 
27.3245

>  <b_lp_Chiralities_Consistent>  (392) 
1

>  <s_lp_Variant>  (392) 
111:0-1

>  <s_i_glide_gridfile>  (392) 
pfpi4k_grid

>  <i_i_glide_lignum>  (392) 
29

>  <i_i_glide_rotatable_bonds>  (392) 
4

>  <r_i_docking_score>  (392) 
-2.52074

>  <r_i_glide_ligand_efficiency>  (392) 
-0.0869222

>  <r_i_glide_ligand_efficiency_sa>  (392) 
-0.267052

>  <r_i_glide_ligand_efficiency_ln>  (392) 
-0.577186

>  <r_i_glide_gscore>  (392) 
-2.52074

>  <r_i_glide_lipo>  (392) 
-0.292301

>  <r_i_glide_hbond>  (392) 
0

>  <r_i_glide_metal>  (392) 
-0

>  <r_i_glide_rewards>  (392) 
-0.650307

>  <r_i_glide_evdw>  (392) 
-26.4164

>  <r_i_glide_ecoul>  (392) 
-2.14967

>  <r_i_glide_erotb>  (392) 
0.32317

>  <r_i_glide_esite>  (392) 
-0.258034

>  <r_i_glide_emodel>  (392) 
-32.6712

>  <r_i_glide_energy>  (392) 
-28.5661

>  <r_i_glide_einternal>  (392) 
1.50188

>  <r_i_glide_intrahb_reward>  (392) 
-0

>  <i_i_glide_confnum>  (392) 
3

>  <i_i_glide_posenum>  (392) 
40

>  <r_i_glide_eff_state_penalty>  (392) 
0

>  <ligand_id>  (392) 
111

>  <original_smiles>  (392) 
CCn1c(O)c2c(c1O)C1C=CC2C1c1[nH]c(=N)sc1S(=O)(=O)c1ccccc1

>  <smiles>  (392) 
[H]C1=C([H])C2([H])C3([H])C(=O)N(C([H])([H])C([H])([H])[H])C(=O)C3([H])C1([H])C2([H])c1nc(N([H])[H])sc1S(=O)(=O)c1c([H])c([H])c([H])c([H])c1[H]

$$$$
111:1:0
     RDKit          3D

 48 52  0  0  1  0  0  0  0  0999 V2000
    0.2565   -9.2462    2.7053 C   0  0  0  0  0  0  0  0  0  0  0  0
    0.4719   -7.8955    1.9984 C   0  0  0  0  0  0  0  0  0  0  0  0
    1.2948   -6.9866    2.7982 N   0  0  0  0  0  0  0  0  0  0  0  0
    0.8226   -6.2659    3.8279 C   0  0  0  0  0  0  0  0  0  0  0  0
   -0.3390   -6.2441    4.2286 O   0  0  0  0  0  0  0  0  0  0  0  0
    1.9191   -5.4235    4.4718 C   0  0  1  0  0  0  0  0  0  0  0  0
    3.1643   -5.7866    3.6193 C   0  0  1  0  0  0  0  0  0  0  0  0
    2.6038   -6.7661    2.5864 C   0  0  0  0  0  0  0  0  0  0  0  0
    3.2945   -7.2408    1.6870 O   0  0  0  0  0  0  0  0  0  0  0  0
    3.6104   -4.4179    3.0784 C   0  0  2  0  0  0  0  0  0  0  0  0
    4.0873   -3.6029    4.2488 C   0  0  0  0  0  0  0  0  0  0  0  0
    3.0134   -3.2785    4.9781 C   0  0  0  0  0  0  0  0  0  0  0  0
    1.8083   -3.8856    4.2680 C   0  0  1  0  0  0  0  0  0  0  0  0
    2.2508   -3.7217    2.7729 C   0  0  1  0  0  0  0  0  0  0  0  0
    2.3611   -2.2826    2.3175 C   0  0  0  0  0  0  0  0  0  0  0  0
    1.5383   -1.3172    2.9209 N   0  0  0  0  0  0  0  0  0  0  0  0
    1.8088   -0.0823    2.5176 C   0  0  0  0  0  0  0  0  0  0  0  0
    1.1840    1.0468    3.0207 N   0  0  0  0  0  0  0  0  0  0  0  0
    3.0842   -0.0109    1.3234 S   0  0  0  0  0  0  0  0  0  0  0  0
    3.1919   -1.7583    1.3550 C   0  0  0  0  0  0  0  0  0  0  0  0
    4.3761   -2.5960    0.2855 S   0  0  0  0  0  0  0  0  0  0  0  0
    5.6999   -2.0399    0.6080 O   0  0  0  0  0  0  0  0  0  0  0  0
    4.1414   -4.0478    0.3243 O   0  0  0  0  0  0  0  0  0  0  0  0
    3.9357   -2.1388   -1.3551 C   0  0  0  0  0  0  0  0  0  0  0  0
    3.1325   -3.0373   -2.0856 C   0  0  0  0  0  0  0  0  0  0  0  0
    2.8015   -2.7216   -3.4044 C   0  0  0  0  0  0  0  0  0  0  0  0
    3.2721   -1.5143   -3.9550 C   0  0  0  0  0  0  0  0  0  0  0  0
    4.0722   -0.6262   -3.2059 C   0  0  0  0  0  0  0  0  0  0  0  0
    4.4239   -0.9367   -1.8857 C   0  0  0  0  0  0  0  0  0  0  0  0
   -0.3510   -9.9027    2.0802 H   0  0  0  0  0  0  0  0  0  0  0  0
   -0.2585   -9.1268    3.6634 H   0  0  0  0  0  0  0  0  0  0  0  0
    1.2049   -9.7546    2.8986 H   0  0  0  0  0  0  0  0  0  0  0  0
    0.9350   -8.0675    1.0251 H   0  0  0  0  0  0  0  0  0  0  0  0
   -0.4931   -7.4284    1.7973 H   0  0  0  0  0  0  0  0  0  0  0  0
    2.0680   -5.6914    5.5202 H   0  0  0  0  0  0  0  0  0  0  0  0
    3.9767   -6.2551    4.1834 H   0  0  0  0  0  0  0  0  0  0  0  0
    4.4222   -4.5092    2.3499 H   0  0  0  0  0  0  0  0  0  0  0  0
    5.1209   -3.2923    4.3596 H   0  0  0  0  0  0  0  0  0  0  0  0
    2.9885   -2.6509    5.8714 H   0  0  0  0  0  0  0  0  0  0  0  0
    0.8532   -3.4337    4.5295 H   0  0  0  0  0  0  0  0  0  0  0  0
    1.5853   -4.2471    2.0744 H   0  0  0  0  0  0  0  0  0  0  0  0
    0.4714    0.9645    3.7365 H   0  0  0  0  0  0  0  0  0  0  0  0
    2.7782   -3.9648   -1.6488 H   0  0  0  0  0  0  0  0  0  0  0  0
    2.1902   -3.4046   -3.9715 H   0  0  0  0  0  0  0  0  0  0  0  0
    3.0157   -1.2527   -4.9645 H   0  0  0  0  0  0  0  0  0  0  0  0
    4.4078    0.3060   -3.6206 H   0  0  0  0  0  0  0  0  0  0  0  0
    5.0332   -0.2780   -1.2641 H   0  0  0  0  0  0  0  0  0  0  0  0
    1.3577    1.9621    2.6274 H   0  0  0  0  0  0  0  0  0  0  0  0
  1  2  1  0
  1 30  1  0
  1 31  1  0
  1 32  1  0
  2 33  1  0
  2 34  1  0
  2  3  1  0
  3  8  1  0
  3  4  1  0
  4  5  2  0
  4  6  1  0
  6 13  1  0
  6 35  1  1
  6  7  1  0
  7 10  1  0
  7 36  1  1
  7  8  1  0
  8  9  2  0
 10 14  1  0
 10 11  1  0
 10 37  1  6
 11 12  2  0
 11 38  1  0
 12 13  1  0
 12 39  1  0
 13 14  1  0
 13 40  1  6
 14 15  1  0
 14 41  1  6
 15 20  2  0
 15 16  1  0
 16 17  2  0
 17 18  1  0
 17 19  1  0
 18 42  1  0
 18 48  1  0
 19 20  1  0
 20 21  1  0
 21 22  2  0
 21 23  2  0
 21 24  1  0
 24 29  1  0
 24 25  2  0
 25 26  1  0
 25 43  1  0
 26 27  2  0
 26 44  1  0
 27 28  1  0
 27 45  1  0
 28 29  2  0
 28 46  1  0
 29 47  1  0
M  END
>  <i_m_ct_stereo_status>  (393) 
1

>  <s_m_source_file>  (393) 
/var/tmp/pbs.5076255.sched01/tmpfsvwwkaa/138cw1meju8.sdf

>  <i_m_source_file_index>  (393) 
30

>  <i_lp_mmshare_version>  (393) 
48012

>  <i_f3d_flags>  (393) 
0

>  <s_epik_input>  (393) 
W0NIM11bQ0gyXW4oYzFbT0hdKWMoW09IXSljKGMxMilbQ0BASF0zW0NIXT1bQ0hdW0NASF0yW0NASF0zYzRbbkhdL2MoPU5cW0hdKXNjNFMoPU8pKD1PKWM1W2NIXVtjSF1bY0hdW2NIXVtjSF01

>  <s_epik_cmdline>  (393) 
J2VwaWtfcHl0aG9uJywgJy1waHQnLCAnMi4wJywgJy1waCcsICc3LjAnLCAnLXRuJywgJzgnLCAnLW1hJywgJzIwMCcsICctaW1hZScsICc8aW5maWxlLm1hZT4nLCAnLW9tYWUnLCAnPG91dGZpbGUubWFlPic=

>  <r_lp_tautomer_probability>  (393) 
1

>  <r_epik_Ionization_Penalty>  (393) 
3.68372e-06

>  <r_epik_Ionization_Penalty_Charging>  (393) 
0

>  <r_epik_Ionization_Penalty_Neutral>  (393) 
3.68372e-06

>  <r_epik_State_Penalty>  (393) 
-0

>  <r_epik_Charging_Adjusted_Penalty>  (393) 
0

>  <i_epik_Tot_Q>  (393) 
0

>  <i_epik_Tot_abs_Q>  (393) 
0

>  <s_lp_Force_Field>  (393) 
OPLS3e

>  <r_lp_Energy>  (393) 
23.6028

>  <b_lp_Chiralities_Consistent>  (393) 
1

>  <s_lp_Variant>  (393) 
111:0-2

>  <s_i_glide_gridfile>  (393) 
pfpi4k_grid

>  <i_i_glide_lignum>  (393) 
30

>  <i_i_glide_rotatable_bonds>  (393) 
4

>  <r_i_docking_score>  (393) 
-2.73746

>  <r_i_glide_ligand_efficiency>  (393) 
-0.0943951

>  <r_i_glide_ligand_efficiency_sa>  (393) 
-0.290012

>  <r_i_glide_ligand_efficiency_ln>  (393) 
-0.626808

>  <r_i_glide_gscore>  (393) 
-2.73746

>  <r_i_glide_lipo>  (393) 
-0.47041

>  <r_i_glide_hbond>  (393) 
-0.0108444

>  <r_i_glide_metal>  (393) 
-0

>  <r_i_glide_rewards>  (393) 
-0.480583

>  <r_i_glide_evdw>  (393) 
-33.5661

>  <r_i_glide_ecoul>  (393) 
-2.25474

>  <r_i_glide_erotb>  (393) 
0.32317

>  <r_i_glide_esite>  (393) 
-0.0822736

>  <r_i_glide_emodel>  (393) 
-39.1839

>  <r_i_glide_energy>  (393) 
-35.8209

>  <r_i_glide_einternal>  (393) 
1.94142

>  <r_i_glide_intrahb_reward>  (393) 
-0

>  <i_i_glide_confnum>  (393) 
2

>  <i_i_glide_posenum>  (393) 
7

>  <r_i_glide_eff_state_penalty>  (393) 
0

>  <ligand_id>  (393) 
111

>  <original_smiles>  (393) 
CCn1c(O)c2c(c1O)C1C=CC2C1c1[nH]c(=N)sc1S(=O)(=O)c1ccccc1

>  <smiles>  (393) 
[H]C1=C([H])C2([H])C3([H])C(=O)N(C([H])([H])C([H])([H])[H])C(=O)C3([H])C1([H])C2([H])c1nc(N([H])[H])sc1S(=O)(=O)c1c([H])c([H])c([H])c([H])c1[H]

$$$$
111:1:1
     RDKit          3D

 48 52  0  0  1  0  0  0  0  0999 V2000
    4.2843   -0.5980    0.7260 C   0  0  0  0  0  0  0  0  0  0  0  0
    3.1467   -1.3431    1.4438 C   0  0  0  0  0  0  0  0  0  0  0  0
    3.4500   -2.7756    1.6050 N   0  0  0  0  0  0  0  0  0  0  0  0
    3.2819   -3.6919    0.6357 C   0  0  0  0  0  0  0  0  0  0  0  0
    2.8400   -3.4898   -0.4941 O   0  0  0  0  0  0  0  0  0  0  0  0
    3.7084   -5.0797    1.1131 C   0  0  1  0  0  0  0  0  0  0  0  0
    4.1452   -4.8257    2.5650 C   0  0  1  0  0  0  0  0  0  0  0  0
    3.9004   -3.3303    2.7448 C   0  0  0  0  0  0  0  0  0  0  0  0
    4.1053   -2.7526    3.8103 O   0  0  0  0  0  0  0  0  0  0  0  0
    3.1978   -5.7468    3.3850 C   0  0  2  0  0  0  0  0  0  0  0  0
    3.5826   -7.1751    3.0269 C   0  0  0  0  0  0  0  0  0  0  0  0
    3.2076   -7.3944    1.7621 C   0  0  0  0  0  0  0  0  0  0  0  0
    2.5528   -6.1105    1.2740 C   0  0  1  0  0  0  0  0  0  0  0  0
    1.8530   -5.6246    2.5856 C   0  0  1  0  0  0  0  0  0  0  0  0
    0.7363   -6.4884    3.0983 C   0  0  0  0  0  0  0  0  0  0  0  0
    0.0860   -7.3529    2.1782 N   0  0  0  0  0  0  0  0  0  0  0  0
   -0.7909   -8.1733    2.7718 C   0  0  0  0  0  0  0  0  0  0  0  0
   -1.4815   -9.1635    2.0831 N   0  0  0  0  0  0  0  0  0  0  0  0
   -0.9913   -7.8635    4.4726 S   0  0  0  0  0  0  0  0  0  0  0  0
    0.1857   -6.5868    4.3621 C   0  0  0  0  0  0  0  0  0  0  0  0
    0.6087   -5.6931    5.8476 S   0  0  0  0  0  0  0  0  0  0  0  0
    1.3429   -4.4821    5.4431 O   0  0  0  0  0  0  0  0  0  0  0  0
   -0.6517   -5.5654    6.6062 O   0  0  0  0  0  0  0  0  0  0  0  0
    1.7006   -6.7981    6.7517 C   0  0  0  0  0  0  0  0  0  0  0  0
    3.0770   -6.5254    6.9337 C   0  0  0  0  0  0  0  0  0  0  0  0
    3.8897   -7.4514    7.6307 C   0  0  0  0  0  0  0  0  0  0  0  0
    3.3318   -8.6433    8.1488 C   0  0  0  0  0  0  0  0  0  0  0  0
    1.9610   -8.9165    7.9532 C   0  0  0  0  0  0  0  0  0  0  0  0
    1.1507   -7.9948    7.2582 C   0  0  0  0  0  0  0  0  0  0  0  0
    4.0464    0.4621    0.6224 H   0  0  0  0  0  0  0  0  0  0  0  0
    4.4525   -0.9931   -0.2741 H   0  0  0  0  0  0  0  0  0  0  0  0
    5.2198   -0.6733    1.2771 H   0  0  0  0  0  0  0  0  0  0  0  0
    2.9585   -0.8704    2.4078 H   0  0  0  0  0  0  0  0  0  0  0  0
    2.2143   -1.2292    0.8925 H   0  0  0  0  0  0  0  0  0  0  0  0
    4.5177   -5.4687    0.4932 H   0  0  0  0  0  0  0  0  0  0  0  0
    5.1887   -5.0637    2.7588 H   0  0  0  0  0  0  0  0  0  0  0  0
    3.1934   -5.5578    4.4389 H   0  0  0  0  0  0  0  0  0  0  0  0
    4.0211   -7.8627    3.7257 H   0  0  0  0  0  0  0  0  0  0  0  0
    3.2816   -8.3141    1.1988 H   0  0  0  0  0  0  0  0  0  0  0  0
    1.8949   -6.2293    0.4107 H   0  0  0  0  0  0  0  0  0  0  0  0
    1.4827   -4.6003    2.5172 H   0  0  0  0  0  0  0  0  0  0  0  0
   -1.1974   -9.4242    1.1647 H   0  0  0  0  0  0  0  0  0  0  0  0
    3.5208   -5.6240    6.5612 H   0  0  0  0  0  0  0  0  0  0  0  0
    4.9362   -7.2498    7.7817 H   0  0  0  0  0  0  0  0  0  0  0  0
    3.9435   -9.3429    8.6857 H   0  0  0  0  0  0  0  0  0  0  0  0
    1.5349   -9.8297    8.3344 H   0  0  0  0  0  0  0  0  0  0  0  0
    0.1151   -8.2145    7.1110 H   0  0  0  0  0  0  0  0  0  0  0  0
   -2.0994   -9.8167    2.5689 H   0  0  0  0  0  0  0  0  0  0  0  0
  1  2  1  0
  1 30  1  0
  1 31  1  0
  1 32  1  0
  2 33  1  0
  2 34  1  0
  2  3  1  0
  3  8  1  0
  3  4  1  0
  4  5  2  0
  4  6  1  0
  6 13  1  0
  6 35  1  6
  6  7  1  0
  7 10  1  0
  7 36  1  6
  7  8  1  0
  8  9  2  0
 10 14  1  0
 10 11  1  0
 10 37  1  1
 11 12  2  0
 11 38  1  0
 12 13  1  0
 12 39  1  0
 13 14  1  0
 13 40  1  6
 14 15  1  0
 14 41  1  6
 15 20  2  0
 15 16  1  0
 16 17  2  0
 17 18  1  0
 17 19  1  0
 18 42  1  0
 18 48  1  0
 19 20  1  0
 20 21  1  0
 21 22  2  0
 21 23  2  0
 21 24  1  0
 24 29  1  0
 24 25  2  0
 25 26  1  0
 25 43  1  0
 26 27  2  0
 26 44  1  0
 27 28  1  0
 27 45  1  0
 28 29  2  0
 28 46  1  0
 29 47  1  0
M  END
>  <i_m_ct_stereo_status>  (394) 
1

>  <s_m_source_file>  (394) 
/var/tmp/pbs.5076255.sched01/tmpfsvwwkaa/138cw1meju8.sdf

>  <i_m_source_file_index>  (394) 
30

>  <i_lp_mmshare_version>  (394) 
48012

>  <i_f3d_flags>  (394) 
0

>  <s_epik_input>  (394) 
W0NIM11bQ0gyXW4oYzFbT0hdKWMoW09IXSljKGMxMilbQ0BASF0zW0NIXT1bQ0hdW0NASF0yW0NASF0zYzRbbkhdL2MoPU5cW0hdKXNjNFMoPU8pKD1PKWM1W2NIXVtjSF1bY0hdW2NIXVtjSF01

>  <s_epik_cmdline>  (394) 
J2VwaWtfcHl0aG9uJywgJy1waHQnLCAnMi4wJywgJy1waCcsICc3LjAnLCAnLXRuJywgJzgnLCAnLW1hJywgJzIwMCcsICctaW1hZScsICc8aW5maWxlLm1hZT4nLCAnLW9tYWUnLCAnPG91dGZpbGUubWFlPic=

>  <r_lp_tautomer_probability>  (394) 
1

>  <r_epik_Ionization_Penalty>  (394) 
3.68372e-06

>  <r_epik_Ionization_Penalty_Charging>  (394) 
0

>  <r_epik_Ionization_Penalty_Neutral>  (394) 
3.68372e-06

>  <r_epik_State_Penalty>  (394) 
-0

>  <r_epik_Charging_Adjusted_Penalty>  (394) 
0

>  <i_epik_Tot_Q>  (394) 
0

>  <i_epik_Tot_abs_Q>  (394) 
0

>  <s_lp_Force_Field>  (394) 
OPLS3e

>  <r_lp_Energy>  (394) 
23.6028

>  <b_lp_Chiralities_Consistent>  (394) 
1

>  <s_lp_Variant>  (394) 
111:0-2

>  <s_i_glide_gridfile>  (394) 
pfpi4k_grid

>  <i_i_glide_lignum>  (394) 
30

>  <i_i_glide_rotatable_bonds>  (394) 
4

>  <r_i_docking_score>  (394) 
-2.47613

>  <r_i_glide_ligand_efficiency>  (394) 
-0.0853838

>  <r_i_glide_ligand_efficiency_sa>  (394) 
-0.262326

>  <r_i_glide_ligand_efficiency_ln>  (394) 
-0.566971

>  <r_i_glide_gscore>  (394) 
-2.47613

>  <r_i_glide_lipo>  (394) 
-0.149112

>  <r_i_glide_hbond>  (394) 
-0.32

>  <r_i_glide_metal>  (394) 
-0

>  <r_i_glide_rewards>  (394) 
-0.482439

>  <r_i_glide_evdw>  (394) 
-27.9505

>  <r_i_glide_ecoul>  (394) 
-2.91237

>  <r_i_glide_erotb>  (394) 
0.32317

>  <r_i_glide_esite>  (394) 
-0.0133672

>  <r_i_glide_emodel>  (394) 
-35.3787

>  <r_i_glide_energy>  (394) 
-30.8629

>  <r_i_glide_einternal>  (394) 
1.6954

>  <r_i_glide_intrahb_reward>  (394) 
-0

>  <i_i_glide_confnum>  (394) 
2

>  <i_i_glide_posenum>  (394) 
14

>  <r_i_glide_eff_state_penalty>  (394) 
0

>  <ligand_id>  (394) 
111

>  <original_smiles>  (394) 
CCn1c(O)c2c(c1O)C1C=CC2C1c1[nH]c(=N)sc1S(=O)(=O)c1ccccc1

>  <smiles>  (394) 
[H]C1=C([H])C2([H])C3([H])C(=O)N(C([H])([H])C([H])([H])[H])C(=O)C3([H])C1([H])C2([H])c1nc(N([H])[H])sc1S(=O)(=O)c1c([H])c([H])c([H])c([H])c1[H]

$$$$
111:1:2
     RDKit          3D

 48 52  0  0  1  0  0  0  0  0999 V2000
    4.7005   -0.6205    0.4234 C   0  0  0  0  0  0  0  0  0  0  0  0
    3.5064   -1.3605    1.0254 C   0  0  0  0  0  0  0  0  0  0  0  0
    3.7504   -2.7962    1.1605 N   0  0  0  0  0  0  0  0  0  0  0  0
    3.3923   -3.7141    0.2465 C   0  0  0  0  0  0  0  0  0  0  0  0
    2.8039   -3.5026   -0.8102 O   0  0  0  0  0  0  0  0  0  0  0  0
    3.8043   -5.1236    0.6868 C   0  0  1  0  0  0  0  0  0  0  0  0
    4.4464   -4.8605    2.0721 C   0  0  1  0  0  0  0  0  0  0  0  0
    4.3233   -3.3528    2.2335 C   0  0  0  0  0  0  0  0  0  0  0  0
    4.6975   -2.7728    3.2528 O   0  0  0  0  0  0  0  0  0  0  0  0
    3.5633   -5.6910    3.0521 C   0  0  2  0  0  0  0  0  0  0  0  0
    3.8516   -7.1492    2.6712 C   0  0  0  0  0  0  0  0  0  0  0  0
    3.3016   -7.4067    1.4693 C   0  0  0  0  0  0  0  0  0  0  0  0
    2.6404   -6.1083    1.0243 C   0  0  1  0  0  0  0  0  0  0  0  0
    2.1412   -5.5506    2.3876 C   0  0  1  0  0  0  0  0  0  0  0  0
    1.0789   -6.4053    3.0984 C   0  0  0  0  0  0  0  0  0  0  0  0
    0.3239   -7.2876    2.3302 N   0  0  0  0  0  0  0  0  0  0  0  0
   -0.4965   -8.0433    3.0326 C   0  0  0  0  0  0  0  0  0  0  0  0
   -1.2677   -9.0595    2.4813 N   0  0  0  0  0  0  0  0  0  0  0  0
   -0.5741   -7.5932    4.7202 S   0  0  0  0  0  0  0  0  0  0  0  0
    0.6755   -6.3972    4.4225 C   0  0  0  0  0  0  0  0  0  0  0  0
    1.1786   -5.3178    5.7892 S   0  0  0  0  0  0  0  0  0  0  0  0
    0.3098   -5.7050    6.9215 O   0  0  0  0  0  0  0  0  0  0  0  0
    2.6457   -5.3821    5.8783 O   0  0  0  0  0  0  0  0  0  0  0  0
    0.7087   -3.6560    5.3009 C   0  0  0  0  0  0  0  0  0  0  0  0
    1.4066   -2.9831    4.2809 C   0  0  0  0  0  0  0  0  0  0  0  0
    0.9646   -1.7109    3.8467 C   0  0  0  0  0  0  0  0  0  0  0  0
   -0.1243   -1.0863    4.4846 C   0  0  0  0  0  0  0  0  0  0  0  0
   -0.7966   -1.7499    5.5260 C   0  0  0  0  0  0  0  0  0  0  0  0
   -0.4016   -3.0477    5.9222 C   0  0  0  0  0  0  0  0  0  0  0  0
    4.4727    0.4420    0.3424 H   0  0  0  0  0  0  0  0  0  0  0  0
    4.9343   -1.0009   -0.5713 H   0  0  0  0  0  0  0  0  0  0  0  0
    5.5811   -0.7295    1.0568 H   0  0  0  0  0  0  0  0  0  0  0  0
    3.2740   -0.8994    1.9899 H   0  0  0  0  0  0  0  0  0  0  0  0
    2.6398   -1.1823    0.3892 H   0  0  0  0  0  0  0  0  0  0  0  0
    4.5133   -5.5583   -0.0185 H   0  0  0  0  0  0  0  0  0  0  0  0
    5.4915   -5.1619    2.1359 H   0  0  0  0  0  0  0  0  0  0  0  0
    3.7099   -5.4443    4.0844 H   0  0  0  0  0  0  0  0  0  0  0  0
    4.3253   -7.8544    3.3397 H   0  0  0  0  0  0  0  0  0  0  0  0
    3.2495   -8.3523    0.9297 H   0  0  0  0  0  0  0  0  0  0  0  0
    1.8552   -6.2098    0.2615 H   0  0  0  0  0  0  0  0  0  0  0  0
    1.7555   -4.5167    2.2765 H   0  0  0  0  0  0  0  0  0  0  0  0
   -1.0865   -9.3753    1.5401 H   0  0  0  0  0  0  0  0  0  0  0  0
    2.2542   -3.4600    3.8062 H   0  0  0  0  0  0  0  0  0  0  0  0
    1.4586   -1.2040    3.0327 H   0  0  0  0  0  0  0  0  0  0  0  0
   -0.4204   -0.0865    4.1738 H   0  0  0  0  0  0  0  0  0  0  0  0
   -1.6178   -1.2653    6.0340 H   0  0  0  0  0  0  0  0  0  0  0  0
   -0.9165   -3.5746    6.7149 H   0  0  0  0  0  0  0  0  0  0  0  0
   -1.8531   -9.6671    3.0587 H   0  0  0  0  0  0  0  0  0  0  0  0
  1  2  1  0
  1 30  1  0
  1 31  1  0
  1 32  1  0
  2 33  1  0
  2 34  1  0
  2  3  1  0
  3  8  1  0
  3  4  1  0
  4  5  2  0
  4  6  1  0
  6 13  1  0
  6 35  1  6
  6  7  1  0
  7 10  1  0
  7 36  1  6
  7  8  1  0
  8  9  2  0
 10 14  1  0
 10 11  1  0
 10 37  1  1
 11 12  2  0
 11 38  1  0
 12 13  1  0
 12 39  1  0
 13 14  1  0
 13 40  1  6
 14 15  1  0
 14 41  1  6
 15 20  2  0
 15 16  1  0
 16 17  2  0
 17 18  1  0
 17 19  1  0
 18 42  1  0
 18 48  1  0
 19 20  1  0
 20 21  1  0
 21 22  2  0
 21 23  2  0
 21 24  1  0
 24 29  1  0
 24 25  2  0
 25 26  1  0
 25 43  1  0
 26 27  2  0
 26 44  1  0
 27 28  1  0
 27 45  1  0
 28 29  2  0
 28 46  1  0
 29 47  1  0
M  END
>  <i_m_ct_stereo_status>  (395) 
1

>  <s_m_source_file>  (395) 
/var/tmp/pbs.5076255.sched01/tmpfsvwwkaa/138cw1meju8.sdf

>  <i_m_source_file_index>  (395) 
30

>  <i_lp_mmshare_version>  (395) 
48012

>  <i_f3d_flags>  (395) 
0

>  <s_epik_input>  (395) 
W0NIM11bQ0gyXW4oYzFbT0hdKWMoW09IXSljKGMxMilbQ0BASF0zW0NIXT1bQ0hdW0NASF0yW0NASF0zYzRbbkhdL2MoPU5cW0hdKXNjNFMoPU8pKD1PKWM1W2NIXVtjSF1bY0hdW2NIXVtjSF01

>  <s_epik_cmdline>  (395) 
J2VwaWtfcHl0aG9uJywgJy1waHQnLCAnMi4wJywgJy1waCcsICc3LjAnLCAnLXRuJywgJzgnLCAnLW1hJywgJzIwMCcsICctaW1hZScsICc8aW5maWxlLm1hZT4nLCAnLW9tYWUnLCAnPG91dGZpbGUubWFlPic=

>  <r_lp_tautomer_probability>  (395) 
1

>  <r_epik_Ionization_Penalty>  (395) 
3.68372e-06

>  <r_epik_Ionization_Penalty_Charging>  (395) 
0

>  <r_epik_Ionization_Penalty_Neutral>  (395) 
3.68372e-06

>  <r_epik_State_Penalty>  (395) 
-0

>  <r_epik_Charging_Adjusted_Penalty>  (395) 
0

>  <i_epik_Tot_Q>  (395) 
0

>  <i_epik_Tot_abs_Q>  (395) 
0

>  <s_lp_Force_Field>  (395) 
OPLS3e

>  <r_lp_Energy>  (395) 
23.6028

>  <b_lp_Chiralities_Consistent>  (395) 
1

>  <s_lp_Variant>  (395) 
111:0-2

>  <s_i_glide_gridfile>  (395) 
pfpi4k_grid

>  <i_i_glide_lignum>  (395) 
30

>  <i_i_glide_rotatable_bonds>  (395) 
4

>  <r_i_docking_score>  (395) 
-2.41718

>  <r_i_glide_ligand_efficiency>  (395) 
-0.083351

>  <r_i_glide_ligand_efficiency_sa>  (395) 
-0.256081

>  <r_i_glide_ligand_efficiency_ln>  (395) 
-0.553472

>  <r_i_glide_gscore>  (395) 
-2.41718

>  <r_i_glide_lipo>  (395) 
-0.223605

>  <r_i_glide_hbond>  (395) 
-0.215518

>  <r_i_glide_metal>  (395) 
-0

>  <r_i_glide_rewards>  (395) 
-0.497839

>  <r_i_glide_evdw>  (395) 
-30.1046

>  <r_i_glide_ecoul>  (395) 
-1.9002

>  <r_i_glide_erotb>  (395) 
0.32317

>  <r_i_glide_esite>  (395) 
-0.0131274

>  <r_i_glide_emodel>  (395) 
-34.4991

>  <r_i_glide_energy>  (395) 
-32.0048

>  <r_i_glide_einternal>  (395) 
2.30788

>  <r_i_glide_intrahb_reward>  (395) 
-0

>  <i_i_glide_confnum>  (395) 
2

>  <i_i_glide_posenum>  (395) 
15

>  <r_i_glide_eff_state_penalty>  (395) 
0

>  <ligand_id>  (395) 
111

>  <original_smiles>  (395) 
CCn1c(O)c2c(c1O)C1C=CC2C1c1[nH]c(=N)sc1S(=O)(=O)c1ccccc1

>  <smiles>  (395) 
[H]C1=C([H])C2([H])C3([H])C(=O)N(C([H])([H])C([H])([H])[H])C(=O)C3([H])C1([H])C2([H])c1nc(N([H])[H])sc1S(=O)(=O)c1c([H])c([H])c([H])c([H])c1[H]

$$$$
111:2:0
     RDKit          3D

 48 52  0  0  1  0  0  0  0  0999 V2000
    3.6578   -0.3168   -3.2906 C   0  0  0  0  0  0  0  0  0  0  0  0
    4.0538   -1.7725   -3.5604 C   0  0  0  0  0  0  0  0  0  0  0  0
    4.1510   -2.5256   -2.3128 N   0  0  0  0  0  0  0  0  0  0  0  0
    5.2860   -2.6883   -1.6107 C   0  0  0  0  0  0  0  0  0  0  0  0
    6.3975   -2.2387   -1.8860 O   0  0  0  0  0  0  0  0  0  0  0  0
    5.0432   -3.5625   -0.3899 C   0  0  2  0  0  0  0  0  0  0  0  0
    3.5309   -3.8506   -0.4642 C   0  0  2  0  0  0  0  0  0  0  0  0
    3.1032   -3.1235   -1.7301 C   0  0  0  0  0  0  0  0  0  0  0  0
    1.9459   -3.1455   -2.1493 O   0  0  0  0  0  0  0  0  0  0  0  0
    3.0055   -3.2975    0.8956 C   0  0  2  0  0  0  0  0  0  0  0  0
    3.1789   -1.7962    0.9576 C   0  0  0  0  0  0  0  0  0  0  0  0
    4.4852   -1.5513    1.0334 C   0  0  0  0  0  0  0  0  0  0  0  0
    5.1877   -2.8991    1.0205 C   0  0  1  0  0  0  0  0  0  0  0  0
    4.1566   -3.7371    1.8405 C   0  0  2  0  0  0  0  0  0  0  0  0
    4.4337   -5.2312    1.8817 C   0  0  0  0  0  0  0  0  0  0  0  0
    5.7757   -5.6488    1.8702 N   0  0  0  0  0  0  0  0  0  0  0  0
    5.9042   -6.9673    1.7522 C   0  0  0  0  0  0  0  0  0  0  0  0
    7.1187   -7.6134    1.6252 N   0  0  0  0  0  0  0  0  0  0  0  0
    4.3783   -7.8274    1.7352 S   0  0  0  0  0  0  0  0  0  0  0  0
    3.5518   -6.2928    1.9300 C   0  0  0  0  0  0  0  0  0  0  0  0
    1.7677   -6.2452    2.0918 S   0  0  0  0  0  0  0  0  0  0  0  0
    1.4251   -5.0756    2.9150 O   0  0  0  0  0  0  0  0  0  0  0  0
    1.1963   -6.3754    0.7427 O   0  0  0  0  0  0  0  0  0  0  0  0
    1.3511   -7.6858    3.0503 C   0  0  0  0  0  0  0  0  0  0  0  0
    1.2490   -8.9421    2.4266 C   0  0  0  0  0  0  0  0  0  0  0  0
    0.9492  -10.0772    3.2020 C   0  0  0  0  0  0  0  0  0  0  0  0
    0.7561   -9.9448    4.5930 C   0  0  0  0  0  0  0  0  0  0  0  0
    0.8657   -8.6834    5.2131 C   0  0  0  0  0  0  0  0  0  0  0  0
    1.1719   -7.5498    4.4399 C   0  0  0  0  0  0  0  0  0  0  0  0
    3.6054    0.2453   -4.2220 H   0  0  0  0  0  0  0  0  0  0  0  0
    4.3805    0.1722   -2.6389 H   0  0  0  0  0  0  0  0  0  0  0  0
    2.6818   -0.2570   -2.8065 H   0  0  0  0  0  0  0  0  0  0  0  0
    3.3262   -2.2464   -4.2247 H   0  0  0  0  0  0  0  0  0  0  0  0
    5.0057   -1.8065   -4.0837 H   0  0  0  0  0  0  0  0  0  0  0  0
    5.6332   -4.4739   -0.5034 H   0  0  0  0  0  0  0  0  0  0  0  0
    3.3272   -4.9135   -0.5849 H   0  0  0  0  0  0  0  0  0  0  0  0
    1.9945   -3.5941    1.1482 H   0  0  0  0  0  0  0  0  0  0  0  0
    2.3616   -1.0898    0.9247 H   0  0  0  0  0  0  0  0  0  0  0  0
    4.9764   -0.5892    1.0702 H   0  0  0  0  0  0  0  0  0  0  0  0
    6.1956   -2.8812    1.4346 H   0  0  0  0  0  0  0  0  0  0  0  0
    4.0336   -3.3513    2.8560 H   0  0  0  0  0  0  0  0  0  0  0  0
    7.9837   -7.0964    1.6093 H   0  0  0  0  0  0  0  0  0  0  0  0
    1.4093   -9.0311    1.3625 H   0  0  0  0  0  0  0  0  0  0  0  0
    0.8701  -11.0436    2.7266 H   0  0  0  0  0  0  0  0  0  0  0  0
    0.5180  -10.8105    5.1861 H   0  0  0  0  0  0  0  0  0  0  0  0
    0.7169   -8.5832    6.2776 H   0  0  0  0  0  0  0  0  0  0  0  0
    1.2666   -6.5830    4.9078 H   0  0  0  0  0  0  0  0  0  0  0  0
    7.1974   -8.6127    1.6036 H   0  0  0  0  0  0  0  0  0  0  0  0
  1  2  1  0
  1 30  1  0
  1 31  1  0
  1 32  1  0
  2 33  1  0
  2 34  1  0
  2  3  1  0
  3  8  1  0
  3  4  1  0
  4  5  2  0
  4  6  1  0
  6 13  1  0
  6 35  1  1
  6  7  1  0
  7 10  1  0
  7 36  1  6
  7  8  1  0
  8  9  2  0
 10 14  1  0
 10 11  1  0
 10 37  1  1
 11 12  2  0
 11 38  1  0
 12 13  1  0
 12 39  1  0
 13 14  1  0
 13 40  1  1
 14 15  1  0
 14 41  1  1
 15 20  2  0
 15 16  1  0
 16 17  2  0
 17 18  1  0
 17 19  1  0
 18 42  1  0
 18 48  1  0
 19 20  1  0
 20 21  1  0
 21 22  2  0
 21 23  2  0
 21 24  1  0
 24 29  1  0
 24 25  2  0
 25 26  1  0
 25 43  1  0
 26 27  2  0
 26 44  1  0
 27 28  1  0
 27 45  1  0
 28 29  2  0
 28 46  1  0
 29 47  1  0
M  END
>  <i_m_ct_stereo_status>  (396) 
1

>  <s_m_source_file>  (396) 
/var/tmp/pbs.5076255.sched01/tmpfsvwwkaa/138cw1meju8.sdf

>  <i_m_source_file_index>  (396) 
31

>  <i_lp_mmshare_version>  (396) 
48012

>  <i_f3d_flags>  (396) 
0

>  <s_epik_input>  (396) 
W0NIM11bQ0gyXW4oYzFbT0hdKWMoW09IXSljKGMxMilbQ0BASF0zW0NIXT1bQ0hdW0NASF0yW0NASF0zYzRbbkhdL2MoPU5cW0hdKXNjNFMoPU8pKD1PKWM1W2NIXVtjSF1bY0hdW2NIXVtjSF01

>  <s_epik_cmdline>  (396) 
J2VwaWtfcHl0aG9uJywgJy1waHQnLCAnMi4wJywgJy1waCcsICc3LjAnLCAnLXRuJywgJzgnLCAnLW1hJywgJzIwMCcsICctaW1hZScsICc8aW5maWxlLm1hZT4nLCAnLW9tYWUnLCAnPG91dGZpbGUubWFlPic=

>  <r_lp_tautomer_probability>  (396) 
1

>  <r_epik_Ionization_Penalty>  (396) 
3.68372e-06

>  <r_epik_Ionization_Penalty_Charging>  (396) 
0

>  <r_epik_Ionization_Penalty_Neutral>  (396) 
3.68372e-06

>  <r_epik_State_Penalty>  (396) 
-0

>  <r_epik_Charging_Adjusted_Penalty>  (396) 
0

>  <i_epik_Tot_Q>  (396) 
0

>  <i_epik_Tot_abs_Q>  (396) 
0

>  <s_lp_Force_Field>  (396) 
OPLS3e

>  <r_lp_Energy>  (396) 
25.9281

>  <b_lp_Chiralities_Consistent>  (396) 
1

>  <s_lp_Variant>  (396) 
111:0-3

>  <s_i_glide_gridfile>  (396) 
pfpi4k_grid

>  <i_i_glide_lignum>  (396) 
31

>  <i_i_glide_rotatable_bonds>  (396) 
4

>  <r_i_docking_score>  (396) 
-3.56497

>  <r_i_glide_ligand_efficiency>  (396) 
-0.12293

>  <r_i_glide_ligand_efficiency_sa>  (396) 
-0.37768

>  <r_i_glide_ligand_efficiency_ln>  (396) 
-0.816287

>  <r_i_glide_gscore>  (396) 
-3.56497

>  <r_i_glide_lipo>  (396) 
-0.704504

>  <r_i_glide_hbond>  (396) 
-0.123271

>  <r_i_glide_metal>  (396) 
-0

>  <r_i_glide_rewards>  (396) 
-0.560289

>  <r_i_glide_evdw>  (396) 
-36.3828

>  <r_i_glide_ecoul>  (396) 
-3.55709

>  <r_i_glide_erotb>  (396) 
0.32317

>  <r_i_glide_esite>  (396) 
-0.147369

>  <r_i_glide_emodel>  (396) 
-47.8165

>  <r_i_glide_energy>  (396) 
-39.9399

>  <r_i_glide_einternal>  (396) 
3.14979

>  <r_i_glide_intrahb_reward>  (396) 
-0

>  <i_i_glide_confnum>  (396) 
6

>  <i_i_glide_posenum>  (396) 
9

>  <r_i_glide_eff_state_penalty>  (396) 
0

>  <ligand_id>  (396) 
111

>  <original_smiles>  (396) 
CCn1c(O)c2c(c1O)C1C=CC2C1c1[nH]c(=N)sc1S(=O)(=O)c1ccccc1

>  <smiles>  (396) 
[H]C1=C([H])C2([H])C3([H])C(=O)N(C([H])([H])C([H])([H])[H])C(=O)C3([H])C1([H])C2([H])c1nc(N([H])[H])sc1S(=O)(=O)c1c([H])c([H])c([H])c([H])c1[H]

$$$$
111:2:1
     RDKit          3D

 48 52  0  0  1  0  0  0  0  0999 V2000
    3.5855   -0.4590   -3.0646 C   0  0  0  0  0  0  0  0  0  0  0  0
    4.0446   -1.8763   -3.4166 C   0  0  0  0  0  0  0  0  0  0  0  0
    4.2172   -2.6827   -2.2162 N   0  0  0  0  0  0  0  0  0  0  0  0
    5.3734   -2.7942   -1.5354 C   0  0  0  0  0  0  0  0  0  0  0  0
    6.4431   -2.2339   -1.7892 O   0  0  0  0  0  0  0  0  0  0  0  0
    5.2195   -3.7377   -0.3532 C   0  0  2  0  0  0  0  0  0  0  0  0
    3.7328   -4.1147   -0.4308 C   0  0  2  0  0  0  0  0  0  0  0  0
    3.2131   -3.3641   -1.6380 C   0  0  0  0  0  0  0  0  0  0  0  0
    2.0396   -3.4394   -1.9935 O   0  0  0  0  0  0  0  0  0  0  0  0
    3.1852   -3.6519    0.9414 C   0  0  2  0  0  0  0  0  0  0  0  0
    3.2587   -2.1580    1.0813 C   0  0  0  0  0  0  0  0  0  0  0  0
    4.5405   -1.8220    1.1710 C   0  0  0  0  0  0  0  0  0  0  0  0
    5.3267   -3.1296    1.0948 C   0  0  1  0  0  0  0  0  0  0  0  0
    4.3561   -4.0850    1.8610 C   0  0  2  0  0  0  0  0  0  0  0  0
    4.7109   -5.5621    1.7820 C   0  0  0  0  0  0  0  0  0  0  0  0
    6.0795   -5.8804    1.8739 N   0  0  0  0  0  0  0  0  0  0  0  0
    6.3389   -7.1691    1.7017 C   0  0  0  0  0  0  0  0  0  0  0  0
    7.6123   -7.7007    1.6589 N   0  0  0  0  0  0  0  0  0  0  0  0
    4.8913   -8.1410    1.5222 S   0  0  0  0  0  0  0  0  0  0  0  0
    3.9163   -6.6911    1.6439 C   0  0  0  0  0  0  0  0  0  0  0  0
    2.1198   -6.8955    1.7000 S   0  0  0  0  0  0  0  0  0  0  0  0
    1.4690   -6.0373    0.6804 O   0  0  0  0  0  0  0  0  0  0  0  0
    1.8946   -8.3461    1.6411 O   0  0  0  0  0  0  0  0  0  0  0  0
    1.6602   -6.3256    3.3482 C   0  0  0  0  0  0  0  0  0  0  0  0
    1.5663   -4.9551    3.7019 C   0  0  0  0  0  0  0  0  0  0  0  0
    1.2518   -4.5757    5.0197 C   0  0  0  0  0  0  0  0  0  0  0  0
    1.0227   -5.5594    5.9969 C   0  0  0  0  0  0  0  0  0  0  0  0
    1.1310   -6.9231    5.6516 C   0  0  0  0  0  0  0  0  0  0  0  0
    1.4642   -7.3123    4.3346 C   0  0  0  0  0  0  0  0  0  0  0  0
    3.4750    0.1405   -3.9647 H   0  0  0  0  0  0  0  0  0  0  0  0
    4.2987    0.0414   -2.4080 H   0  0  0  0  0  0  0  0  0  0  0  0
    2.6209   -0.4772   -2.5550 H   0  0  0  0  0  0  0  0  0  0  0  0
    3.3204   -2.3548   -4.0815 H   0  0  0  0  0  0  0  0  0  0  0  0
    4.9915   -1.8442   -3.9545 H   0  0  0  0  0  0  0  0  0  0  0  0
    5.8656   -4.6082   -0.4989 H   0  0  0  0  0  0  0  0  0  0  0  0
    3.6101   -5.1801   -0.6040 H   0  0  0  0  0  0  0  0  0  0  0  0
    2.1615   -3.9384    1.1416 H   0  0  0  0  0  0  0  0  0  0  0  0
    2.3776   -1.5351    1.1008 H   0  0  0  0  0  0  0  0  0  0  0  0
    4.9530   -0.8242    1.2796 H   0  0  0  0  0  0  0  0  0  0  0  0
    6.3424   -3.0659    1.5090 H   0  0  0  0  0  0  0  0  0  0  0  0
    4.2306   -3.7775    2.9087 H   0  0  0  0  0  0  0  0  0  0  0  0
    8.4383   -7.1324    1.7521 H   0  0  0  0  0  0  0  0  0  0  0  0
    1.7255   -4.1220    3.0359 H   0  0  0  0  0  0  0  0  0  0  0  0
    1.1898   -3.5250    5.2507 H   0  0  0  0  0  0  0  0  0  0  0  0
    0.7667   -5.2521    7.0049 H   0  0  0  0  0  0  0  0  0  0  0  0
    0.9579   -7.6821    6.4033 H   0  0  0  0  0  0  0  0  0  0  0  0
    1.5606   -8.3617    4.0833 H   0  0  0  0  0  0  0  0  0  0  0  0
    7.7712   -8.6960    1.5695 H   0  0  0  0  0  0  0  0  0  0  0  0
  1  2  1  0
  1 30  1  0
  1 31  1  0
  1 32  1  0
  2 33  1  0
  2 34  1  0
  2  3  1  0
  3  8  1  0
  3  4  1  0
  4  5  2  0
  4  6  1  0
  6 13  1  0
  6 35  1  6
  6  7  1  0
  7 10  1  0
  7 36  1  6
  7  8  1  0
  8  9  2  0
 10 14  1  0
 10 11  1  0
 10 37  1  1
 11 12  2  0
 11 38  1  0
 12 13  1  0
 12 39  1  0
 13 14  1  0
 13 40  1  1
 14 15  1  0
 14 41  1  1
 15 20  2  0
 15 16  1  0
 16 17  2  0
 17 18  1  0
 17 19  1  0
 18 42  1  0
 18 48  1  0
 19 20  1  0
 20 21  1  0
 21 22  2  0
 21 23  2  0
 21 24  1  0
 24 29  1  0
 24 25  2  0
 25 26  1  0
 25 43  1  0
 26 27  2  0
 26 44  1  0
 27 28  1  0
 27 45  1  0
 28 29  2  0
 28 46  1  0
 29 47  1  0
M  END
>  <i_m_ct_stereo_status>  (397) 
1

>  <s_m_source_file>  (397) 
/var/tmp/pbs.5076255.sched01/tmpfsvwwkaa/138cw1meju8.sdf

>  <i_m_source_file_index>  (397) 
31

>  <i_lp_mmshare_version>  (397) 
48012

>  <i_f3d_flags>  (397) 
0

>  <s_epik_input>  (397) 
W0NIM11bQ0gyXW4oYzFbT0hdKWMoW09IXSljKGMxMilbQ0BASF0zW0NIXT1bQ0hdW0NASF0yW0NASF0zYzRbbkhdL2MoPU5cW0hdKXNjNFMoPU8pKD1PKWM1W2NIXVtjSF1bY0hdW2NIXVtjSF01

>  <s_epik_cmdline>  (397) 
J2VwaWtfcHl0aG9uJywgJy1waHQnLCAnMi4wJywgJy1waCcsICc3LjAnLCAnLXRuJywgJzgnLCAnLW1hJywgJzIwMCcsICctaW1hZScsICc8aW5maWxlLm1hZT4nLCAnLW9tYWUnLCAnPG91dGZpbGUubWFlPic=

>  <r_lp_tautomer_probability>  (397) 
1

>  <r_epik_Ionization_Penalty>  (397) 
3.68372e-06

>  <r_epik_Ionization_Penalty_Charging>  (397) 
0

>  <r_epik_Ionization_Penalty_Neutral>  (397) 
3.68372e-06

>  <r_epik_State_Penalty>  (397) 
-0

>  <r_epik_Charging_Adjusted_Penalty>  (397) 
0

>  <i_epik_Tot_Q>  (397) 
0

>  <i_epik_Tot_abs_Q>  (397) 
0

>  <s_lp_Force_Field>  (397) 
OPLS3e

>  <r_lp_Energy>  (397) 
25.9281

>  <b_lp_Chiralities_Consistent>  (397) 
1

>  <s_lp_Variant>  (397) 
111:0-3

>  <s_i_glide_gridfile>  (397) 
pfpi4k_grid

>  <i_i_glide_lignum>  (397) 
31

>  <i_i_glide_rotatable_bonds>  (397) 
4

>  <r_i_docking_score>  (397) 
-3.41776

>  <r_i_glide_ligand_efficiency>  (397) 
-0.117854

>  <r_i_glide_ligand_efficiency_sa>  (397) 
-0.362085

>  <r_i_glide_ligand_efficiency_ln>  (397) 
-0.782581

>  <r_i_glide_gscore>  (397) 
-3.41776

>  <r_i_glide_lipo>  (397) 
-0.616582

>  <r_i_glide_hbond>  (397) 
-0.138551

>  <r_i_glide_metal>  (397) 
-0

>  <r_i_glide_rewards>  (397) 
-0.625706

>  <r_i_glide_evdw>  (397) 
-33.8089

>  <r_i_glide_ecoul>  (397) 
-3.42596

>  <r_i_glide_erotb>  (397) 
0.32317

>  <r_i_glide_esite>  (397) 
-0.155759

>  <r_i_glide_emodel>  (397) 
-44.9698

>  <r_i_glide_energy>  (397) 
-37.2348

>  <r_i_glide_einternal>  (397) 
0.698122

>  <r_i_glide_intrahb_reward>  (397) 
-0

>  <i_i_glide_confnum>  (397) 
4

>  <i_i_glide_posenum>  (397) 
18

>  <r_i_glide_eff_state_penalty>  (397) 
0

>  <ligand_id>  (397) 
111

>  <original_smiles>  (397) 
CCn1c(O)c2c(c1O)C1C=CC2C1c1[nH]c(=N)sc1S(=O)(=O)c1ccccc1

>  <smiles>  (397) 
[H]C1=C([H])C2([H])C3([H])C(=O)N(C([H])([H])C([H])([H])[H])C(=O)C3([H])C1([H])C2([H])c1nc(N([H])[H])sc1S(=O)(=O)c1c([H])c([H])c([H])c([H])c1[H]

$$$$
111:2:2
     RDKit          3D

 48 52  0  0  1  0  0  0  0  0999 V2000
    3.5850   -2.6232   -4.2385 C   0  0  0  0  0  0  0  0  0  0  0  0
    3.4695   -1.8531   -2.9185 C   0  0  0  0  0  0  0  0  0  0  0  0
    3.6830   -2.7293   -1.7713 N   0  0  0  0  0  0  0  0  0  0  0  0
    4.8683   -2.8852   -1.1560 C   0  0  0  0  0  0  0  0  0  0  0  0
    5.9345   -2.3384   -1.4532 O   0  0  0  0  0  0  0  0  0  0  0  0
    4.7457   -3.8780   -0.0024 C   0  0  2  0  0  0  0  0  0  0  0  0
    3.2515   -4.2471   -0.0250 C   0  0  2  0  0  0  0  0  0  0  0  0
    2.7117   -3.4494   -1.1952 C   0  0  0  0  0  0  0  0  0  0  0  0
    1.5281   -3.5212   -1.5380 O   0  0  0  0  0  0  0  0  0  0  0  0
    2.7633   -3.8318    1.3977 C   0  0  2  0  0  0  0  0  0  0  0  0
    2.8686   -2.3347    1.5868 C   0  0  0  0  0  0  0  0  0  0  0  0
    4.1628   -2.0256    1.6211 C   0  0  0  0  0  0  0  0  0  0  0  0
    4.9289   -3.3304    1.4561 C   0  0  1  0  0  0  0  0  0  0  0  0
    3.9833   -4.2920    2.2455 C   0  0  2  0  0  0  0  0  0  0  0  0
    4.3363   -5.7683    2.1423 C   0  0  0  0  0  0  0  0  0  0  0  0
    5.7034   -6.1059    2.0649 N   0  0  0  0  0  0  0  0  0  0  0  0
    5.9027   -7.3984    1.8228 C   0  0  0  0  0  0  0  0  0  0  0  0
    7.1540   -7.9627    1.6333 N   0  0  0  0  0  0  0  0  0  0  0  0
    4.4185   -8.3351    1.7391 S   0  0  0  0  0  0  0  0  0  0  0  0
    3.5152   -6.8731    2.0997 C   0  0  0  0  0  0  0  0  0  0  0  0
    1.7311   -6.9463    2.2692 S   0  0  0  0  0  0  0  0  0  0  0  0
    1.3039   -5.8372    3.1362 O   0  0  0  0  0  0  0  0  0  0  0  0
    1.1683   -7.0609    0.9134 O   0  0  0  0  0  0  0  0  0  0  0  0
    1.4254   -8.4338    3.1848 C   0  0  0  0  0  0  0  0  0  0  0  0
    1.3370   -9.6754    2.5279 C   0  0  0  0  0  0  0  0  0  0  0  0
    1.1132  -10.8386    3.2921 C   0  0  0  0  0  0  0  0  0  0  0  0
    0.9965  -10.7474    4.6968 C   0  0  0  0  0  0  0  0  0  0  0  0
    1.0941   -9.5010    5.3477 C   0  0  0  0  0  0  0  0  0  0  0  0
    1.3221   -8.3413    4.5869 C   0  0  0  0  0  0  0  0  0  0  0  0
    3.4188   -1.9379   -5.0670 H   0  0  0  0  0  0  0  0  0  0  0  0
    2.8437   -3.4202   -4.3046 H   0  0  0  0  0  0  0  0  0  0  0  0
    4.5704   -3.0769   -4.3425 H   0  0  0  0  0  0  0  0  0  0  0  0
    4.1901   -1.0330   -2.9015 H   0  0  0  0  0  0  0  0  0  0  0  0
    2.4864   -1.3865   -2.8375 H   0  0  0  0  0  0  0  0  0  0  0  0
    5.3763   -4.7411   -0.2200 H   0  0  0  0  0  0  0  0  0  0  0  0
    3.0950   -5.3038   -0.2278 H   0  0  0  0  0  0  0  0  0  0  0  0
    1.7797   -4.1813    1.6568 H   0  0  0  0  0  0  0  0  0  0  0  0
    2.0184   -1.6797    1.6753 H   0  0  0  0  0  0  0  0  0  0  0  0
    4.6066   -1.0460    1.7390 H   0  0  0  0  0  0  0  0  0  0  0  0
    5.9597   -3.2914    1.8201 H   0  0  0  0  0  0  0  0  0  0  0  0
    3.9032   -4.0072    3.2976 H   0  0  0  0  0  0  0  0  0  0  0  0
    7.9903   -7.4007    1.6682 H   0  0  0  0  0  0  0  0  0  0  0  0
    1.4382   -9.7265    1.4545 H   0  0  0  0  0  0  0  0  0  0  0  0
    1.0303  -11.7992    2.8043 H   0  0  0  0  0  0  0  0  0  0  0  0
    0.8150  -11.6313    5.2834 H   0  0  0  0  0  0  0  0  0  0  0  0
    0.9912   -9.4306    6.4222 H   0  0  0  0  0  0  0  0  0  0  0  0
    1.4039   -7.3853    5.0778 H   0  0  0  0  0  0  0  0  0  0  0  0
    7.2831   -8.9493    1.5093 H   0  0  0  0  0  0  0  0  0  0  0  0
  1  2  1  0
  1 30  1  0
  1 31  1  0
  1 32  1  0
  2 33  1  0
  2 34  1  0
  2  3  1  0
  3  8  1  0
  3  4  1  0
  4  5  2  0
  4  6  1  0
  6 13  1  0
  6 35  1  6
  6  7  1  0
  7 10  1  0
  7 36  1  6
  7  8  1  0
  8  9  2  0
 10 14  1  0
 10 11  1  0
 10 37  1  1
 11 12  2  0
 11 38  1  0
 12 13  1  0
 12 39  1  0
 13 14  1  0
 13 40  1  1
 14 15  1  0
 14 41  1  1
 15 20  2  0
 15 16  1  0
 16 17  2  0
 17 18  1  0
 17 19  1  0
 18 42  1  0
 18 48  1  0
 19 20  1  0
 20 21  1  0
 21 22  2  0
 21 23  2  0
 21 24  1  0
 24 29  1  0
 24 25  2  0
 25 26  1  0
 25 43  1  0
 26 27  2  0
 26 44  1  0
 27 28  1  0
 27 45  1  0
 28 29  2  0
 28 46  1  0
 29 47  1  0
M  END
>  <i_m_ct_stereo_status>  (398) 
1

>  <s_m_source_file>  (398) 
/var/tmp/pbs.5076255.sched01/tmpfsvwwkaa/138cw1meju8.sdf

>  <i_m_source_file_index>  (398) 
31

>  <i_lp_mmshare_version>  (398) 
48012

>  <i_f3d_flags>  (398) 
0

>  <s_epik_input>  (398) 
W0NIM11bQ0gyXW4oYzFbT0hdKWMoW09IXSljKGMxMilbQ0BASF0zW0NIXT1bQ0hdW0NASF0yW0NASF0zYzRbbkhdL2MoPU5cW0hdKXNjNFMoPU8pKD1PKWM1W2NIXVtjSF1bY0hdW2NIXVtjSF01

>  <s_epik_cmdline>  (398) 
J2VwaWtfcHl0aG9uJywgJy1waHQnLCAnMi4wJywgJy1waCcsICc3LjAnLCAnLXRuJywgJzgnLCAnLW1hJywgJzIwMCcsICctaW1hZScsICc8aW5maWxlLm1hZT4nLCAnLW9tYWUnLCAnPG91dGZpbGUubWFlPic=

>  <r_lp_tautomer_probability>  (398) 
1

>  <r_epik_Ionization_Penalty>  (398) 
3.68372e-06

>  <r_epik_Ionization_Penalty_Charging>  (398) 
0

>  <r_epik_Ionization_Penalty_Neutral>  (398) 
3.68372e-06

>  <r_epik_State_Penalty>  (398) 
-0

>  <r_epik_Charging_Adjusted_Penalty>  (398) 
0

>  <i_epik_Tot_Q>  (398) 
0

>  <i_epik_Tot_abs_Q>  (398) 
0

>  <s_lp_Force_Field>  (398) 
OPLS3e

>  <r_lp_Energy>  (398) 
25.9281

>  <b_lp_Chiralities_Consistent>  (398) 
1

>  <s_lp_Variant>  (398) 
111:0-3

>  <s_i_glide_gridfile>  (398) 
pfpi4k_grid

>  <i_i_glide_lignum>  (398) 
31

>  <i_i_glide_rotatable_bonds>  (398) 
4

>  <r_i_docking_score>  (398) 
-3.12052

>  <r_i_glide_ligand_efficiency>  (398) 
-0.107604

>  <r_i_glide_ligand_efficiency_sa>  (398) 
-0.330594

>  <r_i_glide_ligand_efficiency_ln>  (398) 
-0.714521

>  <r_i_glide_gscore>  (398) 
-3.12052

>  <r_i_glide_lipo>  (398) 
-0.464633

>  <r_i_glide_hbond>  (398) 
-0.0260753

>  <r_i_glide_metal>  (398) 
-0

>  <r_i_glide_rewards>  (398) 
-0.54284

>  <r_i_glide_evdw>  (398) 
-35.4312

>  <r_i_glide_ecoul>  (398) 
-3.38234

>  <r_i_glide_erotb>  (398) 
0.32317

>  <r_i_glide_esite>  (398) 
-0.131232

>  <r_i_glide_emodel>  (398) 
-45.5198

>  <r_i_glide_energy>  (398) 
-38.8136

>  <r_i_glide_einternal>  (398) 
2.55273

>  <r_i_glide_intrahb_reward>  (398) 
-0

>  <i_i_glide_confnum>  (398) 
6

>  <i_i_glide_posenum>  (398) 
1

>  <r_i_glide_eff_state_penalty>  (398) 
0

>  <ligand_id>  (398) 
111

>  <original_smiles>  (398) 
CCn1c(O)c2c(c1O)C1C=CC2C1c1[nH]c(=N)sc1S(=O)(=O)c1ccccc1

>  <smiles>  (398) 
[H]C1=C([H])C2([H])C3([H])C(=O)N(C([H])([H])C([H])([H])[H])C(=O)C3([H])C1([H])C2([H])c1nc(N([H])[H])sc1S(=O)(=O)c1c([H])c([H])c([H])c([H])c1[H]

$$$$
114:0:0
     RDKit          3D

 38 39  0  0  1  0  0  0  0  0999 V2000
   -0.7084    1.0432    2.5531 C   0  0  0  0  0  0  0  0  0  0  0  0
   -0.5316    1.9072    3.8083 C   0  0  0  0  0  0  0  0  0  0  0  0
   -0.5868    3.2706    3.4887 N   0  0  0  0  0  0  0  0  0  0  0  0
   -0.3422    4.2871    4.3366 C   0  0  0  0  0  0  0  0  0  0  0  0
   -0.5134    5.4613    4.0524 O   0  0  0  0  0  0  0  0  0  0  0  0
    0.1034    3.9112    5.5507 N   0  0  0  0  0  0  0  0  0  0  0  0
   -0.1694    2.6234    6.1768 C   0  0  1  0  0  0  0  0  0  0  0  0
   -1.3875    2.7286    7.0538 C   0  0  0  0  0  0  0  0  0  0  0  0
   -2.7003    2.9306    6.7783 C   0  0  0  0  0  0  0  0  0  0  0  0
   -3.3703    2.9438    8.0376 C   0  0  0  0  0  0  0  0  0  0  0  0
   -2.4132    2.7753    8.9846 C   0  0  0  0  0  0  0  0  0  0  0  0
   -2.4570    2.6995   10.4722 C   0  0  0  0  0  0  0  0  0  0  0  0
   -1.1815    2.6389    8.4064 O   0  0  0  0  0  0  0  0  0  0  0  0
   -0.3129    1.5376    5.1123 C   0  0  0  0  0  0  0  0  0  0  0  0
   -0.2080    0.1438    5.6147 C   0  0  0  0  0  0  0  0  0  0  0  0
    0.0410   -0.1437    6.7902 O   0  0  0  0  0  0  0  0  0  0  0  0
   -0.3848   -0.7741    4.6507 O   0  0  0  0  0  0  0  0  0  0  0  0
   -0.1837   -2.1686    4.8367 C   0  0  0  0  0  0  0  0  0  0  0  0
   -1.1037   -2.7533    5.9406 C   0  0  0  0  0  0  0  0  0  0  0  0
    1.3066   -2.5252    5.0182 C   0  0  0  0  0  0  0  0  0  0  0  0
   -0.0564    0.1649    2.5130 H   0  0  0  0  0  0  0  0  0  0  0  0
   -0.5255    1.6171    1.6333 H   0  0  0  0  0  0  0  0  0  0  0  0
   -1.7303    0.6992    2.5204 H   0  0  0  0  0  0  0  0  0  0  0  0
    0.4755    4.6314    6.1537 H   0  0  0  0  0  0  0  0  0  0  0  0
    0.7040    2.3811    6.7800 H   0  0  0  0  0  0  0  0  0  0  0  0
   -3.1239    3.0327    5.7879 H   0  0  0  0  0  0  0  0  0  0  0  0
   -4.4262    3.0627    8.2247 H   0  0  0  0  0  0  0  0  0  0  0  0
   -3.4777    2.8091   10.8450 H   0  0  0  0  0  0  0  0  0  0  0  0
   -1.8581    3.4911   10.9214 H   0  0  0  0  0  0  0  0  0  0  0  0
   -2.0764    1.7441   10.8371 H   0  0  0  0  0  0  0  0  0  0  0  0
   -0.7902    3.5143    2.5232 H   0  0  0  0  0  0  0  0  0  0  0  0
   -0.4749   -2.6367    3.8971 H   0  0  0  0  0  0  0  0  0  0  0  0
   -1.0281   -3.8470    6.0038 H   0  0  0  0  0  0  0  0  0  0  0  0
   -2.1435   -2.5004    5.7090 H   0  0  0  0  0  0  0  0  0  0  0  0
   -0.8645   -2.3240    6.9115 H   0  0  0  0  0  0  0  0  0  0  0  0
    1.4639   -3.6010    5.1391 H   0  0  0  0  0  0  0  0  0  0  0  0
    1.7226   -2.0230    5.8921 H   0  0  0  0  0  0  0  0  0  0  0  0
    1.8859   -2.2115    4.1483 H   0  0  0  0  0  0  0  0  0  0  0  0
  1 21  1  0
  1 22  1  0
  1 23  1  0
  1  2  1  0
  2 14  2  0
  2  3  1  0
  3  4  1  0
  3 31  1  0
  4  5  2  0
  4  6  1  0
  6  7  1  0
  6 24  1  0
  7  8  1  0
  7 25  1  1
  7 14  1  0
  8 13  1  0
  8  9  2  0
  9 10  1  0
  9 26  1  0
 10 11  2  0
 10 27  1  0
 11 12  1  0
 11 13  1  0
 12 28  1  0
 12 29  1  0
 12 30  1  0
 14 15  1  0
 15 16  2  0
 15 17  1  0
 17 18  1  0
 18 19  1  0
 18 20  1  0
 18 32  1  0
 19 33  1  0
 19 34  1  0
 19 35  1  0
 20 36  1  0
 20 37  1  0
 20 38  1  0
M  END
>  <i_m_ct_stereo_status>  (399) 
1

>  <s_m_source_file>  (399) 
/var/tmp/pbs.5076255.sched01/tmpfsvwwkaa/138cw1meju8.sdf

>  <i_m_source_file_index>  (399) 
36

>  <i_lp_mmshare_version>  (399) 
48012

>  <i_f3d_flags>  (399) 
0

>  <s_epik_input>  (399) 
W0NIM11DMT1OQyg9TylbTkhdW0NAQEhdKGMyW2NIXVtjSF1jKG8yKVtDSDNdKVtDQEhdMUMoPU8pT1tDSF0oW0NIM10pW0NIM10=

>  <s_epik_cmdline>  (399) 
J2VwaWtfcHl0aG9uJywgJy1waHQnLCAnMi4wJywgJy1waCcsICc3LjAnLCAnLXRuJywgJzgnLCAnLW1hJywgJzIwMCcsICctaW1hZScsICc8aW5maWxlLm1hZT4nLCAnLW9tYWUnLCAnPG91dGZpbGUubWFlPic=

>  <r_lp_tautomer_probability>  (399) 
1

>  <r_epik_Ionization_Penalty>  (399) 
2.08614e-05

>  <r_epik_Ionization_Penalty_Charging>  (399) 
0

>  <r_epik_Ionization_Penalty_Neutral>  (399) 
2.08614e-05

>  <r_epik_State_Penalty>  (399) 
-0

>  <r_epik_Charging_Adjusted_Penalty>  (399) 
0

>  <i_epik_Tot_Q>  (399) 
0

>  <i_epik_Tot_abs_Q>  (399) 
0

>  <s_epik_Chemistry_Notes>  (399) 
This compound has an ester and may undergo hydrolysis at high or low pH.

>  <s_lp_Force_Field>  (399) 
OPLS3e

>  <r_lp_Energy>  (399) 
22.5102

>  <b_lp_Chiralities_Consistent>  (399) 
1

>  <s_lp_Variant>  (399) 
114:0-1

>  <s_i_glide_gridfile>  (399) 
pfpi4k_grid

>  <i_i_glide_lignum>  (399) 
36

>  <i_i_glide_rotatable_bonds>  (399) 
4

>  <r_i_docking_score>  (399) 
-3.17276

>  <r_i_glide_ligand_efficiency>  (399) 
-0.158638

>  <r_i_glide_ligand_efficiency_sa>  (399) 
-0.430609

>  <r_i_glide_ligand_efficiency_ln>  (399) 
-0.794036

>  <r_i_glide_gscore>  (399) 
-3.17276

>  <r_i_glide_lipo>  (399) 
-0.24997

>  <r_i_glide_hbond>  (399) 
-0.169204

>  <r_i_glide_metal>  (399) 
-0

>  <r_i_glide_rewards>  (399) 
-1.51157

>  <r_i_glide_evdw>  (399) 
-19.8847

>  <r_i_glide_ecoul>  (399) 
-5.17999

>  <r_i_glide_erotb>  (399) 
0.698116

>  <r_i_glide_esite>  (399) 
-0.168897

>  <r_i_glide_emodel>  (399) 
-29.3422

>  <r_i_glide_energy>  (399) 
-25.0647

>  <r_i_glide_einternal>  (399) 
1.71049

>  <r_i_glide_intrahb_reward>  (399) 
-0

>  <i_i_glide_confnum>  (399) 
5

>  <i_i_glide_posenum>  (399) 
38

>  <r_i_glide_eff_state_penalty>  (399) 
0

>  <ligand_id>  (399) 
114

>  <original_smiles>  (399) 
CC1=NC(=O)NC(c2ccc(C)o2)C1C(=O)OC(C)C

>  <smiles>  (399) 
[H]c1c(C([H])([H])[H])oc(C2([H])C(C(=O)OC([H])(C([H])([H])[H])C([H])([H])[H])=C(C([H])([H])[H])N([H])C(=O)N2[H])c1[H]

$$$$
114:0:1
     RDKit          3D

 38 39  0  0  1  0  0  0  0  0999 V2000
   -0.9383    0.4178    2.7632 C   0  0  0  0  0  0  0  0  0  0  0  0
   -0.7633    1.6054    3.6884 C   0  0  0  0  0  0  0  0  0  0  0  0
   -1.4388    2.7197    3.1905 N   0  0  0  0  0  0  0  0  0  0  0  0
   -1.3681    3.9616    3.7031 C   0  0  0  0  0  0  0  0  0  0  0  0
   -2.0158    4.9098    3.2699 O   0  0  0  0  0  0  0  0  0  0  0  0
   -0.5055    4.0984    4.7228 N   0  0  0  0  0  0  0  0  0  0  0  0
   -0.0815    3.0169    5.6150 C   0  0  1  0  0  0  0  0  0  0  0  0
   -0.9661    2.9849    6.8265 C   0  0  0  0  0  0  0  0  0  0  0  0
   -2.2912    3.2618    7.0203 C   0  0  0  0  0  0  0  0  0  0  0  0
   -2.5483    3.0440    8.4020 C   0  0  0  0  0  0  0  0  0  0  0  0
   -1.3615    2.6636    8.9572 C   0  0  0  0  0  0  0  0  0  0  0  0
   -0.9458    2.2918   10.3393 C   0  0  0  0  0  0  0  0  0  0  0  0
   -0.3810    2.6314    8.0079 O   0  0  0  0  0  0  0  0  0  0  0  0
   -0.0971    1.6776    4.8702 C   0  0  0  0  0  0  0  0  0  0  0  0
    0.6383    0.5442    5.5122 C   0  0  0  0  0  0  0  0  0  0  0  0
    1.4502    0.6890    6.4232 O   0  0  0  0  0  0  0  0  0  0  0  0
    0.3119   -0.6616    4.9953 O   0  0  0  0  0  0  0  0  0  0  0  0
    0.9747   -1.8683    5.3433 C   0  0  0  0  0  0  0  0  0  0  0  0
    1.1589   -2.7118    4.0684 C   0  0  0  0  0  0  0  0  0  0  0  0
    0.0987   -2.5893    6.3748 C   0  0  0  0  0  0  0  0  0  0  0  0
   -0.0310   -0.1810    2.6500 H   0  0  0  0  0  0  0  0  0  0  0  0
   -1.2284    0.7209    1.7520 H   0  0  0  0  0  0  0  0  0  0  0  0
   -1.7291   -0.2058    3.1879 H   0  0  0  0  0  0  0  0  0  0  0  0
   -0.2854    5.0405    5.0090 H   0  0  0  0  0  0  0  0  0  0  0  0
    0.9426    3.2483    5.9028 H   0  0  0  0  0  0  0  0  0  0  0  0
   -2.9878    3.5803    6.2524 H   0  0  0  0  0  0  0  0  0  0  0  0
   -3.4823    3.1535    8.9309 H   0  0  0  0  0  0  0  0  0  0  0  0
   -1.7883    2.3379   11.0228 H   0  0  0  0  0  0  0  0  0  0  0  0
   -0.1800    2.9687   10.7042 H   0  0  0  0  0  0  0  0  0  0  0  0
   -0.5495    1.2818   10.3646 H   0  0  0  0  0  0  0  0  0  0  0  0
   -1.9946    2.5804    2.3608 H   0  0  0  0  0  0  0  0  0  0  0  0
    1.9625   -1.6743    5.7668 H   0  0  0  0  0  0  0  0  0  0  0  0
    1.6322   -3.6685    4.2893 H   0  0  0  0  0  0  0  0  0  0  0  0
    1.7849   -2.2002    3.3371 H   0  0  0  0  0  0  0  0  0  0  0  0
    0.2072   -2.9262    3.5836 H   0  0  0  0  0  0  0  0  0  0  0  0
    0.5404   -3.5409    6.6691 H   0  0  0  0  0  0  0  0  0  0  0  0
   -0.8959   -2.7882    5.9718 H   0  0  0  0  0  0  0  0  0  0  0  0
   -0.0168   -1.9741    7.2684 H   0  0  0  0  0  0  0  0  0  0  0  0
  1 21  1  0
  1 22  1  0
  1 23  1  0
  1  2  1  0
  2 14  2  0
  2  3  1  0
  3  4  1  0
  3 31  1  0
  4  5  2  0
  4  6  1  0
  6  7  1  0
  6 24  1  0
  7  8  1  0
  7 25  1  1
  7 14  1  0
  8 13  1  0
  8  9  2  0
  9 10  1  0
  9 26  1  0
 10 11  2  0
 10 27  1  0
 11 12  1  0
 11 13  1  0
 12 28  1  0
 12 29  1  0
 12 30  1  0
 14 15  1  0
 15 16  2  0
 15 17  1  0
 17 18  1  0
 18 19  1  0
 18 20  1  0
 18 32  1  0
 19 33  1  0
 19 34  1  0
 19 35  1  0
 20 36  1  0
 20 37  1  0
 20 38  1  0
M  END
>  <i_m_ct_stereo_status>  (400) 
1

>  <s_m_source_file>  (400) 
/var/tmp/pbs.5076255.sched01/tmpfsvwwkaa/138cw1meju8.sdf

>  <i_m_source_file_index>  (400) 
36

>  <i_lp_mmshare_version>  (400) 
48012

>  <i_f3d_flags>  (400) 
0

>  <s_epik_input>  (400) 
W0NIM11DMT1OQyg9TylbTkhdW0NAQEhdKGMyW2NIXVtjSF1jKG8yKVtDSDNdKVtDQEhdMUMoPU8pT1tDSF0oW0NIM10pW0NIM10=

>  <s_epik_cmdline>  (400) 
J2VwaWtfcHl0aG9uJywgJy1waHQnLCAnMi4wJywgJy1waCcsICc3LjAnLCAnLXRuJywgJzgnLCAnLW1hJywgJzIwMCcsICctaW1hZScsICc8aW5maWxlLm1hZT4nLCAnLW9tYWUnLCAnPG91dGZpbGUubWFlPic=

>  <r_lp_tautomer_probability>  (400) 
1

>  <r_epik_Ionization_Penalty>  (400) 
2.08614e-05

>  <r_epik_Ionization_Penalty_Charging>  (400) 
0

>  <r_epik_Ionization_Penalty_Neutral>  (400) 
2.08614e-05

>  <r_epik_State_Penalty>  (400) 
-0

>  <r_epik_Charging_Adjusted_Penalty>  (400) 
0

>  <i_epik_Tot_Q>  (400) 
0

>  <i_epik_Tot_abs_Q>  (400) 
0

>  <s_epik_Chemistry_Notes>  (400) 
This compound has an ester and may undergo hydrolysis at high or low pH.

>  <s_lp_Force_Field>  (400) 
OPLS3e

>  <r_lp_Energy>  (400) 
22.5102

>  <b_lp_Chiralities_Consistent>  (400) 
1

>  <s_lp_Variant>  (400) 
114:0-1

>  <s_i_glide_gridfile>  (400) 
pfpi4k_grid

>  <i_i_glide_lignum>  (400) 
36

>  <i_i_glide_rotatable_bonds>  (400) 
4

>  <r_i_docking_score>  (400) 
-3.11828

>  <r_i_glide_ligand_efficiency>  (400) 
-0.155914

>  <r_i_glide_ligand_efficiency_sa>  (400) 
-0.423215

>  <r_i_glide_ligand_efficiency_ln>  (400) 
-0.780402

>  <r_i_glide_gscore>  (400) 
-3.11828

>  <r_i_glide_lipo>  (400) 
-0.185867

>  <r_i_glide_hbond>  (400) 
-0.16

>  <r_i_glide_metal>  (400) 
-0

>  <r_i_glide_rewards>  (400) 
-1.51157

>  <r_i_glide_evdw>  (400) 
-16.6399

>  <r_i_glide_ecoul>  (400) 
-6.23236

>  <r_i_glide_erotb>  (400) 
0.698116

>  <r_i_glide_esite>  (400) 
-0.192113

>  <r_i_glide_emodel>  (400) 
-28.0129

>  <r_i_glide_energy>  (400) 
-22.8723

>  <r_i_glide_einternal>  (400) 
0.0879622

>  <r_i_glide_intrahb_reward>  (400) 
-0

>  <i_i_glide_confnum>  (400) 
4

>  <i_i_glide_posenum>  (400) 
23

>  <r_i_glide_eff_state_penalty>  (400) 
0

>  <ligand_id>  (400) 
114

>  <original_smiles>  (400) 
CC1=NC(=O)NC(c2ccc(C)o2)C1C(=O)OC(C)C

>  <smiles>  (400) 
[H]c1c(C([H])([H])[H])oc(C2([H])C(C(=O)OC([H])(C([H])([H])[H])C([H])([H])[H])=C(C([H])([H])[H])N([H])C(=O)N2[H])c1[H]

$$$$
114:0:2
     RDKit          3D

 38 39  0  0  1  0  0  0  0  0999 V2000
    2.5165    3.5624    3.2627 C   0  0  0  0  0  0  0  0  0  0  0  0
    1.0523    3.3529    3.6458 C   0  0  0  0  0  0  0  0  0  0  0  0
    0.5825    2.1329    3.1415 N   0  0  0  0  0  0  0  0  0  0  0  0
   -0.6798    1.6908    3.2203 C   0  0  0  0  0  0  0  0  0  0  0  0
   -1.0071    0.5798    2.8002 O   0  0  0  0  0  0  0  0  0  0  0  0
   -1.5647    2.5620    3.7164 N   0  0  0  0  0  0  0  0  0  0  0  0
   -1.2200    3.6548    4.6305 C   0  0  1  0  0  0  0  0  0  0  0  0
   -1.4304    3.1777    6.0383 C   0  0  0  0  0  0  0  0  0  0  0  0
   -0.6942    2.3841    6.8646 C   0  0  0  0  0  0  0  0  0  0  0  0
   -1.4237    2.2853    8.0875 C   0  0  0  0  0  0  0  0  0  0  0  0
   -2.5665    3.0041    7.9111 C   0  0  0  0  0  0  0  0  0  0  0  0
   -3.7293    3.3102    8.7992 C   0  0  0  0  0  0  0  0  0  0  0  0
   -2.5929    3.5417    6.6549 O   0  0  0  0  0  0  0  0  0  0  0  0
    0.2307    4.1279    4.4005 C   0  0  0  0  0  0  0  0  0  0  0  0
    0.6155    5.4440    5.0135 C   0  0  0  0  0  0  0  0  0  0  0  0
   -0.1880    6.2136    5.5261 O   0  0  0  0  0  0  0  0  0  0  0  0
    1.9320    5.6982    4.9726 O   0  0  0  0  0  0  0  0  0  0  0  0
    2.5034    6.9308    5.3934 C   0  0  0  0  0  0  0  0  0  0  0  0
    2.7475    7.8491    4.1846 C   0  0  0  0  0  0  0  0  0  0  0  0
    3.8167    6.5731    6.0954 C   0  0  0  0  0  0  0  0  0  0  0  0
    2.7435    4.5833    2.9554 H   0  0  0  0  0  0  0  0  0  0  0  0
    2.8001    2.9491    2.4041 H   0  0  0  0  0  0  0  0  0  0  0  0
    3.1561    3.2868    4.1060 H   0  0  0  0  0  0  0  0  0  0  0  0
   -2.5371    2.3343    3.5941 H   0  0  0  0  0  0  0  0  0  0  0  0
   -1.9004    4.4717    4.4110 H   0  0  0  0  0  0  0  0  0  0  0  0
    0.2653    1.9472    6.6153 H   0  0  0  0  0  0  0  0  0  0  0  0
   -1.1363    1.7659    8.9916 H   0  0  0  0  0  0  0  0  0  0  0  0
   -3.6084    2.8383    9.7737 H   0  0  0  0  0  0  0  0  0  0  0  0
   -4.6516    2.9443    8.3605 H   0  0  0  0  0  0  0  0  0  0  0  0
   -3.8249    4.3805    8.9546 H   0  0  0  0  0  0  0  0  0  0  0  0
    1.2587    1.5385    2.6852 H   0  0  0  0  0  0  0  0  0  0  0  0
    1.8574    7.4355    6.1080 H   0  0  0  0  0  0  0  0  0  0  0  0
    3.1976    8.7907    4.4966 H   0  0  0  0  0  0  0  0  0  0  0  0
    1.8151    8.0916    3.6770 H   0  0  0  0  0  0  0  0  0  0  0  0
    3.4121    7.3967    3.4473 H   0  0  0  0  0  0  0  0  0  0  0  0
    4.3085    7.4693    6.4708 H   0  0  0  0  0  0  0  0  0  0  0  0
    4.5151    6.0671    5.4233 H   0  0  0  0  0  0  0  0  0  0  0  0
    3.6343    5.9073    6.9406 H   0  0  0  0  0  0  0  0  0  0  0  0
  1 21  1  0
  1 22  1  0
  1 23  1  0
  1  2  1  0
  2 14  2  0
  2  3  1  0
  3  4  1  0
  3 31  1  0
  4  5  2  0
  4  6  1  0
  6  7  1  0
  6 24  1  0
  7  8  1  0
  7 25  1  6
  7 14  1  0
  8 13  1  0
  8  9  2  0
  9 10  1  0
  9 26  1  0
 10 11  2  0
 10 27  1  0
 11 12  1  0
 11 13  1  0
 12 28  1  0
 12 29  1  0
 12 30  1  0
 14 15  1  0
 15 16  2  0
 15 17  1  0
 17 18  1  0
 18 19  1  0
 18 20  1  0
 18 32  1  0
 19 33  1  0
 19 34  1  0
 19 35  1  0
 20 36  1  0
 20 37  1  0
 20 38  1  0
M  END
>  <i_m_ct_stereo_status>  (401) 
1

>  <s_m_source_file>  (401) 
/var/tmp/pbs.5076255.sched01/tmpfsvwwkaa/138cw1meju8.sdf

>  <i_m_source_file_index>  (401) 
36

>  <i_lp_mmshare_version>  (401) 
48012

>  <i_f3d_flags>  (401) 
0

>  <s_epik_input>  (401) 
W0NIM11DMT1OQyg9TylbTkhdW0NAQEhdKGMyW2NIXVtjSF1jKG8yKVtDSDNdKVtDQEhdMUMoPU8pT1tDSF0oW0NIM10pW0NIM10=

>  <s_epik_cmdline>  (401) 
J2VwaWtfcHl0aG9uJywgJy1waHQnLCAnMi4wJywgJy1waCcsICc3LjAnLCAnLXRuJywgJzgnLCAnLW1hJywgJzIwMCcsICctaW1hZScsICc8aW5maWxlLm1hZT4nLCAnLW9tYWUnLCAnPG91dGZpbGUubWFlPic=

>  <r_lp_tautomer_probability>  (401) 
1

>  <r_epik_Ionization_Penalty>  (401) 
2.08614e-05

>  <r_epik_Ionization_Penalty_Charging>  (401) 
0

>  <r_epik_Ionization_Penalty_Neutral>  (401) 
2.08614e-05

>  <r_epik_State_Penalty>  (401) 
-0

>  <r_epik_Charging_Adjusted_Penalty>  (401) 
0

>  <i_epik_Tot_Q>  (401) 
0

>  <i_epik_Tot_abs_Q>  (401) 
0

>  <s_epik_Chemistry_Notes>  (401) 
This compound has an ester and may undergo hydrolysis at high or low pH.

>  <s_lp_Force_Field>  (401) 
OPLS3e

>  <r_lp_Energy>  (401) 
22.5102

>  <b_lp_Chiralities_Consistent>  (401) 
1

>  <s_lp_Variant>  (401) 
114:0-1

>  <s_i_glide_gridfile>  (401) 
pfpi4k_grid

>  <i_i_glide_lignum>  (401) 
36

>  <i_i_glide_rotatable_bonds>  (401) 
4

>  <r_i_docking_score>  (401) 
-2.34519

>  <r_i_glide_ligand_efficiency>  (401) 
-0.11726

>  <r_i_glide_ligand_efficiency_sa>  (401) 
-0.318291

>  <r_i_glide_ligand_efficiency_ln>  (401) 
-0.586924

>  <r_i_glide_gscore>  (401) 
-2.34519

>  <r_i_glide_lipo>  (401) 
-0.141357

>  <r_i_glide_hbond>  (401) 
-0.00628123

>  <r_i_glide_metal>  (401) 
-0

>  <r_i_glide_rewards>  (401) 
-1.51157

>  <r_i_glide_evdw>  (401) 
-22.056

>  <r_i_glide_ecoul>  (401) 
-0.804674

>  <r_i_glide_erotb>  (401) 
0.698116

>  <r_i_glide_esite>  (401) 
-0.160604

>  <r_i_glide_emodel>  (401) 
-26.3019

>  <r_i_glide_energy>  (401) 
-22.8606

>  <r_i_glide_einternal>  (401) 
0.655544

>  <r_i_glide_intrahb_reward>  (401) 
-0

>  <i_i_glide_confnum>  (401) 
5

>  <i_i_glide_posenum>  (401) 
7

>  <r_i_glide_eff_state_penalty>  (401) 
0

>  <ligand_id>  (401) 
114

>  <original_smiles>  (401) 
CC1=NC(=O)NC(c2ccc(C)o2)C1C(=O)OC(C)C

>  <smiles>  (401) 
[H]c1c(C([H])([H])[H])oc(C2([H])C(C(=O)OC([H])(C([H])([H])[H])C([H])([H])[H])=C(C([H])([H])[H])N([H])C(=O)N2[H])c1[H]

$$$$
115:0:0
     RDKit          3D

 38 44  0  0  1  0  0  0  0  0999 V2000
    6.7712   -0.7080    0.4791 O   0  0  0  0  0  0  0  0  0  0  0  0
    5.7428   -1.3907    1.1450 C   0  0  2  0  0  0  0  0  0  0  0  0
    6.0178   -2.8521    1.3188 C   0  0  1  0  0  0  0  0  0  0  0  0
    4.5142   -3.6109    2.0795 C   0  0  1  0  0  0  0  0  0  0  0  0
    3.9113   -2.7083    3.1793 C   0  0  0  0  0  0  0  0  0  0  0  0
    2.9610   -1.7293    2.5504 C   0  0  1  0  0  0  0  0  0  0  0  0
    3.1746   -0.3255    2.0013 C   0  0  0  0  0  0  0  0  0  0  0  0
    3.2728   -1.5193    1.0977 C   0  0  1  0  0  0  0  0  0  0  0  0
    4.6058   -1.9216    0.3057 C   0  0  1  0  0  0  0  0  0  0  0  0
    4.0836   -1.4162   -1.0571 C   0  0  1  0  0  0  0  0  0  0  0  0
    4.9976   -0.6618   -1.8356 O   0  0  0  0  0  0  0  0  0  0  0  0
    3.8677   -2.7721   -1.6752 C   0  0  1  0  0  0  0  0  0  0  0  0
    5.4034   -3.2992   -1.6684 C   0  0  1  0  0  0  0  0  0  0  0  0
    6.4522   -3.2610   -0.3197 C   0  0  1  0  0  0  0  0  0  0  0  0
    5.3023   -3.5920   -0.0329 C   0  0  2  0  0  0  0  0  0  0  0  0
    4.7554   -4.4468   -1.0771 C   0  0  1  0  0  0  0  0  0  0  0  0
    3.4398   -3.9960   -0.7074 N   0  0  1  0  0  0  0  0  0  0  0  0
    3.2649   -4.1843    0.9349 C   0  0  0  0  0  0  0  0  0  0  0  0
    7.2074   -0.1204    1.0843 H   0  0  0  0  0  0  0  0  0  0  0  0
    5.6016   -0.9842    2.1371 H   0  0  0  0  0  0  0  0  0  0  0  0
    6.8804   -2.9945    1.9748 H   0  0  0  0  0  0  0  0  0  0  0  0
    4.8657   -4.4974    2.6046 H   0  0  0  0  0  0  0  0  0  0  0  0
    3.3392   -3.3035    3.8865 H   0  0  0  0  0  0  0  0  0  0  0  0
    4.6737   -2.1788    3.7447 H   0  0  0  0  0  0  0  0  0  0  0  0
    1.9225   -1.9415    2.7771 H   0  0  0  0  0  0  0  0  0  0  0  0
    2.2790    0.2754    1.8765 H   0  0  0  0  0  0  0  0  0  0  0  0
    4.0309    0.2196    2.3826 H   0  0  0  0  0  0  0  0  0  0  0  0
    2.3669   -1.7312    0.5410 H   0  0  0  0  0  0  0  0  0  0  0  0
    3.1656   -0.8272   -1.0752 H   0  0  0  0  0  0  0  0  0  0  0  0
    5.0249    0.2165   -1.4844 H   0  0  0  0  0  0  0  0  0  0  0  0
    3.4349   -2.8370   -2.6621 H   0  0  0  0  0  0  0  0  0  0  0  0
    5.8377   -3.5446   -2.6306 H   0  0  0  0  0  0  0  0  0  0  0  0
    7.1719   -4.0741   -0.4031 H   0  0  0  0  0  0  0  0  0  0  0  0
    5.5275   -4.5936    0.4570 H   0  0  0  0  0  0  0  0  0  0  0  0
    5.0752   -5.4741   -1.1737 H   0  0  0  0  0  0  0  0  0  0  0  0
    3.2013   -5.2610    1.1049 H   0  0  0  0  0  0  0  0  0  0  0  0
    2.2623   -3.8727    1.2251 H   0  0  0  0  0  0  0  0  0  0  0  0
    2.7889   -4.5767   -1.2202 H   0  0  0  0  0  0  0  0  0  0  0  0
  1  2  1  0
  1 19  1  0
  2  9  1  0
  2  3  1  0
  2 20  1  1
  3 14  1  0
  3  4  1  0
  3 21  1  1
  4 18  1  0
  4  5  1  0
  4 22  1  1
  5  6  1  0
  5 23  1  0
  5 24  1  0
  6  8  1  0
  6  7  1  0
  6 25  1  6
  7  8  1  0
  7 26  1  0
  7 27  1  0
  9  8  1  1
  8 28  1  6
  9 15  1  0
  9 10  1  0
 10 11  1  0
 10 12  1  0
 10 29  1  1
 11 30  1  0
 12 17  1  0
 12 13  1  0
 12 31  1  6
 13 16  1  0
 13 14  1  0
 13 32  1  6
 14 15  1  0
 14 33  1  6
 15 16  1  0
 15 34  1  1
 16 17  1  0
 16 35  1  6
 17 18  1  0
 17 38  1  6
 18 36  1  0
 18 37  1  0
M  CHG  1  17   1
M  END
>  <i_m_ct_stereo_status>  (402) 
1

>  <s_m_source_file>  (402) 
/var/tmp/pbs.5076255.sched01/tmpfsvwwkaa/138cw1meju8.sdf

>  <i_m_source_file_index>  (402) 
37

>  <i_lp_mmshare_version>  (402) 
48012

>  <i_f3d_flags>  (402) 
0

>  <s_epik_input>  (402) 
W0NAQF0xMjNbQ0BIXTRbQ0BIXShbQ0gyXTQpW0NIMl1bQ0BASF01W0NASF0oW0NASF0xW09IXSlbQ0BASF02W0NAQEhdN1tDQEhdKFtDQEBIXTJbT0hdKU4oW0NIMl01KVtDQEBIXTdbQ0BIXTM2

>  <s_epik_cmdline>  (402) 
J2VwaWtfcHl0aG9uJywgJy1waHQnLCAnMi4wJywgJy1waCcsICc3LjAnLCAnLXRuJywgJzgnLCAnLW1hJywgJzIwMCcsICctaW1hZScsICc8aW5maWxlLm1hZT4nLCAnLW9tYWUnLCAnPG91dGZpbGUubWFlPic=

>  <r_lp_tautomer_probability>  (402) 
1

>  <r_epik_Ionization_Penalty>  (402) 
9.30166e-05

>  <r_epik_Ionization_Penalty_Charging>  (402) 
9.29688e-05

>  <r_epik_Ionization_Penalty_Neutral>  (402) 
4.7797e-08

>  <r_epik_State_Penalty>  (402) 
-0

>  <r_epik_Charging_Adjusted_Penalty>  (402) 
9.29688e-05

>  <i_epik_Tot_Q>  (402) 
1

>  <i_epik_Tot_abs_Q>  (402) 
1

>  <s_lp_Force_Field>  (402) 
OPLS3e

>  <r_lp_Energy>  (402) 
534.274

>  <b_lp_Chiralities_Consistent>  (402) 
1

>  <s_lp_Variant>  (402) 
115:0-1

>  <s_i_glide_gridfile>  (402) 
pfpi4k_grid

>  <i_i_glide_lignum>  (402) 
37

>  <i_i_glide_rotatable_bonds>  (402) 
2

>  <r_i_docking_score>  (402) 
-4.98737

>  <r_i_glide_ligand_efficiency>  (402) 
-0.277076

>  <r_i_glide_ligand_efficiency_sa>  (402) 
-0.726145

>  <r_i_glide_ligand_efficiency_ln>  (402) 
-1.28198

>  <r_i_glide_gscore>  (402) 
-4.98737

>  <r_i_glide_lipo>  (402) 
-0.528824

>  <r_i_glide_hbond>  (402) 
0

>  <r_i_glide_metal>  (402) 
-0

>  <r_i_glide_rewards>  (402) 
-1.7296

>  <r_i_glide_evdw>  (402) 
-16.5706

>  <r_i_glide_ecoul>  (402) 
-12.5349

>  <r_i_glide_erotb>  (402) 
0

>  <r_i_glide_esite>  (402) 
-0.0201784

>  <r_i_glide_emodel>  (402) 
-38.1786

>  <r_i_glide_energy>  (402) 
-29.1055

>  <r_i_glide_einternal>  (402) 
1.60474

>  <r_i_glide_intrahb_reward>  (402) 
-0

>  <i_i_glide_confnum>  (402) 
1

>  <i_i_glide_posenum>  (402) 
19

>  <r_i_glide_eff_state_penalty>  (402) 
0

>  <ligand_id>  (402) 
115

>  <original_smiles>  (402) 
OC1C2C3CC4CC4C14C(O)C1C5C2C4C5N1C3

>  <smiles>  (402) 
[H]OC1([H])C2([H])C3([H])C4([H])C15C([H])(O[H])C1([H])C3([H])C4([H])[N+]1([H])C([H])([H])C2([H])C([H])([H])C1([H])C([H])([H])C15[H]

$$$$
115:0:1
     RDKit          3D

 38 44  0  0  1  0  0  0  0  0999 V2000
    7.6102   -3.8406    0.4015 O   0  0  0  0  0  0  0  0  0  0  0  0
    6.2799   -4.1000    0.7878 C   0  0  2  0  0  0  0  0  0  0  0  0
    5.4412   -4.6310   -0.3304 C   0  0  1  0  0  0  0  0  0  0  0  0
    3.7195   -4.8236    0.2958 C   0  0  1  0  0  0  0  0  0  0  0  0
    3.6890   -5.3870    1.7326 C   0  0  0  0  0  0  0  0  0  0  0  0
    3.7960   -4.2556    2.7124 C   0  0  1  0  0  0  0  0  0  0  0  0
    5.0044   -3.6108    3.3666 C   0  0  0  0  0  0  0  0  0  0  0  0
    4.4431   -3.0462    2.0904 C   0  0  1  0  0  0  0  0  0  0  0  0
    5.2687   -2.9716    0.7206 C   0  0  1  0  0  0  0  0  0  0  0  0
    5.5143   -1.4589    0.8211 C   0  0  1  0  0  0  0  0  0  0  0  0
    6.8399   -1.0645    0.4903 O   0  0  0  0  0  0  0  0  0  0  0  0
    4.5390   -1.0509   -0.2713 C   0  0  1  0  0  0  0  0  0  0  0  0
    5.2772   -1.7953   -1.5252 C   0  0  1  0  0  0  0  0  0  0  0  0
    5.7896   -3.4266   -1.5384 C   0  0  1  0  0  0  0  0  0  0  0  0
    4.6927   -3.2592   -1.0115 C   0  0  2  0  0  0  0  0  0  0  0  0
    3.9210   -2.2565   -1.7379 C   0  0  1  0  0  0  0  0  0  0  0  0
    3.2209   -1.9765   -0.5182 N   0  0  1  0  0  0  0  0  0  0  0  0
    2.6641   -3.3906    0.1261 C   0  0  0  0  0  0  0  0  0  0  0  0
    8.0296   -3.3982    1.1211 H   0  0  0  0  0  0  0  0  0  0  0  0
    6.2592   -4.8499    1.5689 H   0  0  0  0  0  0  0  0  0  0  0  0
    5.8102   -5.6106   -0.6352 H   0  0  0  0  0  0  0  0  0  0  0  0
    3.2723   -5.5947   -0.3248 H   0  0  0  0  0  0  0  0  0  0  0  0
    2.7412   -5.8880    1.9206 H   0  0  0  0  0  0  0  0  0  0  0  0
    4.4787   -6.1149    1.9041 H   0  0  0  0  0  0  0  0  0  0  0  0
    2.8703   -4.0730    3.2486 H   0  0  0  0  0  0  0  0  0  0  0  0
    4.8049   -3.0239    4.2570 H   0  0  0  0  0  0  0  0  0  0  0  0
    5.8945   -4.2255    3.4208 H   0  0  0  0  0  0  0  0  0  0  0  0
    3.7684   -2.2066    2.2413 H   0  0  0  0  0  0  0  0  0  0  0  0
    5.2896   -0.9569    1.7698 H   0  0  0  0  0  0  0  0  0  0  0  0
    7.0269   -0.2252    0.8826 H   0  0  0  0  0  0  0  0  0  0  0  0
    4.3932   -0.0045   -0.4757 H   0  0  0  0  0  0  0  0  0  0  0  0
    5.6097   -1.1602   -2.3357 H   0  0  0  0  0  0  0  0  0  0  0  0
    5.7629   -3.8019   -2.5655 H   0  0  0  0  0  0  0  0  0  0  0  0
    4.0858   -3.9780   -1.6525 H   0  0  0  0  0  0  0  0  0  0  0  0
    3.4963   -2.5056   -2.7107 H   0  0  0  0  0  0  0  0  0  0  0  0
    1.8612   -3.7077   -0.5426 H   0  0  0  0  0  0  0  0  0  0  0  0
    2.1231   -3.1653    1.0439 H   0  0  0  0  0  0  0  0  0  0  0  0
    2.4089   -1.3916   -0.7379 H   0  0  0  0  0  0  0  0  0  0  0  0
  1  2  1  0
  1 19  1  0
  2  9  1  0
  2  3  1  0
  2 20  1  1
  3 14  1  0
  3  4  1  0
  3 21  1  6
  4 18  1  0
  4  5  1  0
  4 22  1  6
  5  6  1  0
  5 23  1  0
  5 24  1  0
  6  8  1  0
  6  7  1  0
  6 25  1  1
  7  8  1  0
  7 26  1  0
  7 27  1  0
  9  8  1  1
  8 28  1  1
  9 15  1  0
  9 10  1  0
 10 11  1  0
 10 12  1  0
 10 29  1  1
 11 30  1  0
 12 17  1  0
 12 13  1  0
 12 31  1  6
 13 16  1  0
 13 14  1  0
 13 32  1  6
 14 15  1  0
 14 33  1  6
 15 16  1  0
 15 34  1  1
 16 17  1  0
 16 35  1  6
 17 18  1  0
 17 38  1  6
 18 36  1  0
 18 37  1  0
M  CHG  1  17   1
M  END
>  <i_m_ct_stereo_status>  (403) 
1

>  <s_m_source_file>  (403) 
/var/tmp/pbs.5076255.sched01/tmpfsvwwkaa/138cw1meju8.sdf

>  <i_m_source_file_index>  (403) 
37

>  <i_lp_mmshare_version>  (403) 
48012

>  <i_f3d_flags>  (403) 
0

>  <s_epik_input>  (403) 
W0NAQF0xMjNbQ0BIXTRbQ0BIXShbQ0gyXTQpW0NIMl1bQ0BASF01W0NASF0oW0NASF0xW09IXSlbQ0BASF02W0NAQEhdN1tDQEhdKFtDQEBIXTJbT0hdKU4oW0NIMl01KVtDQEBIXTdbQ0BIXTM2

>  <s_epik_cmdline>  (403) 
J2VwaWtfcHl0aG9uJywgJy1waHQnLCAnMi4wJywgJy1waCcsICc3LjAnLCAnLXRuJywgJzgnLCAnLW1hJywgJzIwMCcsICctaW1hZScsICc8aW5maWxlLm1hZT4nLCAnLW9tYWUnLCAnPG91dGZpbGUubWFlPic=

>  <r_lp_tautomer_probability>  (403) 
1

>  <r_epik_Ionization_Penalty>  (403) 
9.30166e-05

>  <r_epik_Ionization_Penalty_Charging>  (403) 
9.29688e-05

>  <r_epik_Ionization_Penalty_Neutral>  (403) 
4.7797e-08

>  <r_epik_State_Penalty>  (403) 
-0

>  <r_epik_Charging_Adjusted_Penalty>  (403) 
9.29688e-05

>  <i_epik_Tot_Q>  (403) 
1

>  <i_epik_Tot_abs_Q>  (403) 
1

>  <s_lp_Force_Field>  (403) 
OPLS3e

>  <r_lp_Energy>  (403) 
534.274

>  <b_lp_Chiralities_Consistent>  (403) 
1

>  <s_lp_Variant>  (403) 
115:0-1

>  <s_i_glide_gridfile>  (403) 
pfpi4k_grid

>  <i_i_glide_lignum>  (403) 
37

>  <i_i_glide_rotatable_bonds>  (403) 
2

>  <r_i_docking_score>  (403) 
-4.93606

>  <r_i_glide_ligand_efficiency>  (403) 
-0.274225

>  <r_i_glide_ligand_efficiency_sa>  (403) 
-0.718674

>  <r_i_glide_ligand_efficiency_ln>  (403) 
-1.26879

>  <r_i_glide_gscore>  (403) 
-4.93606

>  <r_i_glide_lipo>  (403) 
-0.497935

>  <r_i_glide_hbond>  (403) 
-0.2

>  <r_i_glide_metal>  (403) 
-0

>  <r_i_glide_rewards>  (403) 
-1.7296

>  <r_i_glide_evdw>  (403) 
-18.7631

>  <r_i_glide_ecoul>  (403) 
-9.80532

>  <r_i_glide_erotb>  (403) 
0

>  <r_i_glide_esite>  (403) 
-0.0995652

>  <r_i_glide_emodel>  (403) 
-37.8307

>  <r_i_glide_energy>  (403) 
-28.5684

>  <r_i_glide_einternal>  (403) 
1.15775

>  <r_i_glide_intrahb_reward>  (403) 
-0

>  <i_i_glide_confnum>  (403) 
2

>  <i_i_glide_posenum>  (403) 
24

>  <r_i_glide_eff_state_penalty>  (403) 
0

>  <ligand_id>  (403) 
115

>  <original_smiles>  (403) 
OC1C2C3CC4CC4C14C(O)C1C5C2C4C5N1C3

>  <smiles>  (403) 
[H]OC1([H])C2([H])C3([H])C4([H])C15C([H])(O[H])C1([H])C3([H])C4([H])[N+]1([H])C([H])([H])C2([H])C([H])([H])C1([H])C([H])([H])C15[H]

$$$$
115:0:2
     RDKit          3D

 38 44  0  0  1  0  0  0  0  0999 V2000
    7.6407   -2.8746    0.4747 O   0  0  0  0  0  0  0  0  0  0  0  0
    6.4316   -3.4917    0.8767 C   0  0  2  0  0  0  0  0  0  0  0  0
    5.9348   -4.4422   -0.1633 C   0  0  1  0  0  0  0  0  0  0  0  0
    4.3006   -5.1289    0.3907 C   0  0  1  0  0  0  0  0  0  0  0  0
    4.2847   -5.4305    1.8904 C   0  0  0  0  0  0  0  0  0  0  0  0
    3.9051   -4.1916    2.6510 C   0  0  1  0  0  0  0  0  0  0  0  0
    4.7618   -3.0879    3.2520 C   0  0  0  0  0  0  0  0  0  0  0  0
    4.2074   -2.9441    1.8573 C   0  0  1  0  0  0  0  0  0  0  0  0
    5.1228   -2.8200    0.5416 C   0  0  1  0  0  0  0  0  0  0  0  0
    4.8565   -1.3081    0.3795 C   0  0  1  0  0  0  0  0  0  0  0  0
    6.0146   -0.5522    0.0900 O   0  0  0  0  0  0  0  0  0  0  0  0
    3.9624   -1.4437   -0.8283 C   0  0  1  0  0  0  0  0  0  0  0  0
    5.0242   -2.0497   -1.8738 C   0  0  1  0  0  0  0  0  0  0  0  0
    6.0289   -3.3884   -1.5460 C   0  0  1  0  0  0  0  0  0  0  0  0
    4.8781   -3.5380   -1.1540 C   0  0  2  0  0  0  0  0  0  0  0  0
    3.9213   -2.9741   -2.0899 C   0  0  1  0  0  0  0  0  0  0  0  0
    3.0314   -2.7509   -0.9760 N   0  0  1  0  0  0  0  0  0  0  0  0
    2.8713   -4.1621   -0.1111 C   0  0  0  0  0  0  0  0  0  0  0  0
    8.3419   -3.4829    0.6363 H   0  0  0  0  0  0  0  0  0  0  0  0
    6.5706   -4.0693    1.7824 H   0  0  0  0  0  0  0  0  0  0  0  0
    6.6445   -5.2675   -0.2491 H   0  0  0  0  0  0  0  0  0  0  0  0
    4.2049   -6.0806   -0.1218 H   0  0  0  0  0  0  0  0  0  0  0  0
    3.5334   -6.1903    2.1048 H   0  0  0  0  0  0  0  0  0  0  0  0
    5.2392   -5.8175    2.2445 H   0  0  0  0  0  0  0  0  0  0  0  0
    2.9111   -4.2501    3.0839 H   0  0  0  0  0  0  0  0  0  0  0  0
    4.2836   -2.4748    4.0096 H   0  0  0  0  0  0  0  0  0  0  0  0
    5.7944   -3.3307    3.4692 H   0  0  0  0  0  0  0  0  0  0  0  0
    3.2871   -2.3598    1.8110 H   0  0  0  0  0  0  0  0  0  0  0  0
    4.3700   -0.7643    1.1983 H   0  0  0  0  0  0  0  0  0  0  0  0
    5.7528    0.3421   -0.0852 H   0  0  0  0  0  0  0  0  0  0  0  0
    3.4811   -0.5670   -1.2499 H   0  0  0  0  0  0  0  0  0  0  0  0
    5.2608   -1.4466   -2.7429 H   0  0  0  0  0  0  0  0  0  0  0  0
    6.2784   -3.8740   -2.4901 H   0  0  0  0  0  0  0  0  0  0  0  0
    4.6147   -4.5347   -1.6800 H   0  0  0  0  0  0  0  0  0  0  0  0
    3.7119   -3.4834   -3.0302 H   0  0  0  0  0  0  0  0  0  0  0  0
    2.2811   -4.8281   -0.7398 H   0  0  0  0  0  0  0  0  0  0  0  0
    2.1897   -3.9898    0.7170 H   0  0  0  0  0  0  0  0  0  0  0  0
    2.1233   -2.4090   -1.2963 H   0  0  0  0  0  0  0  0  0  0  0  0
  1  2  1  0
  1 19  1  0
  2  9  1  0
  2  3  1  0
  2 20  1  1
  3 14  1  0
  3  4  1  0
  3 21  1  6
  4 18  1  0
  4  5  1  0
  4 22  1  6
  5  6  1  0
  5 23  1  0
  5 24  1  0
  6  8  1  0
  6  7  1  0
  6 25  1  1
  7  8  1  0
  7 26  1  0
  7 27  1  0
  9  8  1  1
  8 28  1  1
  9 15  1  0
  9 10  1  0
 10 11  1  0
 10 12  1  0
 10 29  1  1
 11 30  1  0
 12 17  1  0
 12 13  1  0
 12 31  1  6
 13 16  1  0
 13 14  1  0
 13 32  1  6
 14 15  1  0
 14 33  1  6
 15 16  1  0
 15 34  1  1
 16 17  1  0
 16 35  1  6
 17 18  1  0
 17 38  1  6
 18 36  1  0
 18 37  1  0
M  CHG  1  17   1
M  END
>  <i_m_ct_stereo_status>  (404) 
1

>  <s_m_source_file>  (404) 
/var/tmp/pbs.5076255.sched01/tmpfsvwwkaa/138cw1meju8.sdf

>  <i_m_source_file_index>  (404) 
37

>  <i_lp_mmshare_version>  (404) 
48012

>  <i_f3d_flags>  (404) 
0

>  <s_epik_input>  (404) 
W0NAQF0xMjNbQ0BIXTRbQ0BIXShbQ0gyXTQpW0NIMl1bQ0BASF01W0NASF0oW0NASF0xW09IXSlbQ0BASF02W0NAQEhdN1tDQEhdKFtDQEBIXTJbT0hdKU4oW0NIMl01KVtDQEBIXTdbQ0BIXTM2

>  <s_epik_cmdline>  (404) 
J2VwaWtfcHl0aG9uJywgJy1waHQnLCAnMi4wJywgJy1waCcsICc3LjAnLCAnLXRuJywgJzgnLCAnLW1hJywgJzIwMCcsICctaW1hZScsICc8aW5maWxlLm1hZT4nLCAnLW9tYWUnLCAnPG91dGZpbGUubWFlPic=

>  <r_lp_tautomer_probability>  (404) 
1

>  <r_epik_Ionization_Penalty>  (404) 
9.30166e-05

>  <r_epik_Ionization_Penalty_Charging>  (404) 
9.29688e-05

>  <r_epik_Ionization_Penalty_Neutral>  (404) 
4.7797e-08

>  <r_epik_State_Penalty>  (404) 
-0

>  <r_epik_Charging_Adjusted_Penalty>  (404) 
9.29688e-05

>  <i_epik_Tot_Q>  (404) 
1

>  <i_epik_Tot_abs_Q>  (404) 
1

>  <s_lp_Force_Field>  (404) 
OPLS3e

>  <r_lp_Energy>  (404) 
534.274

>  <b_lp_Chiralities_Consistent>  (404) 
1

>  <s_lp_Variant>  (404) 
115:0-1

>  <s_i_glide_gridfile>  (404) 
pfpi4k_grid

>  <i_i_glide_lignum>  (404) 
37

>  <i_i_glide_rotatable_bonds>  (404) 
2

>  <r_i_docking_score>  (404) 
-4.47056

>  <r_i_glide_ligand_efficiency>  (404) 
-0.248365

>  <r_i_glide_ligand_efficiency_sa>  (404) 
-0.650899

>  <r_i_glide_ligand_efficiency_ln>  (404) 
-1.14913

>  <r_i_glide_gscore>  (404) 
-4.47056

>  <r_i_glide_lipo>  (404) 
-0.493154

>  <r_i_glide_hbond>  (404) 
-0.163747

>  <r_i_glide_metal>  (404) 
-0

>  <r_i_glide_rewards>  (404) 
-1.7296

>  <r_i_glide_evdw>  (404) 
-17.7247

>  <r_i_glide_ecoul>  (404) 
-7.7345

>  <r_i_glide_erotb>  (404) 
0

>  <r_i_glide_esite>  (404) 
-0.0376461

>  <r_i_glide_emodel>  (404) 
-34.1706

>  <r_i_glide_energy>  (404) 
-25.4592

>  <r_i_glide_einternal>  (404) 
0.565189

>  <r_i_glide_intrahb_reward>  (404) 
-0

>  <i_i_glide_confnum>  (404) 
1

>  <i_i_glide_posenum>  (404) 
40

>  <r_i_glide_eff_state_penalty>  (404) 
0

>  <ligand_id>  (404) 
115

>  <original_smiles>  (404) 
OC1C2C3CC4CC4C14C(O)C1C5C2C4C5N1C3

>  <smiles>  (404) 
[H]OC1([H])C2([H])C3([H])C4([H])C15C([H])(O[H])C1([H])C3([H])C4([H])[N+]1([H])C([H])([H])C2([H])C([H])([H])C1([H])C([H])([H])C15[H]

$$$$
116:0:0
     RDKit          3D

 83 87  0  0  1  0  0  0  0  0999 V2000
   -0.2937   -5.5663    6.6557 C   0  0  0  0  0  0  0  0  0  0  0  0
    0.5954   -4.3325    6.6075 C   0  0  0  0  0  0  0  0  0  0  0  0
    0.7699   -3.6642    7.6219 O   0  0  0  0  0  0  0  0  0  0  0  0
    1.1206   -4.0228    5.4129 N   0  0  0  0  0  0  0  0  0  0  0  0
    2.0267   -2.8934    5.1663 C   0  0  2  0  0  0  0  0  0  0  0  0
    1.2806   -1.5229    5.1182 C   0  0  2  0  0  0  0  0  0  0  0  0
   -0.2582   -1.4732    5.1466 C   0  0  0  0  0  0  0  0  0  0  0  0
   -0.7042   -0.0185    5.2937 C   0  0  0  0  0  0  0  0  0  0  0  0
   -0.0978    0.9691    4.2451 C   0  0  2  0  0  0  0  0  0  0  0  0
    1.3924    0.6948    3.9441 C   0  0  0  0  0  0  0  0  0  0  0  0
    2.2331    1.7099    3.6806 C   0  0  0  0  0  0  0  0  0  0  0  0
    1.7847    3.0753    3.5837 C   0  0  0  0  0  0  0  0  0  0  0  0
    0.5456    3.4776    3.9251 C   0  0  0  0  0  0  0  0  0  0  0  0
    0.1987    4.9211    3.7247 C   0  0  0  0  0  0  0  0  0  0  0  0
    1.3033    5.9680    3.5901 C   0  0  0  0  0  0  0  0  0  0  0  0
   -0.9593    5.3357    3.6826 O   0  0  0  0  0  0  0  0  0  0  0  0
   -0.4905    2.4822    4.5248 C   0  0  0  0  0  0  0  0  0  0  0  0
   -1.9240    2.6657    3.9471 C   0  0  0  0  0  0  0  0  0  0  0  0
   -0.5317    2.7924    6.0471 C   0  0  0  0  0  0  0  0  0  0  0  0
    1.7325   -0.8062    3.8419 C   0  0  1  0  0  0  0  0  0  0  0  0
    3.1443   -1.4248    3.5466 C   0  0  2  0  0  0  0  0  0  0  0  0
    4.2021   -0.8403    4.5523 C   0  0  0  0  0  0  0  0  0  0  0  0
    3.6922   -1.3166    2.0865 C   0  0  1  0  0  0  0  0  0  0  0  0
    3.9944    0.0063    1.6847 O   0  0  0  0  0  0  0  0  0  0  0  0
    4.9440   -2.2078    1.8129 C   0  0  1  0  0  0  0  0  0  0  0  0
    6.1289   -1.4778    2.0931 O   0  0  0  0  0  0  0  0  0  0  0  0
    5.0271   -3.6146    2.5146 C   0  0  1  0  0  0  0  0  0  0  0  0
    4.1452   -3.7966    3.8062 C   0  0  2  0  0  0  0  0  0  0  0  0
    4.0964   -5.2535    4.3528 C   0  0  0  0  0  0  0  0  0  0  0  0
    4.1522   -6.3780    3.3197 C   0  0  0  0  0  0  0  0  0  0  0  0
    5.2981   -6.1470    2.3344 C   0  0  0  0  0  0  0  0  0  0  0  0
    5.1479   -4.8381    1.5268 C   0  0  0  0  0  0  0  0  0  0  0  0
    3.9694   -4.9914    0.5279 C   0  0  0  0  0  0  0  0  0  0  0  0
    6.4421   -4.7019    0.6878 C   0  0  0  0  0  0  0  0  0  0  0  0
    2.8200   -2.9647    3.8143 C   0  0  1  0  0  0  0  0  0  0  0  0
    1.8503   -3.5989    2.7758 C   0  0  0  0  0  0  0  0  0  0  0  0
   -0.2991   -6.1067    5.7068 H   0  0  0  0  0  0  0  0  0  0  0  0
   -1.3180   -5.2764    6.8904 H   0  0  0  0  0  0  0  0  0  0  0  0
    0.0524   -6.2469    7.4352 H   0  0  0  0  0  0  0  0  0  0  0  0
    0.9337   -4.6235    4.6262 H   0  0  0  0  0  0  0  0  0  0  0  0
    2.7496   -2.8752    5.9860 H   0  0  0  0  0  0  0  0  0  0  0  0
    1.6342   -0.9649    5.9874 H   0  0  0  0  0  0  0  0  0  0  0  0
   -0.6808   -1.9141    4.2394 H   0  0  0  0  0  0  0  0  0  0  0  0
   -0.6725   -2.0198    5.9920 H   0  0  0  0  0  0  0  0  0  0  0  0
   -1.7928    0.0220    5.2728 H   0  0  0  0  0  0  0  0  0  0  0  0
   -0.4066    0.2663    6.3030 H   0  0  0  0  0  0  0  0  0  0  0  0
   -0.5648    0.7041    3.2943 H   0  0  0  0  0  0  0  0  0  0  0  0
    3.2566    1.5457    3.4165 H   0  0  0  0  0  0  0  0  0  0  0  0
    2.5019    3.7598    3.1578 H   0  0  0  0  0  0  0  0  0  0  0  0
    2.0099    5.7245    2.7979 H   0  0  0  0  0  0  0  0  0  0  0  0
    1.8293    6.0890    4.5354 H   0  0  0  0  0  0  0  0  0  0  0  0
    0.8662    6.9293    3.3267 H   0  0  0  0  0  0  0  0  0  0  0  0
   -2.5778    1.8418    4.2272 H   0  0  0  0  0  0  0  0  0  0  0  0
   -1.8884    2.6944    2.8576 H   0  0  0  0  0  0  0  0  0  0  0  0
   -2.4257    3.5621    4.3015 H   0  0  0  0  0  0  0  0  0  0  0  0
   -1.3389    2.2681    6.5659 H   0  0  0  0  0  0  0  0  0  0  0  0
   -0.6848    3.8554    6.2363 H   0  0  0  0  0  0  0  0  0  0  0  0
    0.4157    2.5161    6.5200 H   0  0  0  0  0  0  0  0  0  0  0  0
    1.0983   -1.0952    3.0035 H   0  0  0  0  0  0  0  0  0  0  0  0
    5.1806   -1.3081    4.4625 H   0  0  0  0  0  0  0  0  0  0  0  0
    3.9122   -0.9470    5.5954 H   0  0  0  0  0  0  0  0  0  0  0  0
    4.4095    0.2142    4.4106 H   0  0  0  0  0  0  0  0  0  0  0  0
    2.9124   -1.5958    1.3869 H   0  0  0  0  0  0  0  0  0  0  0  0
    4.3479    0.4664    2.4305 H   0  0  0  0  0  0  0  0  0  0  0  0
    4.9755   -2.3381    0.7360 H   0  0  0  0  0  0  0  0  0  0  0  0
    6.0929   -0.6778    1.5897 H   0  0  0  0  0  0  0  0  0  0  0  0
    6.0240   -3.6279    2.9628 H   0  0  0  0  0  0  0  0  0  0  0  0
    4.7134   -3.3320    4.6063 H   0  0  0  0  0  0  0  0  0  0  0  0
    4.9557   -5.3866    5.0099 H   0  0  0  0  0  0  0  0  0  0  0  0
    3.2332   -5.4134    4.9867 H   0  0  0  0  0  0  0  0  0  0  0  0
    4.3172   -7.3217    3.8383 H   0  0  0  0  0  0  0  0  0  0  0  0
    3.1972   -6.4958    2.8124 H   0  0  0  0  0  0  0  0  0  0  0  0
    6.2271   -6.1194    2.9005 H   0  0  0  0  0  0  0  0  0  0  0  0
    5.3792   -7.0053    1.6643 H   0  0  0  0  0  0  0  0  0  0  0  0
    4.1994   -5.7508   -0.2215 H   0  0  0  0  0  0  0  0  0  0  0  0
    3.7510   -4.0681   -0.0065 H   0  0  0  0  0  0  0  0  0  0  0  0
    3.0525   -5.3225    1.0100 H   0  0  0  0  0  0  0  0  0  0  0  0
    6.6087   -5.5984    0.0850 H   0  0  0  0  0  0  0  0  0  0  0  0
    7.3175   -4.5732    1.3307 H   0  0  0  0  0  0  0  0  0  0  0  0
    6.4054   -3.8561    0.0047 H   0  0  0  0  0  0  0  0  0  0  0  0
    2.1712   -3.4689    1.7501 H   0  0  0  0  0  0  0  0  0  0  0  0
    0.8392   -3.1938    2.8533 H   0  0  0  0  0  0  0  0  0  0  0  0
    1.7588   -4.6712    2.9267 H   0  0  0  0  0  0  0  0  0  0  0  0
  1  2  1  0
  1 37  1  0
  1 38  1  0
  1 39  1  0
  2  3  2  0
  2  4  1  0
  4  5  1  0
  4 40  1  0
  5 35  1  0
  5  6  1  0
  5 41  1  1
  6 20  1  0
  6  7  1  0
  6 42  1  1
  7  8  1  0
  7 43  1  0
  7 44  1  0
  8  9  1  0
  8 45  1  0
  8 46  1  0
  9 17  1  0
  9 10  1  0
  9 47  1  6
 10 11  2  0
 10 20  1  0
 11 12  1  0
 11 48  1  0
 12 13  2  0
 12 49  1  0
 13 14  1  0
 13 17  1  0
 14 15  1  0
 14 16  2  0
 15 50  1  0
 15 51  1  0
 15 52  1  0
 17 18  1  0
 17 19  1  0
 18 53  1  0
 18 54  1  0
 18 55  1  0
 19 56  1  0
 19 57  1  0
 19 58  1  0
 20 21  1  0
 20 59  1  6
 21 35  1  0
 21 22  1  1
 21 23  1  0
 22 60  1  0
 22 61  1  0
 22 62  1  0
 23 24  1  0
 23 25  1  0
 23 63  1  6
 24 64  1  0
 25 26  1  0
 25 27  1  0
 25 65  1  6
 26 66  1  0
 27 32  1  0
 27 28  1  0
 27 67  1  1
 28 29  1  0
 28 35  1  0
 28 68  1  1
 29 30  1  0
 29 69  1  0
 29 70  1  0
 30 31  1  0
 30 71  1  0
 30 72  1  0
 31 32  1  0
 31 73  1  0
 31 74  1  0
 32 33  1  0
 32 34  1  0
 33 75  1  0
 33 76  1  0
 33 77  1  0
 34 78  1  0
 34 79  1  0
 34 80  1  0
 35 36  1  6
 36 81  1  0
 36 82  1  0
 36 83  1  0
M  END
>  <i_m_ct_stereo_status>  (405) 
1

>  <s_m_source_file>  (405) 
/var/tmp/pbs.5076255.sched01/tmpfsvwwkaa/138cw1meju8.sdf

>  <i_m_source_file_index>  (405) 
38

>  <i_lp_mmshare_version>  (405) 
48012

>  <i_f3d_flags>  (405) 
0

>  <s_epik_input>  (405) 
W0NIMl0xW0NIMl1bQ0gyXUMoW0NIM10pKFtDSDNdKVtDQEBIXShbQ0BIXShbT0hdKVtDQEBIXTJbT0hdKVtDQEhdMVtDQEBdMyhbQ0gzXSlbQ0BIXShbTkhdQyg9TylbQ0gzXSlbQ0BASF0oW0NAQEhdNFtDQF0yM1tDSDNdKVtDSDJdW0NIMl1bQ0BASF01QzQ9W0NIXVtDSF09QyhDKD1PKVtDSDNdKUM1KFtDSDNdKVtDSDNd

>  <s_epik_cmdline>  (405) 
J2VwaWtfcHl0aG9uJywgJy1waHQnLCAnMi4wJywgJy1waCcsICc3LjAnLCAnLXRuJywgJzgnLCAnLW1hJywgJzIwMCcsICctaW1hZScsICc8aW5maWxlLm1hZT4nLCAnLW9tYWUnLCAnPG91dGZpbGUubWFlPic=

>  <r_lp_tautomer_probability>  (405) 
1

>  <r_epik_Ionization_Penalty>  (405) 
2.3721e-06

>  <r_epik_Ionization_Penalty_Charging>  (405) 
0

>  <r_epik_Ionization_Penalty_Neutral>  (405) 
2.3721e-06

>  <r_epik_State_Penalty>  (405) 
-0

>  <r_epik_Charging_Adjusted_Penalty>  (405) 
0

>  <i_epik_Tot_Q>  (405) 
0

>  <i_epik_Tot_abs_Q>  (405) 
0

>  <s_lp_Force_Field>  (405) 
OPLS3e

>  <r_lp_Energy>  (405) 
93.3507

>  <b_lp_Chiralities_Consistent>  (405) 
1

>  <s_lp_Variant>  (405) 
116:0-1

>  <s_i_glide_gridfile>  (405) 
pfpi4k_grid

>  <i_i_glide_lignum>  (405) 
38

>  <i_i_glide_rotatable_bonds>  (405) 
5

>  <r_i_docking_score>  (405) 
-2.77966

>  <r_i_glide_ligand_efficiency>  (405) 
-0.0772128

>  <r_i_glide_ligand_efficiency_sa>  (405) 
-0.254951

>  <r_i_glide_ligand_efficiency_ln>  (405) 
-0.606447

>  <r_i_glide_gscore>  (405) 
-2.77966

>  <r_i_glide_lipo>  (405) 
-0.302598

>  <r_i_glide_hbond>  (405) 
-0.124828

>  <r_i_glide_metal>  (405) 
-0

>  <r_i_glide_rewards>  (405) 
-0.0156192

>  <r_i_glide_evdw>  (405) 
-29.4526

>  <r_i_glide_ecoul>  (405) 
-5.62276

>  <r_i_glide_erotb>  (405) 
0.082357

>  <r_i_glide_esite>  (405) 
-0.10293

>  <r_i_glide_emodel>  (405) 
-40.4138

>  <r_i_glide_energy>  (405) 
-35.0753

>  <r_i_glide_einternal>  (405) 
2.42681

>  <r_i_glide_intrahb_reward>  (405) 
-0

>  <i_i_glide_confnum>  (405) 
3

>  <i_i_glide_posenum>  (405) 
22

>  <r_i_glide_eff_state_penalty>  (405) 
0

>  <ligand_id>  (405) 
116

>  <original_smiles>  (405) 
CC(=O)NC1C2CCC3C(=CC=C(C(C)=O)C3(C)C)C2C2(C)C(O)C(O)C3C(CCCC3(C)C)C12C

>  <smiles>  (405) 
[H]OC1([H])C([H])(O[H])C2(C([H])([H])[H])C3([H])C4=C([H])C([H])=C(C(=O)C([H])([H])[H])C(C([H])([H])[H])(C([H])([H])[H])C4([H])C([H])([H])C([H])([H])C3([H])C([H])(N([H])C(=O)C([H])([H])[H])C2(C([H])([H])[H])C2([H])C([H])([H])C([H])([H])C([H])([H])C(C([H])([H])[H])(C([H])([H])[H])C12[H]

$$$$
116:0:1
     RDKit          3D

 83 87  0  0  1  0  0  0  0  0999 V2000
    3.2450   -5.2087    8.0562 C   0  0  0  0  0  0  0  0  0  0  0  0
    3.8054   -4.0000    7.3175 C   0  0  0  0  0  0  0  0  0  0  0  0
    4.6967   -3.3243    7.8323 O   0  0  0  0  0  0  0  0  0  0  0  0
    3.2703   -3.7288    6.1168 N   0  0  0  0  0  0  0  0  0  0  0  0
    3.6794   -2.6196    5.2523 C   0  0  2  0  0  0  0  0  0  0  0  0
    2.8315   -1.3371    5.5054 C   0  0  2  0  0  0  0  0  0  0  0  0
    1.6079   -1.3939    6.4363 C   0  0  0  0  0  0  0  0  0  0  0  0
    1.0843    0.0339    6.6493 C   0  0  0  0  0  0  0  0  0  0  0  0
    0.8073    0.8463    5.3374 C   0  0  2  0  0  0  0  0  0  0  0  0
    1.8808    0.6242    4.2477 C   0  0  0  0  0  0  0  0  0  0  0  0
    2.2332    1.6252    3.4215 C   0  0  0  0  0  0  0  0  0  0  0  0
    1.5933    2.9111    3.4512 C   0  0  0  0  0  0  0  0  0  0  0  0
    0.7232    3.2821    4.4123 C   0  0  0  0  0  0  0  0  0  0  0  0
    0.0817    4.6322    4.2957 C   0  0  0  0  0  0  0  0  0  0  0  0
    0.7628    5.7399    3.4876 C   0  0  0  0  0  0  0  0  0  0  0  0
   -0.9860    4.9344    4.8169 O   0  0  0  0  0  0  0  0  0  0  0  0
    0.3931    2.3557    5.6178 C   0  0  0  0  0  0  0  0  0  0  0  0
   -1.1212    2.3298    5.9816 C   0  0  0  0  0  0  0  0  0  0  0  0
    1.1714    2.9462    6.8245 C   0  0  0  0  0  0  0  0  0  0  0  0
    2.3446   -0.8399    4.1356 C   0  0  1  0  0  0  0  0  0  0  0  0
    3.4170   -1.4079    3.1416 C   0  0  2  0  0  0  0  0  0  0  0  0
    4.7422   -0.5763    3.2609 C   0  0  0  0  0  0  0  0  0  0  0  0
    3.0208   -1.5357    1.6334 C   0  0  1  0  0  0  0  0  0  0  0  0
    2.7827   -0.3133    0.9551 O   0  0  0  0  0  0  0  0  0  0  0  0
    4.0225   -2.3827    0.7840 C   0  0  1  0  0  0  0  0  0  0  0  0
    5.0235   -1.5442    0.2314 O   0  0  0  0  0  0  0  0  0  0  0  0
    4.7249   -3.6157    1.4650 C   0  0  1  0  0  0  0  0  0  0  0  0
    4.7587   -3.6121    3.0360 C   0  0  2  0  0  0  0  0  0  0  0  0
    5.2694   -4.9408    3.6661 C   0  0  0  0  0  0  0  0  0  0  0  0
    4.9180   -6.2361    2.9356 C   0  0  0  0  0  0  0  0  0  0  0  0
    5.2461   -6.1141    1.4495 C   0  0  0  0  0  0  0  0  0  0  0  0
    4.4544   -4.9894    0.7468 C   0  0  0  0  0  0  0  0  0  0  0  0
    2.9627   -5.3982    0.6591 C   0  0  0  0  0  0  0  0  0  0  0  0
    5.0041   -4.9183   -0.6953 C   0  0  0  0  0  0  0  0  0  0  0  0
    3.5470   -2.8905    3.7169 C   0  0  1  0  0  0  0  0  0  0  0  0
    2.2705   -3.7744    3.5218 C   0  0  0  0  0  0  0  0  0  0  0  0
    2.5158   -5.7528    7.4528 H   0  0  0  0  0  0  0  0  0  0  0  0
    2.7567   -4.8908    8.9784 H   0  0  0  0  0  0  0  0  0  0  0  0
    4.0499   -5.8965    8.3190 H   0  0  0  0  0  0  0  0  0  0  0  0
    2.5481   -4.3372    5.7619 H   0  0  0  0  0  0  0  0  0  0  0  0
    4.7241   -2.3887    5.4659 H   0  0  0  0  0  0  0  0  0  0  0  0
    3.5168   -0.5990    5.9314 H   0  0  0  0  0  0  0  0  0  0  0  0
    0.8231   -2.0238    6.0149 H   0  0  0  0  0  0  0  0  0  0  0  0
    1.8717   -1.8183    7.4056 H   0  0  0  0  0  0  0  0  0  0  0  0
    0.1891   -0.0036    7.2688 H   0  0  0  0  0  0  0  0  0  0  0  0
    1.8482    0.5280    7.2496 H   0  0  0  0  0  0  0  0  0  0  0  0
   -0.0638    0.3741    4.8803 H   0  0  0  0  0  0  0  0  0  0  0  0
    2.9305    1.4731    2.6254 H   0  0  0  0  0  0  0  0  0  0  0  0
    1.8081    3.5556    2.6137 H   0  0  0  0  0  0  0  0  0  0  0  0
    0.9917    5.4210    2.4765 H   0  0  0  0  0  0  0  0  0  0  0  0
    1.6856    6.0795    3.9625 H   0  0  0  0  0  0  0  0  0  0  0  0
    0.0797    6.5852    3.3930 H   0  0  0  0  0  0  0  0  0  0  0  0
   -1.3606    1.5447    6.6978 H   0  0  0  0  0  0  0  0  0  0  0  0
   -1.7204    2.1500    5.0870 H   0  0  0  0  0  0  0  0  0  0  0  0
   -1.4676    3.2531    6.4453 H   0  0  0  0  0  0  0  0  0  0  0  0
    0.9033    2.4770    7.7731 H   0  0  0  0  0  0  0  0  0  0  0  0
    0.9738    4.0129    6.9438 H   0  0  0  0  0  0  0  0  0  0  0  0
    2.2484    2.8320    6.6773 H   0  0  0  0  0  0  0  0  0  0  0  0
    1.4056   -1.3299    3.8750 H   0  0  0  0  0  0  0  0  0  0  0  0
    5.5584   -0.9808    2.6661 H   0  0  0  0  0  0  0  0  0  0  0  0
    5.1182   -0.4961    4.2795 H   0  0  0  0  0  0  0  0  0  0  0  0
    4.6453    0.4408    2.8987 H   0  0  0  0  0  0  0  0  0  0  0  0
    2.0393   -1.9964    1.5798 H   0  0  0  0  0  0  0  0  0  0  0  0
    2.0660   -0.4504    0.3306 H   0  0  0  0  0  0  0  0  0  0  0  0
    3.4534   -2.7128   -0.0814 H   0  0  0  0  0  0  0  0  0  0  0  0
    4.5679   -0.8154   -0.1742 H   0  0  0  0  0  0  0  0  0  0  0  0
    5.7853   -3.4738    1.2466 H   0  0  0  0  0  0  0  0  0  0  0  0
    5.5905   -2.9654    3.2939 H   0  0  0  0  0  0  0  0  0  0  0  0
    6.3578   -4.8950    3.7040 H   0  0  0  0  0  0  0  0  0  0  0  0
    4.9621   -5.0365    4.7015 H   0  0  0  0  0  0  0  0  0  0  0  0
    5.5052   -7.0495    3.3629 H   0  0  0  0  0  0  0  0  0  0  0  0
    3.8828   -6.5106    3.1061 H   0  0  0  0  0  0  0  0  0  0  0  0
    6.3163   -5.9215    1.3547 H   0  0  0  0  0  0  0  0  0  0  0  0
    5.0706   -7.0733    0.9599 H   0  0  0  0  0  0  0  0  0  0  0  0
    2.8529   -6.2582    0.0033 H   0  0  0  0  0  0  0  0  0  0  0  0
    2.3310   -4.6102    0.2494 H   0  0  0  0  0  0  0  0  0  0  0  0
    2.5497   -5.7059    1.6184 H   0  0  0  0  0  0  0  0  0  0  0  0
    4.9529   -5.8999   -1.1657 H   0  0  0  0  0  0  0  0  0  0  0  0
    6.0503   -4.6080   -0.7097 H   0  0  0  0  0  0  0  0  0  0  0  0
    4.4386   -4.2325   -1.3249 H   0  0  0  0  0  0  0  0  0  0  0  0
    1.9332   -3.8266    2.4949 H   0  0  0  0  0  0  0  0  0  0  0  0
    1.4130   -3.4438    4.1118 H   0  0  0  0  0  0  0  0  0  0  0  0
    2.4685   -4.7984    3.8270 H   0  0  0  0  0  0  0  0  0  0  0  0
  1  2  1  0
  1 37  1  0
  1 38  1  0
  1 39  1  0
  2  3  2  0
  2  4  1  0
  4  5  1  0
  4 40  1  0
  5 35  1  0
  5  6  1  0
  5 41  1  6
  6 20  1  0
  6  7  1  0
  6 42  1  1
  7  8  1  0
  7 43  1  0
  7 44  1  0
  8  9  1  0
  8 45  1  0
  8 46  1  0
  9 17  1  0
  9 10  1  0
  9 47  1  6
 10 11  2  0
 10 20  1  0
 11 12  1  0
 11 48  1  0
 12 13  2  0
 12 49  1  0
 13 14  1  0
 13 17  1  0
 14 15  1  0
 14 16  2  0
 15 50  1  0
 15 51  1  0
 15 52  1  0
 17 18  1  0
 17 19  1  0
 18 53  1  0
 18 54  1  0
 18 55  1  0
 19 56  1  0
 19 57  1  0
 19 58  1  0
 20 21  1  0
 20 59  1  6
 21 35  1  0
 21 22  1  6
 21 23  1  0
 22 60  1  0
 22 61  1  0
 22 62  1  0
 23 24  1  0
 23 25  1  0
 23 63  1  1
 24 64  1  0
 25 26  1  0
 25 27  1  0
 25 65  1  6
 26 66  1  0
 27 32  1  0
 27 28  1  0
 27 67  1  6
 28 29  1  0
 28 35  1  0
 28 68  1  6
 29 30  1  0
 29 69  1  0
 29 70  1  0
 30 31  1  0
 30 71  1  0
 30 72  1  0
 31 32  1  0
 31 73  1  0
 31 74  1  0
 32 33  1  0
 32 34  1  0
 33 75  1  0
 33 76  1  0
 33 77  1  0
 34 78  1  0
 34 79  1  0
 34 80  1  0
 35 36  1  1
 36 81  1  0
 36 82  1  0
 36 83  1  0
M  END
>  <i_m_ct_stereo_status>  (406) 
1

>  <s_m_source_file>  (406) 
/var/tmp/pbs.5076255.sched01/tmpfsvwwkaa/138cw1meju8.sdf

>  <i_m_source_file_index>  (406) 
38

>  <i_lp_mmshare_version>  (406) 
48012

>  <i_f3d_flags>  (406) 
0

>  <s_epik_input>  (406) 
W0NIMl0xW0NIMl1bQ0gyXUMoW0NIM10pKFtDSDNdKVtDQEBIXShbQ0BIXShbT0hdKVtDQEBIXTJbT0hdKVtDQEhdMVtDQEBdMyhbQ0gzXSlbQ0BIXShbTkhdQyg9TylbQ0gzXSlbQ0BASF0oW0NAQEhdNFtDQF0yM1tDSDNdKVtDSDJdW0NIMl1bQ0BASF01QzQ9W0NIXVtDSF09QyhDKD1PKVtDSDNdKUM1KFtDSDNdKVtDSDNd

>  <s_epik_cmdline>  (406) 
J2VwaWtfcHl0aG9uJywgJy1waHQnLCAnMi4wJywgJy1waCcsICc3LjAnLCAnLXRuJywgJzgnLCAnLW1hJywgJzIwMCcsICctaW1hZScsICc8aW5maWxlLm1hZT4nLCAnLW9tYWUnLCAnPG91dGZpbGUubWFlPic=

>  <r_lp_tautomer_probability>  (406) 
1

>  <r_epik_Ionization_Penalty>  (406) 
2.3721e-06

>  <r_epik_Ionization_Penalty_Charging>  (406) 
0

>  <r_epik_Ionization_Penalty_Neutral>  (406) 
2.3721e-06

>  <r_epik_State_Penalty>  (406) 
-0

>  <r_epik_Charging_Adjusted_Penalty>  (406) 
0

>  <i_epik_Tot_Q>  (406) 
0

>  <i_epik_Tot_abs_Q>  (406) 
0

>  <s_lp_Force_Field>  (406) 
OPLS3e

>  <r_lp_Energy>  (406) 
93.3507

>  <b_lp_Chiralities_Consistent>  (406) 
1

>  <s_lp_Variant>  (406) 
116:0-1

>  <s_i_glide_gridfile>  (406) 
pfpi4k_grid

>  <i_i_glide_lignum>  (406) 
38

>  <i_i_glide_rotatable_bonds>  (406) 
5

>  <r_i_docking_score>  (406) 
-2.72996

>  <r_i_glide_ligand_efficiency>  (406) 
-0.0758322

>  <r_i_glide_ligand_efficiency_sa>  (406) 
-0.250392

>  <r_i_glide_ligand_efficiency_ln>  (406) 
-0.595603

>  <r_i_glide_gscore>  (406) 
-2.72996

>  <r_i_glide_lipo>  (406) 
-0.269618

>  <r_i_glide_hbond>  (406) 
-0.0338004

>  <r_i_glide_metal>  (406) 
-0

>  <r_i_glide_rewards>  (406) 
-0.0156192

>  <r_i_glide_evdw>  (406) 
-25.7106

>  <r_i_glide_ecoul>  (406) 
-7.65816

>  <r_i_glide_erotb>  (406) 
0.082357

>  <r_i_glide_esite>  (406) 
-0.0590216

>  <r_i_glide_emodel>  (406) 
-38.6203

>  <r_i_glide_energy>  (406) 
-33.3688

>  <r_i_glide_einternal>  (406) 
2.35993

>  <r_i_glide_intrahb_reward>  (406) 
-0

>  <i_i_glide_confnum>  (406) 
1

>  <i_i_glide_posenum>  (406) 
16

>  <r_i_glide_eff_state_penalty>  (406) 
0

>  <ligand_id>  (406) 
116

>  <original_smiles>  (406) 
CC(=O)NC1C2CCC3C(=CC=C(C(C)=O)C3(C)C)C2C2(C)C(O)C(O)C3C(CCCC3(C)C)C12C

>  <smiles>  (406) 
[H]OC1([H])C([H])(O[H])C2(C([H])([H])[H])C3([H])C4=C([H])C([H])=C(C(=O)C([H])([H])[H])C(C([H])([H])[H])(C([H])([H])[H])C4([H])C([H])([H])C([H])([H])C3([H])C([H])(N([H])C(=O)C([H])([H])[H])C2(C([H])([H])[H])C2([H])C([H])([H])C([H])([H])C([H])([H])C(C([H])([H])[H])(C([H])([H])[H])C12[H]

$$$$
116:0:2
     RDKit          3D

 83 87  0  0  1  0  0  0  0  0999 V2000
    1.0525   -5.4233    8.0083 C   0  0  0  0  0  0  0  0  0  0  0  0
    1.8597   -4.2421    7.4871 C   0  0  0  0  0  0  0  0  0  0  0  0
    2.4795   -3.5290    8.2743 O   0  0  0  0  0  0  0  0  0  0  0  0
    1.8247   -4.0270    6.1651 N   0  0  0  0  0  0  0  0  0  0  0  0
    2.5289   -2.9372    5.4770 C   0  0  2  0  0  0  0  0  0  0  0  0
    1.7222   -1.6025    5.4989 C   0  0  2  0  0  0  0  0  0  0  0  0
    0.2838   -1.5802    6.0362 C   0  0  0  0  0  0  0  0  0  0  0  0
   -0.1871   -0.1221    6.1209 C   0  0  0  0  0  0  0  0  0  0  0  0
   -0.0306    0.7115    4.8042 C   0  0  2  0  0  0  0  0  0  0  0  0
    1.2923    0.4221    4.0629 C   0  0  0  0  0  0  0  0  0  0  0  0
    1.9244    1.4023    3.3952 C   0  0  0  0  0  0  0  0  0  0  0  0
    1.3849    2.7296    3.2662 C   0  0  0  0  0  0  0  0  0  0  0  0
    0.2972    3.1578    3.9445 C   0  0  0  0  0  0  0  0  0  0  0  0
   -0.1859    4.5547    3.6789 C   0  0  0  0  0  0  0  0  0  0  0  0
    0.8121    5.6494    3.2938 C   0  0  0  0  0  0  0  0  0  0  0  0
   -1.3673    4.9047    3.7522 O   0  0  0  0  0  0  0  0  0  0  0  0
   -0.4087    2.2474    4.9861 C   0  0  0  0  0  0  0  0  0  0  0  0
   -1.9543    2.3287    4.8995 C   0  0  0  0  0  0  0  0  0  0  0  0
    0.0302    2.7778    6.3753 C   0  0  0  0  0  0  0  0  0  0  0  0
    1.6824   -1.0714    4.0603 C   0  0  1  0  0  0  0  0  0  0  0  0
    2.9584   -1.7092    3.4053 C   0  0  2  0  0  0  0  0  0  0  0  0
    4.2462   -0.9659    3.9093 C   0  0  0  0  0  0  0  0  0  0  0  0
    3.0009   -1.8086    1.8480 C   0  0  1  0  0  0  0  0  0  0  0  0
    3.0076   -0.5611    1.1827 O   0  0  0  0  0  0  0  0  0  0  0  0
    4.1516   -2.7131    1.2982 C   0  0  1  0  0  0  0  0  0  0  0  0
    5.3393   -1.9657    1.0848 O   0  0  0  0  0  0  0  0  0  0  0  0
    4.5468   -3.9989    2.1221 C   0  0  1  0  0  0  0  0  0  0  0  0
    4.1351   -3.9977    3.6391 C   0  0  2  0  0  0  0  0  0  0  0  0
    4.3675   -5.3543    4.3628 C   0  0  0  0  0  0  0  0  0  0  0  0
    4.1586   -6.6227    3.5348 C   0  0  0  0  0  0  0  0  0  0  0  0
    4.9026   -6.5259    2.2034 C   0  0  0  0  0  0  0  0  0  0  0  0
    4.4103   -5.3513    1.3263 C   0  0  0  0  0  0  0  0  0  0  0  0
    2.9871   -5.6696    0.8113 C   0  0  0  0  0  0  0  0  0  0  0  0
    5.3435   -5.3141    0.0922 C   0  0  0  0  0  0  0  0  0  0  0  0
    2.8280   -3.1982    3.9627 C   0  0  1  0  0  0  0  0  0  0  0  0
    1.6127   -4.0003    3.3968 C   0  0  0  0  0  0  0  0  0  0  0  0
    0.6095   -6.0035    7.1960 H   0  0  0  0  0  0  0  0  0  0  0  0
    0.2451   -5.0671    8.6516 H   0  0  0  0  0  0  0  0  0  0  0  0
    1.6868   -6.0867    8.5958 H   0  0  0  0  0  0  0  0  0  0  0  0
    1.3035   -4.6639    5.5846 H   0  0  0  0  0  0  0  0  0  0  0  0
    3.4811   -2.7800    5.9905 H   0  0  0  0  0  0  0  0  0  0  0  0
    2.3030   -0.9160    6.1166 H   0  0  0  0  0  0  0  0  0  0  0  0
   -0.3842   -2.1612    5.3975 H   0  0  0  0  0  0  0  0  0  0  0  0
    0.2257   -2.0153    7.0337 H   0  0  0  0  0  0  0  0  0  0  0  0
   -1.2222   -0.1024    6.4558 H   0  0  0  0  0  0  0  0  0  0  0  0
    0.4001    0.3175    6.9237 H   0  0  0  0  0  0  0  0  0  0  0  0
   -0.7604    0.2953    4.1091 H   0  0  0  0  0  0  0  0  0  0  0  0
    2.8157    1.2107    2.8317 H   0  0  0  0  0  0  0  0  0  0  0  0
    1.8554    3.3649    2.5356 H   0  0  0  0  0  0  0  0  0  0  0  0
    1.4280    5.3622    2.4412 H   0  0  0  0  0  0  0  0  0  0  0  0
    1.4566    5.8992    4.1364 H   0  0  0  0  0  0  0  0  0  0  0  0
    0.2701    6.5473    2.9976 H   0  0  0  0  0  0  0  0  0  0  0  0
   -2.4334    1.5715    5.5162 H   0  0  0  0  0  0  0  0  0  0  0  0
   -2.2879    2.1724    3.8733 H   0  0  0  0  0  0  0  0  0  0  0  0
   -2.3519    3.2816    5.2479 H   0  0  0  0  0  0  0  0  0  0  0  0
   -0.5259    2.3241    7.1986 H   0  0  0  0  0  0  0  0  0  0  0  0
   -0.1231    3.8530    6.4620 H   0  0  0  0  0  0  0  0  0  0  0  0
    1.0932    2.5899    6.5409 H   0  0  0  0  0  0  0  0  0  0  0  0
    0.8328   -1.5021    3.5314 H   0  0  0  0  0  0  0  0  0  0  0  0
    5.1689   -1.4210    3.5640 H   0  0  0  0  0  0  0  0  0  0  0  0
    4.3191   -0.9110    4.9935 H   0  0  0  0  0  0  0  0  0  0  0  0
    4.3205    0.0540    3.5521 H   0  0  0  0  0  0  0  0  0  0  0  0
    2.0558   -2.2128    1.5038 H   0  0  0  0  0  0  0  0  0  0  0  0
    2.4243   -0.6155    0.4349 H   0  0  0  0  0  0  0  0  0  0  0  0
    3.8388   -3.0002    0.2958 H   0  0  0  0  0  0  0  0  0  0  0  0
    5.9493   -2.5151    0.6169 H   0  0  0  0  0  0  0  0  0  0  0  0
    5.6329   -3.9415    2.2250 H   0  0  0  0  0  0  0  0  0  0  0  0
    4.9017   -3.4085    4.1315 H   0  0  0  0  0  0  0  0  0  0  0  0
    5.4007   -5.3743    4.7075 H   0  0  0  0  0  0  0  0  0  0  0  0
    3.7727   -5.4334    5.2670 H   0  0  0  0  0  0  0  0  0  0  0  0
    4.5461   -7.4770    4.0933 H   0  0  0  0  0  0  0  0  0  0  0  0
    3.1013   -6.8331    3.3954 H   0  0  0  0  0  0  0  0  0  0  0  0
    5.9640   -6.3991    2.4177 H   0  0  0  0  0  0  0  0  0  0  0  0
    4.8160   -7.4713    1.6662 H   0  0  0  0  0  0  0  0  0  0  0  0
    3.0209   -6.5271    0.1390 H   0  0  0  0  0  0  0  0  0  0  0  0
    2.5462   -4.8454    0.2505 H   0  0  0  0  0  0  0  0  0  0  0  0
    2.2973   -5.9469    1.6037 H   0  0  0  0  0  0  0  0  0  0  0  0
    5.3490   -6.2822   -0.4079 H   0  0  0  0  0  0  0  0  0  0  0  0
    6.3728   -5.0911    0.3745 H   0  0  0  0  0  0  0  0  0  0  0  0
    5.0300   -4.5808   -0.6540 H   0  0  0  0  0  0  0  0  0  0  0  0
    1.5871   -4.0299    2.3164 H   0  0  0  0  0  0  0  0  0  0  0  0
    0.6440   -3.6155    3.7171 H   0  0  0  0  0  0  0  0  0  0  0  0
    1.6467   -5.0369    3.7227 H   0  0  0  0  0  0  0  0  0  0  0  0
  1  2  1  0
  1 37  1  0
  1 38  1  0
  1 39  1  0
  2  3  2  0
  2  4  1  0
  4  5  1  0
  4 40  1  0
  5 35  1  0
  5  6  1  0
  5 41  1  1
  6 20  1  0
  6  7  1  0
  6 42  1  1
  7  8  1  0
  7 43  1  0
  7 44  1  0
  8  9  1  0
  8 45  1  0
  8 46  1  0
  9 17  1  0
  9 10  1  0
  9 47  1  6
 10 11  2  0
 10 20  1  0
 11 12  1  0
 11 48  1  0
 12 13  2  0
 12 49  1  0
 13 14  1  0
 13 17  1  0
 14 15  1  0
 14 16  2  0
 15 50  1  0
 15 51  1  0
 15 52  1  0
 17 18  1  0
 17 19  1  0
 18 53  1  0
 18 54  1  0
 18 55  1  0
 19 56  1  0
 19 57  1  0
 19 58  1  0
 20 21  1  0
 20 59  1  6
 21 35  1  0
 21 22  1  1
 21 23  1  0
 22 60  1  0
 22 61  1  0
 22 62  1  0
 23 24  1  0
 23 25  1  0
 23 63  1  6
 24 64  1  0
 25 26  1  0
 25 27  1  0
 25 65  1  6
 26 66  1  0
 27 32  1  0
 27 28  1  0
 27 67  1  1
 28 29  1  0
 28 35  1  0
 28 68  1  1
 29 30  1  0
 29 69  1  0
 29 70  1  0
 30 31  1  0
 30 71  1  0
 30 72  1  0
 31 32  1  0
 31 73  1  0
 31 74  1  0
 32 33  1  0
 32 34  1  0
 33 75  1  0
 33 76  1  0
 33 77  1  0
 34 78  1  0
 34 79  1  0
 34 80  1  0
 35 36  1  6
 36 81  1  0
 36 82  1  0
 36 83  1  0
M  END
>  <i_m_ct_stereo_status>  (407) 
1

>  <s_m_source_file>  (407) 
/var/tmp/pbs.5076255.sched01/tmpfsvwwkaa/138cw1meju8.sdf

>  <i_m_source_file_index>  (407) 
38

>  <i_lp_mmshare_version>  (407) 
48012

>  <i_f3d_flags>  (407) 
0

>  <s_epik_input>  (407) 
W0NIMl0xW0NIMl1bQ0gyXUMoW0NIM10pKFtDSDNdKVtDQEBIXShbQ0BIXShbT0hdKVtDQEBIXTJbT0hdKVtDQEhdMVtDQEBdMyhbQ0gzXSlbQ0BIXShbTkhdQyg9TylbQ0gzXSlbQ0BASF0oW0NAQEhdNFtDQF0yM1tDSDNdKVtDSDJdW0NIMl1bQ0BASF01QzQ9W0NIXVtDSF09QyhDKD1PKVtDSDNdKUM1KFtDSDNdKVtDSDNd

>  <s_epik_cmdline>  (407) 
J2VwaWtfcHl0aG9uJywgJy1waHQnLCAnMi4wJywgJy1waCcsICc3LjAnLCAnLXRuJywgJzgnLCAnLW1hJywgJzIwMCcsICctaW1hZScsICc8aW5maWxlLm1hZT4nLCAnLW9tYWUnLCAnPG91dGZpbGUubWFlPic=

>  <r_lp_tautomer_probability>  (407) 
1

>  <r_epik_Ionization_Penalty>  (407) 
2.3721e-06

>  <r_epik_Ionization_Penalty_Charging>  (407) 
0

>  <r_epik_Ionization_Penalty_Neutral>  (407) 
2.3721e-06

>  <r_epik_State_Penalty>  (407) 
-0

>  <r_epik_Charging_Adjusted_Penalty>  (407) 
0

>  <i_epik_Tot_Q>  (407) 
0

>  <i_epik_Tot_abs_Q>  (407) 
0

>  <s_lp_Force_Field>  (407) 
OPLS3e

>  <r_lp_Energy>  (407) 
93.3507

>  <b_lp_Chiralities_Consistent>  (407) 
1

>  <s_lp_Variant>  (407) 
116:0-1

>  <s_i_glide_gridfile>  (407) 
pfpi4k_grid

>  <i_i_glide_lignum>  (407) 
38

>  <i_i_glide_rotatable_bonds>  (407) 
5

>  <r_i_docking_score>  (407) 
-2.6946

>  <r_i_glide_ligand_efficiency>  (407) 
-0.0748499

>  <r_i_glide_ligand_efficiency_sa>  (407) 
-0.247149

>  <r_i_glide_ligand_efficiency_ln>  (407) 
-0.587888

>  <r_i_glide_gscore>  (407) 
-2.6946

>  <r_i_glide_lipo>  (407) 
-0.141565

>  <r_i_glide_hbond>  (407) 
-0.154208

>  <r_i_glide_metal>  (407) 
-0

>  <r_i_glide_rewards>  (407) 
-0.0156192

>  <r_i_glide_evdw>  (407) 
-26.8788

>  <r_i_glide_ecoul>  (407) 
-6.81065

>  <r_i_glide_erotb>  (407) 
0.082357

>  <r_i_glide_esite>  (407) 
-0.100025

>  <r_i_glide_emodel>  (407) 
-38.5044

>  <r_i_glide_energy>  (407) 
-33.6894

>  <r_i_glide_einternal>  (407) 
3.26018

>  <r_i_glide_intrahb_reward>  (407) 
-0

>  <i_i_glide_confnum>  (407) 
3

>  <i_i_glide_posenum>  (407) 
13

>  <r_i_glide_eff_state_penalty>  (407) 
0

>  <ligand_id>  (407) 
116

>  <original_smiles>  (407) 
CC(=O)NC1C2CCC3C(=CC=C(C(C)=O)C3(C)C)C2C2(C)C(O)C(O)C3C(CCCC3(C)C)C12C

>  <smiles>  (407) 
[H]OC1([H])C([H])(O[H])C2(C([H])([H])[H])C3([H])C4=C([H])C([H])=C(C(=O)C([H])([H])[H])C(C([H])([H])[H])(C([H])([H])[H])C4([H])C([H])([H])C([H])([H])C3([H])C([H])(N([H])C(=O)C([H])([H])[H])C2(C([H])([H])[H])C2([H])C([H])([H])C([H])([H])C([H])([H])C(C([H])([H])[H])(C([H])([H])[H])C12[H]

$$$$
117:0:0
     RDKit          3D

 70 78  0  0  1  0  0  0  0  0999 V2000
    6.7737   -8.2194    7.4528 C   0  0  0  0  0  0  0  0  0  0  0  0
    7.6957   -7.7023    6.3295 C   0  0  0  0  0  0  0  0  0  0  0  0
    7.0235   -6.7647    5.3819 N   0  0  2  0  0  0  0  0  0  0  0  0
    6.6499   -5.4764    6.0280 C   0  0  0  0  0  0  0  0  0  0  0  0
    5.9756   -7.3806    4.4967 C   0  0  2  0  0  0  0  0  0  0  0  0
    6.5408   -8.4921    3.4954 C   0  0  1  0  0  0  0  0  0  0  0  0
    5.9536   -9.8141    4.0629 C   0  0  0  0  0  0  0  0  0  0  0  0
    4.4232   -9.9460    3.7762 C   0  0  2  0  0  0  0  0  0  0  0  0
    3.7927  -11.0526    4.5218 N   0  0  0  0  0  0  0  0  0  0  0  0
    4.3643  -10.0808    2.3012 C   0  0  0  0  0  0  0  0  0  0  0  0
    4.6792   -8.6339    1.8450 C   0  0  2  0  0  0  0  0  0  0  0  0
    4.1757   -8.7499    0.5246 O   0  0  0  0  0  0  0  0  0  0  0  0
    6.1445   -8.2714    1.9108 C   0  0  1  0  0  0  0  0  0  0  0  0
    6.2238   -6.7733    1.3155 C   0  0  1  0  0  0  0  0  0  0  0  0
    5.0233   -6.1653    0.4034 C   0  0  2  0  0  0  0  0  0  0  0  0
    5.0103   -4.6507    0.0095 C   0  0  1  0  0  0  0  0  0  0  0  0
    4.6196   -4.2865   -1.3015 O   0  0  0  0  0  0  0  0  0  0  0  0
    3.9970   -4.4538    1.1224 C   0  0  1  0  0  0  0  0  0  0  0  0
    3.2688   -3.2102    1.6173 C   0  0  0  0  0  0  0  0  0  0  0  0
    3.5832   -2.9039    3.1154 C   0  0  2  0  0  0  0  0  0  0  0  0
    4.9966   -2.8290    3.6372 C   0  0  0  0  0  0  0  0  0  0  0  0
    4.0769   -3.8929    4.2242 C   0  0  2  0  0  0  0  0  0  0  0  0
    4.0216   -5.4607    4.1069 C   0  0  1  0  0  0  0  0  0  0  0  0
    2.6735   -5.7962    3.4164 C   0  0  0  0  0  0  0  0  0  0  0  0
    3.0226   -6.6897    2.2327 C   0  0  1  0  0  0  0  0  0  0  0  0
    3.5632   -5.9079    0.9896 C   0  0  2  0  0  0  0  0  0  0  0  0
    4.0930   -7.5791    2.8595 C   0  0  1  0  0  0  0  0  0  0  0  0
    3.5634   -8.6620    3.8688 C   0  0  0  0  0  0  0  0  0  0  0  0
    2.6480   -8.5371    4.6720 O   0  0  0  0  0  0  0  0  0  0  0  0
    5.1414   -6.4860    3.5440 C   0  0  2  0  0  0  0  0  0  0  0  0
    6.3117   -5.9415    2.5668 C   0  0  1  0  0  0  0  0  0  0  0  0
    7.6741   -5.9289    2.9712 O   0  0  0  0  0  0  0  0  0  0  0  0
    7.3613   -8.7995    8.1671 H   0  0  0  0  0  0  0  0  0  0  0  0
    5.9810   -8.8776    7.0752 H   0  0  0  0  0  0  0  0  0  0  0  0
    6.2772   -7.4138    8.0144 H   0  0  0  0  0  0  0  0  0  0  0  0
    8.5356   -7.1685    6.7644 H   0  0  0  0  0  0  0  0  0  0  0  0
    8.1345   -8.5455    5.7975 H   0  0  0  0  0  0  0  0  0  0  0  0
    5.7928   -5.5964    6.6815 H   0  0  0  0  0  0  0  0  0  0  0  0
    6.4237   -4.7189    5.2858 H   0  0  0  0  0  0  0  0  0  0  0  0
    7.4909   -5.1166    6.6091 H   0  0  0  0  0  0  0  0  0  0  0  0
    5.3151   -7.7545    5.2673 H   0  0  0  0  0  0  0  0  0  0  0  0
    7.6305   -8.5345    3.5388 H   0  0  0  0  0  0  0  0  0  0  0  0
    6.4832  -10.6596    3.6068 H   0  0  0  0  0  0  0  0  0  0  0  0
    6.1544   -9.9005    5.1320 H   0  0  0  0  0  0  0  0  0  0  0  0
    4.2761  -11.9210    4.3435 H   0  0  0  0  0  0  0  0  0  0  0  0
    2.8253  -11.1502    4.2532 H   0  0  0  0  0  0  0  0  0  0  0  0
    5.0772  -10.8088    1.9032 H   0  0  0  0  0  0  0  0  0  0  0  0
    3.3605  -10.3909    1.9959 H   0  0  0  0  0  0  0  0  0  0  0  0
    4.2919   -7.9111    0.1076 H   0  0  0  0  0  0  0  0  0  0  0  0
    6.7038   -8.9617    1.2749 H   0  0  0  0  0  0  0  0  0  0  0  0
    7.1627   -6.6720    0.7664 H   0  0  0  0  0  0  0  0  0  0  0  0
    4.9368   -6.6802   -0.5521 H   0  0  0  0  0  0  0  0  0  0  0  0
    5.9575   -4.1701    0.2532 H   0  0  0  0  0  0  0  0  0  0  0  0
    3.9370   -4.8845   -1.6020 H   0  0  0  0  0  0  0  0  0  0  0  0
    4.6040   -4.5190    1.9391 H   0  0  0  0  0  0  0  0  0  0  0  0
    3.5560   -2.3360    1.0278 H   0  0  0  0  0  0  0  0  0  0  0  0
    2.1878   -3.3094    1.4922 H   0  0  0  0  0  0  0  0  0  0  0  0
    2.9360   -2.1161    3.4787 H   0  0  0  0  0  0  0  0  0  0  0  0
    5.8117   -3.0511    2.9606 H   0  0  0  0  0  0  0  0  0  0  0  0
    5.1779   -1.9815    4.2854 H   0  0  0  0  0  0  0  0  0  0  0  0
    3.7040   -3.6066    5.2052 H   0  0  0  0  0  0  0  0  0  0  0  0
    3.8804   -5.7717    5.1417 H   0  0  0  0  0  0  0  0  0  0  0  0
    2.0213   -6.2981    4.1268 H   0  0  0  0  0  0  0  0  0  0  0  0
    2.0729   -4.9433    3.1122 H   0  0  0  0  0  0  0  0  0  0  0  0
    2.1516   -7.2837    1.9494 H   0  0  0  0  0  0  0  0  0  0  0  0
    2.8534   -5.9581    0.1635 H   0  0  0  0  0  0  0  0  0  0  0  0
    6.3779   -4.8927    2.3543 H   0  0  0  0  0  0  0  0  0  0  0  0
    7.8407   -5.1133    3.4381 H   0  0  0  0  0  0  0  0  0  0  0  0
    7.7625   -6.5511    4.7150 H   0  0  0  0  0  0  0  0  0  0  0  0
    3.8184  -10.8471    5.5072 H   0  0  0  0  0  0  0  0  0  0  0  0
  1  2  1  0
  1 33  1  0
  1 34  1  0
  1 35  1  0
  2  3  1  0
  2 36  1  0
  2 37  1  0
  3  4  1  0
  3  5  1  0
  3 69  1  6
  4 38  1  0
  4 39  1  0
  4 40  1  0
  5 30  1  0
  5  6  1  0
  5 41  1  1
  6 13  1  0
  6  7  1  0
  6 42  1  6
  7  8  1  0
  7 43  1  0
  7 44  1  0
  8 28  1  0
  8  9  1  1
  8 10  1  0
  9 45  1  0
  9 46  1  0
  9 70  1  0
 10 11  1  0
 10 47  1  0
 10 48  1  0
 11 27  1  0
 11 12  1  6
 11 13  1  0
 12 49  1  0
 13 14  1  0
 13 50  1  6
 14 31  1  0
 14 15  1  0
 14 51  1  6
 15 26  1  0
 15 16  1  0
 15 52  1  6
 16 17  1  0
 16 18  1  0
 16 53  1  1
 17 54  1  0
 18 26  1  0
 18 19  1  0
 18 55  1  1
 19 20  1  0
 19 56  1  0
 19 57  1  0
 20 22  1  0
 20 21  1  0
 20 58  1  1
 21 22  1  0
 21 59  1  0
 21 60  1  0
 22 23  1  0
 22 61  1  1
 23 30  1  0
 23 24  1  0
 23 62  1  1
 24 25  1  0
 24 63  1  0
 24 64  1  0
 25 26  1  0
 25 27  1  0
 25 65  1  6
 26 66  1  6
 27 28  1  1
 30 27  1  6
 28 29  2  0
 30 31  1  0
 31 32  1  0
 31 67  1  6
 32 68  1  0
M  CHG  2   3   1   9   1
M  END
>  <i_m_ct_stereo_status>  (408) 
1

>  <s_m_source_file>  (408) 
/var/tmp/pbs.5076255.sched01/tmpfsvwwkaa/138cw1meju8.sdf

>  <i_m_source_file_index>  (408) 
39

>  <i_lp_mmshare_version>  (408) 
48012

>  <i_f3d_flags>  (408) 
0

>  <s_epik_input>  (408) 
W09IXVtDQEBdMTJbQ0gyXVtDQF0oW05IMl0pKEMzPU8pW0NIMl1bQ0BIXShbQ0BIXTROKFtDSDNdKVtDSDJdW0NIM10pW0NAQEhdMVtDQEhdKFtDQEBIXTVbT0hdKVtDQEhdKFtDQEhdNltPSF0pW0NAQEhdKFtDQEBIXTdbQ0gyXTgpW0NAQEhdNltDSDJdW0NASF0oW0NIMl05KVtDQEhdOVtDQEBIXThbQ0BdNDVbQ0BAXTIzNw==

>  <s_epik_cmdline>  (408) 
J2VwaWtfcHl0aG9uJywgJy1waHQnLCAnMi4wJywgJy1waCcsICc3LjAnLCAnLXRuJywgJzgnLCAnLW1hJywgJzIwMCcsICctaW1hZScsICc8aW5maWxlLm1hZT4nLCAnLW9tYWUnLCAnPG91dGZpbGUubWFlPic=

>  <r_epik_Ionization_Penalty>  (408) 
0.176491

>  <r_epik_Ionization_Penalty_Charging>  (408) 
0.176488

>  <r_epik_Ionization_Penalty_Neutral>  (408) 
2.16904e-06

>  <r_epik_State_Penalty>  (408) 
0.156464

>  <r_epik_Charging_Adjusted_Penalty>  (408) 
0.332953

>  <i_epik_Tot_Q>  (408) 
2

>  <i_epik_Tot_abs_Q>  (408) 
2

>  <s_lp_Force_Field>  (408) 
OPLS3e

>  <r_lp_Energy>  (408) 
238.649

>  <b_lp_Chiralities_Consistent>  (408) 
1

>  <s_lp_Variant>  (408) 
117:0-1

>  <s_i_glide_gridfile>  (408) 
pfpi4k_grid

>  <i_i_glide_lignum>  (408) 
39

>  <i_i_glide_rotatable_bonds>  (408) 
5

>  <r_i_docking_score>  (408) 
-2.94542

>  <r_i_glide_ligand_efficiency>  (408) 
-0.0920444

>  <r_i_glide_ligand_efficiency_sa>  (408) 
-0.292223

>  <r_i_glide_ligand_efficiency_ln>  (408) 
-0.65956

>  <r_i_glide_gscore>  (408) 
-2.94542

>  <r_i_glide_lipo>  (408) 
-0.49685

>  <r_i_glide_hbond>  (408) 
-0.32

>  <r_i_glide_metal>  (408) 
-0

>  <r_i_glide_rewards>  (408) 
-0.391426

>  <r_i_glide_evdw>  (408) 
-15.5279

>  <r_i_glide_ecoul>  (408) 
-6.97234

>  <r_i_glide_erotb>  (408) 
0.102021

>  <r_i_glide_esite>  (408) 
-0.016922

>  <r_i_glide_emodel>  (408) 
-29.1992

>  <r_i_glide_energy>  (408) 
-22.5002

>  <r_i_glide_einternal>  (408) 
1.4337

>  <r_i_glide_intrahb_reward>  (408) 
-0

>  <i_i_glide_confnum>  (408) 
1

>  <i_i_glide_posenum>  (408) 
16

>  <r_i_glide_eff_state_penalty>  (408) 
0

>  <ligand_id>  (408) 
117

>  <original_smiles>  (408) 
CCN(C)C1C2CC3(N)CC4(O)C2C2C5C(O)C6CC7CC7C7CC(C65)C4(C3=O)C71C2O

>  <smiles>  (408) 
[H]OC1([H])C2([H])C([H])([H])C3([H])C([H])([H])C3([H])C3([H])C([H])([H])C4([H])C2([H])C1([H])C1([H])C([H])(O[H])C32C43C(=O)C4([N+]([H])([H])[H])C([H])([H])C([H])(C1([H])C3(O[H])C4([H])[H])C2([H])[N+]([H])(C([H])([H])[H])C([H])([H])C([H])([H])[H]

$$$$
117:0:1
     RDKit          3D

 70 78  0  0  1  0  0  0  0  0999 V2000
    5.2659  -11.2415    8.4928 C   0  0  0  0  0  0  0  0  0  0  0  0
    3.7922  -11.0650    8.0578 C   0  0  0  0  0  0  0  0  0  0  0  0
    3.4701   -9.7312    7.4541 N   0  0  2  0  0  0  0  0  0  0  0  0
    2.1531   -9.2063    7.9354 C   0  0  0  0  0  0  0  0  0  0  0  0
    3.6401   -9.6435    5.9472 C   0  0  2  0  0  0  0  0  0  0  0  0
    5.1531   -9.7802    5.4581 C   0  0  1  0  0  0  0  0  0  0  0  0
    5.1532  -11.1928    4.8092 C   0  0  0  0  0  0  0  0  0  0  0  0
    4.4512  -11.1972    3.4076 C   0  0  2  0  0  0  0  0  0  0  0  0
    4.2227  -12.5430    2.8834 N   0  0  0  0  0  0  0  0  0  0  0  0
    5.3604  -10.3344    2.5775 C   0  0  0  0  0  0  0  0  0  0  0  0
    5.0258   -8.9212    3.1136 C   0  0  2  0  0  0  0  0  0  0  0  0
    5.5209   -8.1839    2.0073 O   0  0  0  0  0  0  0  0  0  0  0  0
    5.6797   -8.6130    4.4387 C   0  0  1  0  0  0  0  0  0  0  0  0
    5.2858   -7.1071    4.8065 C   0  0  1  0  0  0  0  0  0  0  0  0
    4.7584   -6.1182    3.6565 C   0  0  2  0  0  0  0  0  0  0  0  0
    4.1730   -4.7117    4.0097 C   0  0  1  0  0  0  0  0  0  0  0  0
    4.4928   -3.6421    3.1421 O   0  0  0  0  0  0  0  0  0  0  0  0
    2.8004   -5.3241    3.8423 C   0  0  1  0  0  0  0  0  0  0  0  0
    1.4064   -4.7331    3.9670 C   0  0  0  0  0  0  0  0  0  0  0  0
    0.5596   -5.4706    5.0528 C   0  0  2  0  0  0  0  0  0  0  0  0
    1.0650   -5.6914    6.4586 C   0  0  0  0  0  0  0  0  0  0  0  0
    0.7425   -6.9177    5.6237 C   0  0  2  0  0  0  0  0  0  0  0  0
    1.6115   -8.0327    4.9370 C   0  0  1  0  0  0  0  0  0  0  0  0
    1.3688   -7.8894    3.4106 C   0  0  0  0  0  0  0  0  0  0  0  0
    2.7471   -7.7823    2.7675 C   0  0  1  0  0  0  0  0  0  0  0  0
    3.3838   -6.3648    2.8981 C   0  0  2  0  0  0  0  0  0  0  0  0
    3.5175   -8.8219    3.5741 C   0  0  1  0  0  0  0  0  0  0  0  0
    3.2101  -10.3094    3.2693 C   0  0  0  0  0  0  0  0  0  0  0  0
    2.0885  -10.7850    2.9591 O   0  0  0  0  0  0  0  0  0  0  0  0
    3.1808   -8.3869    5.1554 C   0  0  2  0  0  0  0  0  0  0  0  0
    4.1708   -7.2902    5.8016 C   0  0  1  0  0  0  0  0  0  0  0  0
    4.7647   -7.4805    7.0852 O   0  0  0  0  0  0  0  0  0  0  0  0
    5.3625  -12.2616    8.8994 H   0  0  0  0  0  0  0  0  0  0  0  0
    5.5341  -10.5532    9.3143 H   0  0  0  0  0  0  0  0  0  0  0  0
    6.0124  -11.1556    7.7023 H   0  0  0  0  0  0  0  0  0  0  0  0
    3.4474  -11.8612    7.4118 H   0  0  0  0  0  0  0  0  0  0  0  0
    3.2040  -11.1805    8.9571 H   0  0  0  0  0  0  0  0  0  0  0  0
    1.3291   -9.7914    7.5413 H   0  0  0  0  0  0  0  0  0  0  0  0
    2.0037   -8.1707    7.6631 H   0  0  0  0  0  0  0  0  0  0  0  0
    2.1028   -9.2345    9.0176 H   0  0  0  0  0  0  0  0  0  0  0  0
    2.9810  -10.4589    5.6831 H   0  0  0  0  0  0  0  0  0  0  0  0
    5.8541   -9.6669    6.2774 H   0  0  0  0  0  0  0  0  0  0  0  0
    6.1853  -11.5305    4.6985 H   0  0  0  0  0  0  0  0  0  0  0  0
    4.6781  -11.9351    5.4548 H   0  0  0  0  0  0  0  0  0  0  0  0
    5.0785  -13.0732    2.8703 H   0  0  0  0  0  0  0  0  0  0  0  0
    3.9081  -12.4818    1.8931 H   0  0  0  0  0  0  0  0  0  0  0  0
    6.4199  -10.6093    2.6615 H   0  0  0  0  0  0  0  0  0  0  0  0
    5.0908  -10.4239    1.5243 H   0  0  0  0  0  0  0  0  0  0  0  0
    6.4612   -8.2922    1.9898 H   0  0  0  0  0  0  0  0  0  0  0  0
    6.7588   -8.6978    4.3378 H   0  0  0  0  0  0  0  0  0  0  0  0
    6.1299   -6.6417    5.3075 H   0  0  0  0  0  0  0  0  0  0  0  0
    5.5316   -5.9123    2.9245 H   0  0  0  0  0  0  0  0  0  0  0  0
    4.3808   -4.4312    5.0413 H   0  0  0  0  0  0  0  0  0  0  0  0
    5.3814   -3.3885    3.3353 H   0  0  0  0  0  0  0  0  0  0  0  0
    2.7320   -5.8849    4.6822 H   0  0  0  0  0  0  0  0  0  0  0  0
    1.4531   -3.6738    4.2349 H   0  0  0  0  0  0  0  0  0  0  0  0
    0.8760   -4.7801    3.0122 H   0  0  0  0  0  0  0  0  0  0  0  0
   -0.4651   -5.1413    5.0165 H   0  0  0  0  0  0  0  0  0  0  0  0
    2.0788   -5.3921    6.6888 H   0  0  0  0  0  0  0  0  0  0  0  0
    0.3405   -5.4705    7.2352 H   0  0  0  0  0  0  0  0  0  0  0  0
   -0.2133   -7.3514    5.9060 H   0  0  0  0  0  0  0  0  0  0  0  0
    1.0884   -8.9492    5.2104 H   0  0  0  0  0  0  0  0  0  0  0  0
    0.8292   -8.7567    3.0509 H   0  0  0  0  0  0  0  0  0  0  0  0
    0.7209   -7.0722    3.1020 H   0  0  0  0  0  0  0  0  0  0  0  0
    2.7001   -8.0798    1.7135 H   0  0  0  0  0  0  0  0  0  0  0  0
    3.4678   -5.8811    1.9325 H   0  0  0  0  0  0  0  0  0  0  0  0
    3.7746   -6.3524    6.1436 H   0  0  0  0  0  0  0  0  0  0  0  0
    4.1151   -7.2511    7.7339 H   0  0  0  0  0  0  0  0  0  0  0  0
    4.1771   -9.0908    7.8278 H   0  0  0  0  0  0  0  0  0  0  0  0
    3.5087  -13.0219    3.4139 H   0  0  0  0  0  0  0  0  0  0  0  0
  1  2  1  0
  1 33  1  0
  1 34  1  0
  1 35  1  0
  2  3  1  0
  2 36  1  0
  2 37  1  0
  3  4  1  0
  3  5  1  0
  3 69  1  1
  4 38  1  0
  4 39  1  0
  4 40  1  0
  5 30  1  0
  5  6  1  0
  5 41  1  6
  6 13  1  0
  6  7  1  0
  6 42  1  1
  7  8  1  0
  7 43  1  0
  7 44  1  0
  8 28  1  0
  8  9  1  6
  8 10  1  0
  9 45  1  0
  9 46  1  0
  9 70  1  0
 10 11  1  0
 10 47  1  0
 10 48  1  0
 11 27  1  0
 11 12  1  6
 11 13  1  0
 12 49  1  0
 13 14  1  0
 13 50  1  6
 14 31  1  0
 14 15  1  0
 14 51  1  1
 15 26  1  0
 15 16  1  0
 15 52  1  6
 16 17  1  0
 16 18  1  0
 16 53  1  1
 17 54  1  0
 18 26  1  0
 18 19  1  0
 18 55  1  1
 19 20  1  0
 19 56  1  0
 19 57  1  0
 20 22  1  0
 20 21  1  0
 20 58  1  1
 21 22  1  0
 21 59  1  0
 21 60  1  0
 22 23  1  0
 22 61  1  1
 23 30  1  0
 23 24  1  0
 23 62  1  1
 24 25  1  0
 24 63  1  0
 24 64  1  0
 25 26  1  0
 25 27  1  0
 25 65  1  6
 26 66  1  6
 27 28  1  6
 30 27  1  6
 28 29  2  0
 30 31  1  0
 31 32  1  0
 31 67  1  1
 32 68  1  0
M  CHG  2   3   1   9   1
M  END
>  <i_m_ct_stereo_status>  (409) 
1

>  <s_m_source_file>  (409) 
/var/tmp/pbs.5076255.sched01/tmpfsvwwkaa/138cw1meju8.sdf

>  <i_m_source_file_index>  (409) 
39

>  <i_lp_mmshare_version>  (409) 
48012

>  <i_f3d_flags>  (409) 
0

>  <s_epik_input>  (409) 
W09IXVtDQEBdMTJbQ0gyXVtDQF0oW05IMl0pKEMzPU8pW0NIMl1bQ0BIXShbQ0BIXTROKFtDSDNdKVtDSDJdW0NIM10pW0NAQEhdMVtDQEhdKFtDQEBIXTVbT0hdKVtDQEhdKFtDQEhdNltPSF0pW0NAQEhdKFtDQEBIXTdbQ0gyXTgpW0NAQEhdNltDSDJdW0NASF0oW0NIMl05KVtDQEhdOVtDQEBIXThbQ0BdNDVbQ0BAXTIzNw==

>  <s_epik_cmdline>  (409) 
J2VwaWtfcHl0aG9uJywgJy1waHQnLCAnMi4wJywgJy1waCcsICc3LjAnLCAnLXRuJywgJzgnLCAnLW1hJywgJzIwMCcsICctaW1hZScsICc8aW5maWxlLm1hZT4nLCAnLW9tYWUnLCAnPG91dGZpbGUubWFlPic=

>  <r_epik_Ionization_Penalty>  (409) 
0.176491

>  <r_epik_Ionization_Penalty_Charging>  (409) 
0.176488

>  <r_epik_Ionization_Penalty_Neutral>  (409) 
2.16904e-06

>  <r_epik_State_Penalty>  (409) 
0.156464

>  <r_epik_Charging_Adjusted_Penalty>  (409) 
0.332953

>  <i_epik_Tot_Q>  (409) 
2

>  <i_epik_Tot_abs_Q>  (409) 
2

>  <s_lp_Force_Field>  (409) 
OPLS3e

>  <r_lp_Energy>  (409) 
238.649

>  <b_lp_Chiralities_Consistent>  (409) 
1

>  <s_lp_Variant>  (409) 
117:0-1

>  <s_i_glide_gridfile>  (409) 
pfpi4k_grid

>  <i_i_glide_lignum>  (409) 
39

>  <i_i_glide_rotatable_bonds>  (409) 
5

>  <r_i_docking_score>  (409) 
-2.79389

>  <r_i_glide_ligand_efficiency>  (409) 
-0.0873091

>  <r_i_glide_ligand_efficiency_sa>  (409) 
-0.277189

>  <r_i_glide_ligand_efficiency_ln>  (409) 
-0.625629

>  <r_i_glide_gscore>  (409) 
-2.79389

>  <r_i_glide_lipo>  (409) 
-0.000192521

>  <r_i_glide_hbond>  (409) 
-0.2

>  <r_i_glide_metal>  (409) 
-0

>  <r_i_glide_rewards>  (409) 
-0.391426

>  <r_i_glide_evdw>  (409) 
-13.3068

>  <r_i_glide_ecoul>  (409) 
-9.76096

>  <r_i_glide_erotb>  (409) 
0.102021

>  <r_i_glide_esite>  (409) 
-0.17481

>  <r_i_glide_emodel>  (409) 
-28.1888

>  <r_i_glide_energy>  (409) 
-23.0678

>  <r_i_glide_einternal>  (409) 
2.67723

>  <r_i_glide_intrahb_reward>  (409) 
-0

>  <i_i_glide_confnum>  (409) 
5

>  <i_i_glide_posenum>  (409) 
31

>  <r_i_glide_eff_state_penalty>  (409) 
0

>  <ligand_id>  (409) 
117

>  <original_smiles>  (409) 
CCN(C)C1C2CC3(N)CC4(O)C2C2C5C(O)C6CC7CC7C7CC(C65)C4(C3=O)C71C2O

>  <smiles>  (409) 
[H]OC1([H])C2([H])C([H])([H])C3([H])C([H])([H])C3([H])C3([H])C([H])([H])C4([H])C2([H])C1([H])C1([H])C([H])(O[H])C32C43C(=O)C4([N+]([H])([H])[H])C([H])([H])C([H])(C1([H])C3(O[H])C4([H])[H])C2([H])[N+]([H])(C([H])([H])[H])C([H])([H])C([H])([H])[H]

$$$$
117:0:2
     RDKit          3D

 70 78  0  0  1  0  0  0  0  0999 V2000
    5.8975   -8.2409    8.2773 C   0  0  0  0  0  0  0  0  0  0  0  0
    5.0646   -8.5653    7.0220 C   0  0  0  0  0  0  0  0  0  0  0  0
    4.7824   -7.3606    6.1852 N   0  0  2  0  0  0  0  0  0  0  0  0
    3.9564   -6.3468    6.8997 C   0  0  0  0  0  0  0  0  0  0  0  0
    4.2842   -7.6884    4.8058 C   0  0  2  0  0  0  0  0  0  0  0  0
    5.3519   -8.4687    3.9017 C   0  0  1  0  0  0  0  0  0  0  0  0
    4.7222   -9.8825    3.7744 C   0  0  0  0  0  0  0  0  0  0  0  0
    3.5153   -9.8956    2.7947 C   0  0  2  0  0  0  0  0  0  0  0  0
    2.7593  -11.1595    2.8818 N   0  0  0  0  0  0  0  0  0  0  0  0
    4.1290   -9.6001    1.4705 C   0  0  0  0  0  0  0  0  0  0  0  0
    4.4374   -8.0901    1.6023 C   0  0  2  0  0  0  0  0  0  0  0  0
    4.5812   -7.8196    0.2188 O   0  0  0  0  0  0  0  0  0  0  0  0
    5.6677   -7.7936    2.4224 C   0  0  1  0  0  0  0  0  0  0  0  0
    5.8325   -6.1993    2.3596 C   0  0  1  0  0  0  0  0  0  0  0  0
    5.1009   -5.3383    1.1941 C   0  0  2  0  0  0  0  0  0  0  0  0
    5.0974   -3.7785    1.2450 C   0  0  1  0  0  0  0  0  0  0  0  0
    5.2857   -3.0974    0.0118 O   0  0  0  0  0  0  0  0  0  0  0  0
    3.6784   -3.8737    1.7825 C   0  0  1  0  0  0  0  0  0  0  0  0
    2.6769   -2.8043    2.1960 C   0  0  0  0  0  0  0  0  0  0  0  0
    2.2428   -2.9570    3.6887 C   0  0  2  0  0  0  0  0  0  0  0  0
    3.2562   -3.0675    4.8025 C   0  0  0  0  0  0  0  0  0  0  0  0
    2.3021   -4.2327    4.5983 C   0  0  2  0  0  0  0  0  0  0  0  0
    2.4843   -5.6962    4.0680 C   0  0  1  0  0  0  0  0  0  0  0  0
    1.6329   -5.7928    2.7748 C   0  0  0  0  0  0  0  0  0  0  0  0
    2.5679   -6.3128    1.6953 C   0  0  1  0  0  0  0  0  0  0  0  0
    3.5143   -5.2205    1.0900 C   0  0  2  0  0  0  0  0  0  0  0  0
    3.3450   -7.3698    2.4741 C   0  0  1  0  0  0  0  0  0  0  0  0
    2.5534   -8.6835    2.8170 C   0  0  0  0  0  0  0  0  0  0  0  0
    1.3663   -8.7802    3.0827 O   0  0  0  0  0  0  0  0  0  0  0  0
    3.8481   -6.5418    3.8373 C   0  0  2  0  0  0  0  0  0  0  0  0
    5.2629   -5.7590    3.6779 C   0  0  1  0  0  0  0  0  0  0  0  0
    6.2918   -5.8647    4.6541 O   0  0  0  0  0  0  0  0  0  0  0  0
    6.1868   -9.1831    8.7520 H   0  0  0  0  0  0  0  0  0  0  0  0
    5.3351   -7.6742    9.0318 H   0  0  0  0  0  0  0  0  0  0  0  0
    6.8189   -7.6853    8.0460 H   0  0  0  0  0  0  0  0  0  0  0  0
    5.6449   -9.2987    6.4470 H   0  0  0  0  0  0  0  0  0  0  0  0
    4.1291   -9.0551    7.3150 H   0  0  0  0  0  0  0  0  0  0  0  0
    2.9320   -6.7088    7.0402 H   0  0  0  0  0  0  0  0  0  0  0  0
    3.9398   -5.4047    6.3441 H   0  0  0  0  0  0  0  0  0  0  0  0
    4.3848   -6.1058    7.8739 H   0  0  0  0  0  0  0  0  0  0  0  0
    3.4103   -8.2835    5.0772 H   0  0  0  0  0  0  0  0  0  0  0  0
    6.3117   -8.5388    4.4188 H   0  0  0  0  0  0  0  0  0  0  0  0
    5.4920  -10.5761    3.4042 H   0  0  0  0  0  0  0  0  0  0  0  0
    4.4140  -10.2672    4.7523 H   0  0  0  0  0  0  0  0  0  0  0  0
    3.3758  -11.9362    2.6719 H   0  0  0  0  0  0  0  0  0  0  0  0
    2.0367  -11.1397    2.1776 H   0  0  0  0  0  0  0  0  0  0  0  0
    5.0199  -10.2066    1.2452 H   0  0  0  0  0  0  0  0  0  0  0  0
    3.3970   -9.7925    0.6718 H   0  0  0  0  0  0  0  0  0  0  0  0
    4.7180   -6.8871    0.1273 H   0  0  0  0  0  0  0  0  0  0  0  0
    6.5251   -8.2827    1.9600 H   0  0  0  0  0  0  0  0  0  0  0  0
    6.8969   -5.9623    2.3450 H   0  0  0  0  0  0  0  0  0  0  0  0
    5.5085   -5.5624    0.2137 H   0  0  0  0  0  0  0  0  0  0  0  0
    5.7826   -3.3871    1.9985 H   0  0  0  0  0  0  0  0  0  0  0  0
    4.5719   -3.3412   -0.5675 H   0  0  0  0  0  0  0  0  0  0  0  0
    3.8587   -4.1841    2.7406 H   0  0  0  0  0  0  0  0  0  0  0  0
    3.0848   -1.8084    2.0727 H   0  0  0  0  0  0  0  0  0  0  0  0
    1.7981   -2.8325    1.5602 H   0  0  0  0  0  0  0  0  0  0  0  0
    1.4144   -2.2942    3.9111 H   0  0  0  0  0  0  0  0  0  0  0  0
    4.3086   -3.0963    4.5469 H   0  0  0  0  0  0  0  0  0  0  0  0
    3.0233   -2.4431    5.6584 H   0  0  0  0  0  0  0  0  0  0  0  0
    1.5014   -4.2352    5.3372 H   0  0  0  0  0  0  0  0  0  0  0  0
    1.9316   -6.2933    4.7930 H   0  0  0  0  0  0  0  0  0  0  0  0
    0.7949   -6.4670    2.9423 H   0  0  0  0  0  0  0  0  0  0  0  0
    1.1364   -4.8743    2.4773 H   0  0  0  0  0  0  0  0  0  0  0  0
    1.9957   -6.7823    0.8944 H   0  0  0  0  0  0  0  0  0  0  0  0
    3.2528   -5.0179    0.0450 H   0  0  0  0  0  0  0  0  0  0  0  0
    5.2917   -4.6958    3.7999 H   0  0  0  0  0  0  0  0  0  0  0  0
    6.1354   -5.2018    5.3234 H   0  0  0  0  0  0  0  0  0  0  0  0
    5.6878   -6.9498    5.9920 H   0  0  0  0  0  0  0  0  0  0  0  0
    2.3375  -11.2611    3.7811 H   0  0  0  0  0  0  0  0  0  0  0  0
  1  2  1  0
  1 33  1  0
  1 34  1  0
  1 35  1  0
  2  3  1  0
  2 36  1  0
  2 37  1  0
  3  4  1  0
  3  5  1  0
  3 69  1  6
  4 38  1  0
  4 39  1  0
  4 40  1  0
  5 30  1  0
  5  6  1  0
  5 41  1  1
  6 13  1  0
  6  7  1  0
  6 42  1  1
  7  8  1  0
  7 43  1  0
  7 44  1  0
  8 28  1  0
  8  9  1  6
  8 10  1  0
  9 45  1  0
  9 46  1  0
  9 70  1  0
 10 11  1  0
 10 47  1  0
 10 48  1  0
 11 27  1  0
 11 12  1  6
 11 13  1  0
 12 49  1  0
 13 14  1  0
 13 50  1  6
 14 31  1  0
 14 15  1  0
 14 51  1  1
 15 26  1  0
 15 16  1  0
 15 52  1  6
 16 17  1  0
 16 18  1  0
 16 53  1  1
 17 54  1  0
 18 26  1  0
 18 19  1  0
 18 55  1  1
 19 20  1  0
 19 56  1  0
 19 57  1  0
 20 22  1  0
 20 21  1  0
 20 58  1  1
 21 22  1  0
 21 59  1  0
 21 60  1  0
 22 23  1  0
 22 61  1  1
 23 30  1  0
 23 24  1  0
 23 62  1  1
 24 25  1  0
 24 63  1  0
 24 64  1  0
 25 26  1  0
 25 27  1  0
 25 65  1  6
 26 66  1  6
 27 28  1  1
 30 27  1  6
 28 29  2  0
 30 31  1  0
 31 32  1  0
 31 67  1  6
 32 68  1  0
M  CHG  2   3   1   9   1
M  END
>  <i_m_ct_stereo_status>  (410) 
1

>  <s_m_source_file>  (410) 
/var/tmp/pbs.5076255.sched01/tmpfsvwwkaa/138cw1meju8.sdf

>  <i_m_source_file_index>  (410) 
39

>  <i_lp_mmshare_version>  (410) 
48012

>  <i_f3d_flags>  (410) 
0

>  <s_epik_input>  (410) 
W09IXVtDQEBdMTJbQ0gyXVtDQF0oW05IMl0pKEMzPU8pW0NIMl1bQ0BIXShbQ0BIXTROKFtDSDNdKVtDSDJdW0NIM10pW0NAQEhdMVtDQEhdKFtDQEBIXTVbT0hdKVtDQEhdKFtDQEhdNltPSF0pW0NAQEhdKFtDQEBIXTdbQ0gyXTgpW0NAQEhdNltDSDJdW0NASF0oW0NIMl05KVtDQEhdOVtDQEBIXThbQ0BdNDVbQ0BAXTIzNw==

>  <s_epik_cmdline>  (410) 
J2VwaWtfcHl0aG9uJywgJy1waHQnLCAnMi4wJywgJy1waCcsICc3LjAnLCAnLXRuJywgJzgnLCAnLW1hJywgJzIwMCcsICctaW1hZScsICc8aW5maWxlLm1hZT4nLCAnLW9tYWUnLCAnPG91dGZpbGUubWFlPic=

>  <r_epik_Ionization_Penalty>  (410) 
0.176491

>  <r_epik_Ionization_Penalty_Charging>  (410) 
0.176488

>  <r_epik_Ionization_Penalty_Neutral>  (410) 
2.16904e-06

>  <r_epik_State_Penalty>  (410) 
0.156464

>  <r_epik_Charging_Adjusted_Penalty>  (410) 
0.332953

>  <i_epik_Tot_Q>  (410) 
2

>  <i_epik_Tot_abs_Q>  (410) 
2

>  <s_lp_Force_Field>  (410) 
OPLS3e

>  <r_lp_Energy>  (410) 
238.649

>  <b_lp_Chiralities_Consistent>  (410) 
1

>  <s_lp_Variant>  (410) 
117:0-1

>  <s_i_glide_gridfile>  (410) 
pfpi4k_grid

>  <i_i_glide_lignum>  (410) 
39

>  <i_i_glide_rotatable_bonds>  (410) 
5

>  <r_i_docking_score>  (410) 
-2.15488

>  <r_i_glide_ligand_efficiency>  (410) 
-0.06734

>  <r_i_glide_ligand_efficiency_sa>  (410) 
-0.213791

>  <r_i_glide_ligand_efficiency_ln>  (410) 
-0.482537

>  <r_i_glide_gscore>  (410) 
-2.15488

>  <r_i_glide_lipo>  (410) 
-0.134953

>  <r_i_glide_hbond>  (410) 
0

>  <r_i_glide_metal>  (410) 
-0

>  <r_i_glide_rewards>  (410) 
-0.391426

>  <r_i_glide_evdw>  (410) 
-14.8232

>  <r_i_glide_ecoul>  (410) 
-6.32505

>  <r_i_glide_erotb>  (410) 
0.102021

>  <r_i_glide_esite>  (410) 
-0.0406054

>  <r_i_glide_emodel>  (410) 
-26.3568

>  <r_i_glide_energy>  (410) 
-21.1483

>  <r_i_glide_einternal>  (410) 
0.350385

>  <r_i_glide_intrahb_reward>  (410) 
-0

>  <i_i_glide_confnum>  (410) 
5

>  <i_i_glide_posenum>  (410) 
8

>  <r_i_glide_eff_state_penalty>  (410) 
0

>  <ligand_id>  (410) 
117

>  <original_smiles>  (410) 
CCN(C)C1C2CC3(N)CC4(O)C2C2C5C(O)C6CC7CC7C7CC(C65)C4(C3=O)C71C2O

>  <smiles>  (410) 
[H]OC1([H])C2([H])C([H])([H])C3([H])C([H])([H])C3([H])C3([H])C([H])([H])C4([H])C2([H])C1([H])C1([H])C([H])(O[H])C32C43C(=O)C4([N+]([H])([H])[H])C([H])([H])C([H])(C1([H])C3(O[H])C4([H])[H])C2([H])[N+]([H])(C([H])([H])[H])C([H])([H])C([H])([H])[H]

$$$$
119:0:0
     RDKit          3D

 63 67  0  0  1  0  0  0  0  0999 V2000
   -0.0989    0.9495    2.1805 C   0  0  0  0  0  0  0  0  0  0  0  0
    0.3348    0.5440    3.4815 O   0  0  0  0  0  0  0  0  0  0  0  0
    1.5311   -0.2301    3.6311 C   0  0  1  0  0  0  0  0  0  0  0  0
    1.5456   -1.3638    2.5639 C   0  0  0  0  0  0  0  0  0  0  0  0
    2.7756    0.6824    3.3166 C   0  0  0  0  0  0  0  0  0  0  0  0
    2.6330    2.2308    3.4571 C   0  0  0  0  0  0  0  0  0  0  0  0
    2.7430    2.8870    4.8586 C   0  0  2  0  0  0  0  0  0  0  0  0
    4.2009    3.3135    5.1563 C   0  0  0  0  0  0  0  0  0  0  0  0
    2.2168    1.9932    5.8162 O   0  0  0  0  0  0  0  0  0  0  0  0
    2.7771    0.8962    6.2879 C   0  0  0  0  0  0  0  0  0  0  0  0
    3.9762    0.7338    6.4966 O   0  0  0  0  0  0  0  0  0  0  0  0
    1.6832   -0.1333    6.3985 C   0  0  1  0  0  0  0  0  0  0  0  0
    2.0699   -1.0972    7.5784 C   0  0  0  0  0  0  0  0  0  0  0  0
    3.0058   -1.7874    7.9843 O   0  0  0  0  0  0  0  0  0  0  0  0
    0.7307   -0.9599    8.1881 C   0  0  0  0  0  0  0  0  0  0  0  0
    0.2020   -1.6683    9.0501 O   0  0  0  0  0  0  0  0  0  0  0  0
    0.3786    0.2417    7.2549 C   0  0  2  0  0  0  0  0  0  0  0  0
   -0.8720   -0.0277    6.6021 O   0  0  0  0  0  0  0  0  0  0  0  0
   -1.0530   -0.9551    5.6258 C   0  0  0  0  0  0  0  0  0  0  0  0
   -2.1454   -1.1433    5.1151 O   0  0  0  0  0  0  0  0  0  0  0  0
    0.1716   -1.7871    5.2297 C   0  0  0  0  0  0  0  0  0  0  0  0
    1.4731   -0.9448    5.0613 C   0  0  1  0  0  0  0  0  0  0  0  0
    0.2394    1.5744    8.0764 C   0  0  2  0  0  0  0  0  0  0  0  0
   -0.7933    1.4675    9.1958 C   0  0  0  0  0  0  0  0  0  0  0  0
   -1.7579    2.3935    9.1340 C   0  0  0  0  0  0  0  0  0  0  0  0
   -2.9500    2.6189   10.0375 C   0  0  0  0  0  0  0  0  0  0  0  0
   -1.5022    3.2474    8.0073 C   0  0  0  0  0  0  0  0  0  0  0  0
   -2.2503    4.1735    7.6406 O   0  0  0  0  0  0  0  0  0  0  0  0
   -0.1920    2.8957    7.3250 C   0  0  1  0  0  0  0  0  0  0  0  0
    0.7449    3.8923    7.7005 O   0  0  0  0  0  0  0  0  0  0  0  0
   -0.3921    2.8557    5.7571 C   0  0  0  0  0  0  0  0  0  0  0  0
    0.2497    3.9435    4.8404 C   0  0  1  0  0  0  0  0  0  0  0  0
   -0.5033    5.2774    4.9615 C   0  0  0  0  0  0  0  0  0  0  0  0
    1.7984    4.1244    4.8991 C   0  0  0  0  0  0  0  0  0  0  0  0
    2.2738    5.2582    4.9807 O   0  0  0  0  0  0  0  0  0  0  0  0
   -0.8766    1.7039    2.2927 H   0  0  0  0  0  0  0  0  0  0  0  0
   -0.5353    0.1300    1.6203 H   0  0  0  0  0  0  0  0  0  0  0  0
    0.6875    1.3767    1.5609 H   0  0  0  0  0  0  0  0  0  0  0  0
    2.3440   -2.0819    2.7651 H   0  0  0  0  0  0  0  0  0  0  0  0
    1.7117   -0.9905    1.5511 H   0  0  0  0  0  0  0  0  0  0  0  0
    0.6158   -1.9206    2.5098 H   0  0  0  0  0  0  0  0  0  0  0  0
    3.6680    0.3159    3.8240 H   0  0  0  0  0  0  0  0  0  0  0  0
    3.0334    0.5464    2.2671 H   0  0  0  0  0  0  0  0  0  0  0  0
    3.4081    2.6793    2.8317 H   0  0  0  0  0  0  0  0  0  0  0  0
    1.7403    2.5807    2.9498 H   0  0  0  0  0  0  0  0  0  0  0  0
    4.5138    4.1200    4.4948 H   0  0  0  0  0  0  0  0  0  0  0  0
    4.8879    2.4865    4.9961 H   0  0  0  0  0  0  0  0  0  0  0  0
    4.3188    3.6622    6.1817 H   0  0  0  0  0  0  0  0  0  0  0  0
    0.3158   -2.5508    5.9896 H   0  0  0  0  0  0  0  0  0  0  0  0
   -0.0784   -2.3508    4.3396 H   0  0  0  0  0  0  0  0  0  0  0  0
    2.2878   -1.6812    5.0329 H   0  0  0  0  0  0  0  0  0  0  0  0
    1.1859    1.7545    8.5982 H   0  0  0  0  0  0  0  0  0  0  0  0
   -0.7336    0.7183    9.9746 H   0  0  0  0  0  0  0  0  0  0  0  0
   -2.9433    3.6377   10.4294 H   0  0  0  0  0  0  0  0  0  0  0  0
   -2.9458    1.9225   10.8715 H   0  0  0  0  0  0  0  0  0  0  0  0
   -3.8799    2.4946    9.4818 H   0  0  0  0  0  0  0  0  0  0  0  0
    1.5715    3.7110    7.2790 H   0  0  0  0  0  0  0  0  0  0  0  0
   -0.0878    1.9041    5.3538 H   0  0  0  0  0  0  0  0  0  0  0  0
   -1.4584    2.8268    5.5230 H   0  0  0  0  0  0  0  0  0  0  0  0
    0.0461    3.6181    3.8198 H   0  0  0  0  0  0  0  0  0  0  0  0
   -0.2284    5.9695    4.1636 H   0  0  0  0  0  0  0  0  0  0  0  0
   -0.3236    5.7728    5.9167 H   0  0  0  0  0  0  0  0  0  0  0  0
   -1.5683    5.0790    4.8738 H   0  0  0  0  0  0  0  0  0  0  0  0
  1  2  1  0
  1 36  1  0
  1 37  1  0
  1 38  1  0
  3  2  1  6
  3 22  1  0
  3  4  1  0
  3  5  1  0
  4 39  1  0
  4 40  1  0
  4 41  1  0
  5  6  1  0
  5 42  1  0
  5 43  1  0
  6  7  1  0
  6 44  1  0
  6 45  1  0
  7 34  1  0
  7  8  1  1
  7  9  1  0
  8 46  1  0
  8 47  1  0
  8 48  1  0
  9 10  1  0
 10 11  2  0
 10 12  1  0
 12 17  1  0
 12 22  1  0
 12 13  1  1
 13 14  2  0
 13 15  1  0
 15 16  2  0
 15 17  1  0
 17 18  1  6
 17 23  1  0
 18 19  1  0
 19 20  2  0
 19 21  1  0
 21 22  1  0
 21 49  1  0
 21 50  1  0
 22 51  1  6
 23 29  1  0
 23 24  1  0
 23 52  1  1
 24 25  2  0
 24 53  1  0
 25 26  1  0
 25 27  1  0
 26 54  1  0
 26 55  1  0
 26 56  1  0
 27 28  2  0
 27 29  1  0
 29 30  1  6
 29 31  1  0
 30 57  1  0
 31 32  1  0
 31 58  1  0
 31 59  1  0
 32 33  1  0
 32 34  1  0
 32 60  1  6
 33 61  1  0
 33 62  1  0
 33 63  1  0
 34 35  2  0
M  END
>  <i_m_ct_stereo_status>  (411) 
1

>  <s_m_source_file>  (411) 
/var/tmp/pbs.5076255.sched01/tmpfsvwwkaa/138cw1meju8.sdf

>  <i_m_source_file_index>  (411) 
42

>  <i_lp_mmshare_version>  (411) 
48012

>  <i_f3d_flags>  (411) 
0

>  <s_epik_input>  (411) 
TzFDKD1PKVtDSDJdW0NASF0yW0NAQF0oW0NIM10pKE9bQ0gzXSlbQ0gyXVtDSDJdW0NAXShbQ0gzXSkoT0MzPU8pQyg9TylbQ0BIXShbQ0gzXSlbQ0gyXVtDQEBdKFtPSF0pKEMoPU8pQyg9W0NIXTQpW0NIM10pW0NAQEhdNFtDQEBdMShbQ0BAXTIzNSlDKD1PKUM1PU8=

>  <s_epik_cmdline>  (411) 
J2VwaWtfcHl0aG9uJywgJy1waHQnLCAnMi4wJywgJy1waCcsICc3LjAnLCAnLXRuJywgJzgnLCAnLW1hJywgJzIwMCcsICctaW1hZScsICc8aW5maWxlLm1hZT4nLCAnLW9tYWUnLCAnPG91dGZpbGUubWFlPic=

>  <r_lp_tautomer_probability>  (411) 
1

>  <r_epik_Ionization_Penalty>  (411) 
0.000156879

>  <r_epik_Ionization_Penalty_Charging>  (411) 
0

>  <r_epik_Ionization_Penalty_Neutral>  (411) 
0.000156879

>  <r_epik_State_Penalty>  (411) 
-0

>  <r_epik_Charging_Adjusted_Penalty>  (411) 
0

>  <i_epik_Tot_Q>  (411) 
0

>  <i_epik_Tot_abs_Q>  (411) 
0

>  <s_epik_Chemistry_Notes>  (411) 
This compound has an ester and may undergo hydrolysis at high or low pH.

>  <s_lp_Force_Field>  (411) 
OPLS3e

>  <r_lp_Energy>  (411) 
65.4915

>  <b_lp_Chiralities_Consistent>  (411) 
1

>  <s_lp_Variant>  (411) 
119:0-1

>  <s_i_glide_gridfile>  (411) 
pfpi4k_grid

>  <i_i_glide_lignum>  (411) 
42

>  <i_i_glide_rotatable_bonds>  (411) 
2

>  <r_i_docking_score>  (411) 
-2.7582

>  <r_i_glide_ligand_efficiency>  (411) 
-0.0788056

>  <r_i_glide_ligand_efficiency_sa>  (411) 
-0.257778

>  <r_i_glide_ligand_efficiency_ln>  (411) 
-0.605485

>  <r_i_glide_gscore>  (411) 
-2.7582

>  <r_i_glide_lipo>  (411) 
0

>  <r_i_glide_hbond>  (411) 
-0.202894

>  <r_i_glide_metal>  (411) 
-0

>  <r_i_glide_rewards>  (411) 
-0.578519

>  <r_i_glide_evdw>  (411) 
-21.9964

>  <r_i_glide_ecoul>  (411) 
-5.25241

>  <r_i_glide_erotb>  (411) 
0

>  <r_i_glide_esite>  (411) 
-0.0891001

>  <r_i_glide_emodel>  (411) 
-36.9069

>  <r_i_glide_energy>  (411) 
-27.2488

>  <r_i_glide_einternal>  (411) 
0.0904164

>  <r_i_glide_intrahb_reward>  (411) 
-0.5

>  <i_i_glide_confnum>  (411) 
1

>  <i_i_glide_posenum>  (411) 
38

>  <r_i_glide_eff_state_penalty>  (411) 
0

>  <ligand_id>  (411) 
119

>  <original_smiles>  (411) 
COC1(C)CCC2(C)OC(=O)C34C(=O)C(=O)C3(OC(=O)CC14)C1C=C(C)C(=O)C1(O)CC(C)C2=O

>  <smiles>  (411) 
[H]OC12C(=O)C(C([H])([H])[H])=C([H])C1([H])C13OC(=O)C([H])([H])C4([H])C1(C(=O)OC(C([H])([H])[H])(C(=O)C([H])(C([H])([H])[H])C2([H])[H])C([H])([H])C([H])([H])C4(OC([H])([H])[H])C([H])([H])[H])C(=O)C3=O

$$$$
119:0:1
     RDKit          3D

 63 67  0  0  1  0  0  0  0  0999 V2000
    0.0103    0.3130    2.0530 C   0  0  0  0  0  0  0  0  0  0  0  0
    0.6615    0.2738    3.3219 O   0  0  0  0  0  0  0  0  0  0  0  0
    2.0670    0.0341    3.3924 C   0  0  1  0  0  0  0  0  0  0  0  0
    2.4140   -1.2263    2.5442 C   0  0  0  0  0  0  0  0  0  0  0  0
    2.8190    1.2482    2.7294 C   0  0  0  0  0  0  0  0  0  0  0  0
    2.1067    2.6449    2.6332 C   0  0  0  0  0  0  0  0  0  0  0  0
    2.0727    3.5691    3.8749 C   0  0  2  0  0  0  0  0  0  0  0  0
    3.2702    4.5527    3.8326 C   0  0  0  0  0  0  0  0  0  0  0  0
    2.0349    2.7690    5.0384 O   0  0  0  0  0  0  0  0  0  0  0  0
    3.0234    2.0776    5.5776 C   0  0  0  0  0  0  0  0  0  0  0  0
    4.1986    2.4212    5.6027 O   0  0  0  0  0  0  0  0  0  0  0  0
    2.4227    0.7756    6.0252 C   0  0  1  0  0  0  0  0  0  0  0  0
    3.2708    0.2986    7.2721 C   0  0  0  0  0  0  0  0  0  0  0  0
    4.4283    0.1115    7.6349 O   0  0  0  0  0  0  0  0  0  0  0  0
    2.0639    0.0767    8.0796 C   0  0  0  0  0  0  0  0  0  0  0  0
    1.9783   -0.5466    9.1263 O   0  0  0  0  0  0  0  0  0  0  0  0
    1.1634    0.8263    7.0280 C   0  0  2  0  0  0  0  0  0  0  0  0
    0.0699   -0.0390    6.6664 O   0  0  0  0  0  0  0  0  0  0  0  0
    0.1879   -1.1557    5.9065 C   0  0  0  0  0  0  0  0  0  0  0  0
   -0.7748   -1.8722    5.6116 O   0  0  0  0  0  0  0  0  0  0  0  0
    1.5972   -1.5373    5.4402 C   0  0  0  0  0  0  0  0  0  0  0  0
    2.4391   -0.3337    4.9135 C   0  0  1  0  0  0  0  0  0  0  0  0
    0.6014    2.1506    7.6384 C   0  0  2  0  0  0  0  0  0  0  0  0
   -0.2083    1.9245    8.9126 C   0  0  0  0  0  0  0  0  0  0  0  0
   -1.4441    2.3966    8.8744 C   0  0  0  0  0  0  0  0  0  0  0  0
   -2.5253    2.3728    9.9388 C   0  0  0  0  0  0  0  0  0  0  0  0
   -1.6726    3.0184    7.5817 C   0  0  0  0  0  0  0  0  0  0  0  0
   -2.7265    3.4914    7.1688 O   0  0  0  0  0  0  0  0  0  0  0  0
   -0.3835    3.0310    6.7490 C   0  0  1  0  0  0  0  0  0  0  0  0
    0.1250    4.3523    6.8056 O   0  0  0  0  0  0  0  0  0  0  0  0
   -0.6951    2.5644    5.2768 C   0  0  0  0  0  0  0  0  0  0  0  0
   -0.6198    3.5645    4.0829 C   0  0  1  0  0  0  0  0  0  0  0  0
   -1.8231    4.5055    4.0950 C   0  0  0  0  0  0  0  0  0  0  0  0
    0.7184    4.3403    3.8783 C   0  0  0  0  0  0  0  0  0  0  0  0
    0.7019    5.5591    3.7301 O   0  0  0  0  0  0  0  0  0  0  0  0
   -1.0018    0.6886    2.1967 H   0  0  0  0  0  0  0  0  0  0  0  0
   -0.0672   -0.6636    1.6185 H   0  0  0  0  0  0  0  0  0  0  0  0
    0.4830    0.8839    1.2714 H   0  0  0  0  0  0  0  0  0  0  0  0
    3.4447   -1.5438    2.7210 H   0  0  0  0  0  0  0  0  0  0  0  0
    2.3239   -1.0524    1.4710 H   0  0  0  0  0  0  0  0  0  0  0  0
    1.7710   -2.0825    2.7476 H   0  0  0  0  0  0  0  0  0  0  0  0
    3.8289    1.3266    3.1277 H   0  0  0  0  0  0  0  0  0  0  0  0
    3.0008    0.9853    1.6887 H   0  0  0  0  0  0  0  0  0  0  0  0
    2.6109    3.2078    1.8441 H   0  0  0  0  0  0  0  0  0  0  0  0
    1.1166    2.5631    2.2344 H   0  0  0  0  0  0  0  0  0  0  0  0
    3.1780    5.2374    2.9788 H   0  0  0  0  0  0  0  0  0  0  0  0
    4.1875    4.0162    3.7167 H   0  0  0  0  0  0  0  0  0  0  0  0
    3.3256    5.1540    4.7446 H   0  0  0  0  0  0  0  0  0  0  0  0
    2.1044   -2.0030    6.2848 H   0  0  0  0  0  0  0  0  0  0  0  0
    1.5091   -2.3332    4.7200 H   0  0  0  0  0  0  0  0  0  0  0  0
    3.4679   -0.7064    4.8664 H   0  0  0  0  0  0  0  0  0  0  0  0
    1.4387    2.7797    7.9518 H   0  0  0  0  0  0  0  0  0  0  0  0
    0.2209    1.4346    9.7840 H   0  0  0  0  0  0  0  0  0  0  0  0
   -2.8920    3.3789   10.1303 H   0  0  0  0  0  0  0  0  0  0  0  0
   -2.1688    1.9435   10.8762 H   0  0  0  0  0  0  0  0  0  0  0  0
   -3.3693    1.7872    9.5921 H   0  0  0  0  0  0  0  0  0  0  0  0
    0.9311    4.3886    6.3276 H   0  0  0  0  0  0  0  0  0  0  0  0
   -0.0806    1.7265    4.9961 H   0  0  0  0  0  0  0  0  0  0  0  0
   -1.6852    2.0992    5.2386 H   0  0  0  0  0  0  0  0  0  0  0  0
   -0.7706    2.9750    3.1807 H   0  0  0  0  0  0  0  0  0  0  0  0
   -1.9227    5.0430    3.1509 H   0  0  0  0  0  0  0  0  0  0  0  0
   -1.6934    5.2126    4.9051 H   0  0  0  0  0  0  0  0  0  0  0  0
   -2.7529    3.9597    4.2655 H   0  0  0  0  0  0  0  0  0  0  0  0
  1  2  1  0
  1 36  1  0
  1 37  1  0
  1 38  1  0
  3  2  1  1
  3 22  1  0
  3  4  1  0
  3  5  1  0
  4 39  1  0
  4 40  1  0
  4 41  1  0
  5  6  1  0
  5 42  1  0
  5 43  1  0
  6  7  1  0
  6 44  1  0
  6 45  1  0
  7 34  1  0
  7  8  1  1
  7  9  1  0
  8 46  1  0
  8 47  1  0
  8 48  1  0
  9 10  1  0
 10 11  2  0
 10 12  1  0
 12 17  1  0
 12 22  1  0
 12 13  1  1
 13 14  2  0
 13 15  1  0
 15 16  2  0
 15 17  1  0
 17 18  1  6
 17 23  1  0
 18 19  1  0
 19 20  2  0
 19 21  1  0
 21 22  1  0
 21 49  1  0
 21 50  1  0
 22 51  1  6
 23 29  1  0
 23 24  1  0
 23 52  1  1
 24 25  2  0
 24 53  1  0
 25 26  1  0
 25 27  1  0
 26 54  1  0
 26 55  1  0
 26 56  1  0
 27 28  2  0
 27 29  1  0
 29 30  1  6
 29 31  1  0
 30 57  1  0
 31 32  1  0
 31 58  1  0
 31 59  1  0
 32 33  1  0
 32 34  1  0
 32 60  1  6
 33 61  1  0
 33 62  1  0
 33 63  1  0
 34 35  2  0
M  END
>  <i_m_ct_stereo_status>  (412) 
1

>  <s_m_source_file>  (412) 
/var/tmp/pbs.5076255.sched01/tmpfsvwwkaa/138cw1meju8.sdf

>  <i_m_source_file_index>  (412) 
42

>  <i_lp_mmshare_version>  (412) 
48012

>  <i_f3d_flags>  (412) 
0

>  <s_epik_input>  (412) 
TzFDKD1PKVtDSDJdW0NASF0yW0NAQF0oW0NIM10pKE9bQ0gzXSlbQ0gyXVtDSDJdW0NAXShbQ0gzXSkoT0MzPU8pQyg9TylbQ0BIXShbQ0gzXSlbQ0gyXVtDQEBdKFtPSF0pKEMoPU8pQyg9W0NIXTQpW0NIM10pW0NAQEhdNFtDQEBdMShbQ0BAXTIzNSlDKD1PKUM1PU8=

>  <s_epik_cmdline>  (412) 
J2VwaWtfcHl0aG9uJywgJy1waHQnLCAnMi4wJywgJy1waCcsICc3LjAnLCAnLXRuJywgJzgnLCAnLW1hJywgJzIwMCcsICctaW1hZScsICc8aW5maWxlLm1hZT4nLCAnLW9tYWUnLCAnPG91dGZpbGUubWFlPic=

>  <r_lp_tautomer_probability>  (412) 
1

>  <r_epik_Ionization_Penalty>  (412) 
0.000156879

>  <r_epik_Ionization_Penalty_Charging>  (412) 
0

>  <r_epik_Ionization_Penalty_Neutral>  (412) 
0.000156879

>  <r_epik_State_Penalty>  (412) 
-0

>  <r_epik_Charging_Adjusted_Penalty>  (412) 
0

>  <i_epik_Tot_Q>  (412) 
0

>  <i_epik_Tot_abs_Q>  (412) 
0

>  <s_epik_Chemistry_Notes>  (412) 
This compound has an ester and may undergo hydrolysis at high or low pH.

>  <s_lp_Force_Field>  (412) 
OPLS3e

>  <r_lp_Energy>  (412) 
65.4915

>  <b_lp_Chiralities_Consistent>  (412) 
1

>  <s_lp_Variant>  (412) 
119:0-1

>  <s_i_glide_gridfile>  (412) 
pfpi4k_grid

>  <i_i_glide_lignum>  (412) 
42

>  <i_i_glide_rotatable_bonds>  (412) 
2

>  <r_i_docking_score>  (412) 
-2.27957

>  <r_i_glide_ligand_efficiency>  (412) 
-0.0651305

>  <r_i_glide_ligand_efficiency_sa>  (412) 
-0.213046

>  <r_i_glide_ligand_efficiency_ln>  (412) 
-0.500416

>  <r_i_glide_gscore>  (412) 
-2.27957

>  <r_i_glide_lipo>  (412) 
-0.0347133

>  <r_i_glide_hbond>  (412) 
0

>  <r_i_glide_metal>  (412) 
-0

>  <r_i_glide_rewards>  (412) 
-0.606041

>  <r_i_glide_evdw>  (412) 
-20.3228

>  <r_i_glide_ecoul>  (412) 
-3.51254

>  <r_i_glide_erotb>  (412) 
0

>  <r_i_glide_esite>  (412) 
-0.0957921

>  <r_i_glide_emodel>  (412) 
-31.4569

>  <r_i_glide_energy>  (412) 
-23.8354

>  <r_i_glide_einternal>  (412) 
1.09636

>  <r_i_glide_intrahb_reward>  (412) 
-0.5

>  <i_i_glide_confnum>  (412) 
1

>  <i_i_glide_posenum>  (412) 
8

>  <r_i_glide_eff_state_penalty>  (412) 
0

>  <ligand_id>  (412) 
119

>  <original_smiles>  (412) 
COC1(C)CCC2(C)OC(=O)C34C(=O)C(=O)C3(OC(=O)CC14)C1C=C(C)C(=O)C1(O)CC(C)C2=O

>  <smiles>  (412) 
[H]OC12C(=O)C(C([H])([H])[H])=C([H])C1([H])C13OC(=O)C([H])([H])C4([H])C1(C(=O)OC(C([H])([H])[H])(C(=O)C([H])(C([H])([H])[H])C2([H])[H])C([H])([H])C([H])([H])C4(OC([H])([H])[H])C([H])([H])[H])C(=O)C3=O

$$$$
119:0:2
     RDKit          3D

 63 67  0  0  1  0  0  0  0  0999 V2000
   -0.1026    0.9592    2.1755 C   0  0  0  0  0  0  0  0  0  0  0  0
    0.3374    0.5621    3.4763 O   0  0  0  0  0  0  0  0  0  0  0  0
    1.5344   -0.2079    3.6242 C   0  0  1  0  0  0  0  0  0  0  0  0
    1.5479   -1.3437    2.5521 C   0  0  0  0  0  0  0  0  0  0  0  0
    2.7799    0.7071    3.3108 C   0  0  0  0  0  0  0  0  0  0  0  0
    2.6384    2.2555    3.4491 C   0  0  0  0  0  0  0  0  0  0  0  0
    2.7450    2.9046    4.8556 C   0  0  2  0  0  0  0  0  0  0  0  0
    4.1995    3.3322    5.1614 C   0  0  0  0  0  0  0  0  0  0  0  0
    2.2150    1.9982    5.8011 O   0  0  0  0  0  0  0  0  0  0  0  0
    2.7780    0.9034    6.2870 C   0  0  0  0  0  0  0  0  0  0  0  0
    3.9793    0.7478    6.4927 O   0  0  0  0  0  0  0  0  0  0  0  0
    1.6832   -0.1173    6.3887 C   0  0  1  0  0  0  0  0  0  0  0  0
    2.0727   -1.0876    7.5710 C   0  0  0  0  0  0  0  0  0  0  0  0
    3.0110   -1.7769    7.9753 O   0  0  0  0  0  0  0  0  0  0  0  0
    0.7260   -0.9584    8.1822 C   0  0  0  0  0  0  0  0  0  0  0  0
    0.1980   -1.6591    9.0391 O   0  0  0  0  0  0  0  0  0  0  0  0
    0.3791    0.2532    7.2449 C   0  0  2  0  0  0  0  0  0  0  0  0
   -0.8701   -0.0196    6.5911 O   0  0  0  0  0  0  0  0  0  0  0  0
   -1.0508   -0.9351    5.6165 C   0  0  0  0  0  0  0  0  0  0  0  0
   -2.1446   -1.1162    5.0916 O   0  0  0  0  0  0  0  0  0  0  0  0
    0.1728   -1.7708    5.2158 C   0  0  0  0  0  0  0  0  0  0  0  0
    1.4774   -0.9314    5.0551 C   0  0  1  0  0  0  0  0  0  0  0  0
    0.2382    1.5763    8.0746 C   0  0  2  0  0  0  0  0  0  0  0  0
   -0.7968    1.4735    9.1887 C   0  0  0  0  0  0  0  0  0  0  0  0
   -1.7612    2.3964    9.1329 C   0  0  0  0  0  0  0  0  0  0  0  0
   -2.9541    2.6238   10.0323 C   0  0  0  0  0  0  0  0  0  0  0  0
   -1.5132    3.2671    8.0093 C   0  0  0  0  0  0  0  0  0  0  0  0
   -2.2359    4.1915    7.6551 O   0  0  0  0  0  0  0  0  0  0  0  0
   -0.1911    2.9056    7.3184 C   0  0  1  0  0  0  0  0  0  0  0  0
    0.7493    3.8950    7.6908 O   0  0  0  0  0  0  0  0  0  0  0  0
   -0.3932    2.8682    5.7560 C   0  0  0  0  0  0  0  0  0  0  0  0
    0.2498    3.9603    4.8459 C   0  0  1  0  0  0  0  0  0  0  0  0
   -0.5051    5.2944    4.9645 C   0  0  0  0  0  0  0  0  0  0  0  0
    1.7995    4.1437    4.9063 C   0  0  0  0  0  0  0  0  0  0  0  0
    2.2738    5.2772    4.9710 O   0  0  0  0  0  0  0  0  0  0  0  0
   -0.8798    1.7152    2.2826 H   0  0  0  0  0  0  0  0  0  0  0  0
   -0.5474    0.1401    1.6254 H   0  0  0  0  0  0  0  0  0  0  0  0
    0.6846    1.3762    1.5482 H   0  0  0  0  0  0  0  0  0  0  0  0
    2.3450   -2.0657    2.7552 H   0  0  0  0  0  0  0  0  0  0  0  0
    1.7190   -0.9679    1.5415 H   0  0  0  0  0  0  0  0  0  0  0  0
    0.6128   -1.8948    2.4946 H   0  0  0  0  0  0  0  0  0  0  0  0
    3.6707    0.3390    3.8192 H   0  0  0  0  0  0  0  0  0  0  0  0
    3.0389    0.5722    2.2615 H   0  0  0  0  0  0  0  0  0  0  0  0
    3.4065    2.7024    2.8368 H   0  0  0  0  0  0  0  0  0  0  0  0
    1.7353    2.5937    2.9506 H   0  0  0  0  0  0  0  0  0  0  0  0
    4.5138    4.1420    4.5020 H   0  0  0  0  0  0  0  0  0  0  0  0
    4.8910    2.5064    5.0007 H   0  0  0  0  0  0  0  0  0  0  0  0
    4.3165    3.6804    6.1871 H   0  0  0  0  0  0  0  0  0  0  0  0
    0.3176   -2.5358    5.9760 H   0  0  0  0  0  0  0  0  0  0  0  0
   -0.0738   -2.3322    4.3252 H   0  0  0  0  0  0  0  0  0  0  0  0
    2.2885   -1.6614    5.0228 H   0  0  0  0  0  0  0  0  0  0  0  0
    1.1859    1.7598    8.5909 H   0  0  0  0  0  0  0  0  0  0  0  0
   -0.7387    0.7221    9.9656 H   0  0  0  0  0  0  0  0  0  0  0  0
   -2.9510    3.6408   10.4206 H   0  0  0  0  0  0  0  0  0  0  0  0
   -2.9549    1.9357   10.8779 H   0  0  0  0  0  0  0  0  0  0  0  0
   -3.8826    2.4971    9.4797 H   0  0  0  0  0  0  0  0  0  0  0  0
    0.7835    3.9406    8.6316 H   0  0  0  0  0  0  0  0  0  0  0  0
   -0.0848    1.9190    5.3502 H   0  0  0  0  0  0  0  0  0  0  0  0
   -1.4590    2.8395    5.5205 H   0  0  0  0  0  0  0  0  0  0  0  0
    0.0534    3.6369    3.8228 H   0  0  0  0  0  0  0  0  0  0  0  0
   -0.2286    5.9861    4.1672 H   0  0  0  0  0  0  0  0  0  0  0  0
   -0.3262    5.7886    5.9198 H   0  0  0  0  0  0  0  0  0  0  0  0
   -1.5697    5.0944    4.8753 H   0  0  0  0  0  0  0  0  0  0  0  0
  1  2  1  0
  1 36  1  0
  1 37  1  0
  1 38  1  0
  3  2  1  6
  3 22  1  0
  3  4  1  0
  3  5  1  0
  4 39  1  0
  4 40  1  0
  4 41  1  0
  5  6  1  0
  5 42  1  0
  5 43  1  0
  6  7  1  0
  6 44  1  0
  6 45  1  0
  7 34  1  0
  7  8  1  1
  7  9  1  0
  8 46  1  0
  8 47  1  0
  8 48  1  0
  9 10  1  0
 10 11  2  0
 10 12  1  0
 12 17  1  0
 12 22  1  0
 12 13  1  1
 13 14  2  0
 13 15  1  0
 15 16  2  0
 15 17  1  0
 17 18  1  6
 17 23  1  0
 18 19  1  0
 19 20  2  0
 19 21  1  0
 21 22  1  0
 21 49  1  0
 21 50  1  0
 22 51  1  6
 23 29  1  0
 23 24  1  0
 23 52  1  1
 24 25  2  0
 24 53  1  0
 25 26  1  0
 25 27  1  0
 26 54  1  0
 26 55  1  0
 26 56  1  0
 27 28  2  0
 27 29  1  0
 29 30  1  6
 29 31  1  0
 30 57  1  0
 31 32  1  0
 31 58  1  0
 31 59  1  0
 32 33  1  0
 32 34  1  0
 32 60  1  6
 33 61  1  0
 33 62  1  0
 33 63  1  0
 34 35  2  0
M  END
>  <i_m_ct_stereo_status>  (413) 
1

>  <s_m_source_file>  (413) 
/var/tmp/pbs.5076255.sched01/tmpfsvwwkaa/138cw1meju8.sdf

>  <i_m_source_file_index>  (413) 
42

>  <i_lp_mmshare_version>  (413) 
48012

>  <i_f3d_flags>  (413) 
0

>  <s_epik_input>  (413) 
TzFDKD1PKVtDSDJdW0NASF0yW0NAQF0oW0NIM10pKE9bQ0gzXSlbQ0gyXVtDSDJdW0NAXShbQ0gzXSkoT0MzPU8pQyg9TylbQ0BIXShbQ0gzXSlbQ0gyXVtDQEBdKFtPSF0pKEMoPU8pQyg9W0NIXTQpW0NIM10pW0NAQEhdNFtDQEBdMShbQ0BAXTIzNSlDKD1PKUM1PU8=

>  <s_epik_cmdline>  (413) 
J2VwaWtfcHl0aG9uJywgJy1waHQnLCAnMi4wJywgJy1waCcsICc3LjAnLCAnLXRuJywgJzgnLCAnLW1hJywgJzIwMCcsICctaW1hZScsICc8aW5maWxlLm1hZT4nLCAnLW9tYWUnLCAnPG91dGZpbGUubWFlPic=

>  <r_lp_tautomer_probability>  (413) 
1

>  <r_epik_Ionization_Penalty>  (413) 
0.000156879

>  <r_epik_Ionization_Penalty_Charging>  (413) 
0

>  <r_epik_Ionization_Penalty_Neutral>  (413) 
0.000156879

>  <r_epik_State_Penalty>  (413) 
-0

>  <r_epik_Charging_Adjusted_Penalty>  (413) 
0

>  <i_epik_Tot_Q>  (413) 
0

>  <i_epik_Tot_abs_Q>  (413) 
0

>  <s_epik_Chemistry_Notes>  (413) 
This compound has an ester and may undergo hydrolysis at high or low pH.

>  <s_lp_Force_Field>  (413) 
OPLS3e

>  <r_lp_Energy>  (413) 
65.4915

>  <b_lp_Chiralities_Consistent>  (413) 
1

>  <s_lp_Variant>  (413) 
119:0-1

>  <s_i_glide_gridfile>  (413) 
pfpi4k_grid

>  <i_i_glide_lignum>  (413) 
42

>  <i_i_glide_rotatable_bonds>  (413) 
2

>  <r_i_docking_score>  (413) 
-2.24802

>  <r_i_glide_ligand_efficiency>  (413) 
-0.0642291

>  <r_i_glide_ligand_efficiency_sa>  (413) 
-0.210097

>  <r_i_glide_ligand_efficiency_ln>  (413) 
-0.49349

>  <r_i_glide_gscore>  (413) 
-2.24802

>  <r_i_glide_lipo>  (413) 
0

>  <r_i_glide_hbond>  (413) 
-0.201176

>  <r_i_glide_metal>  (413) 
-0

>  <r_i_glide_rewards>  (413) 
-0.0785194

>  <r_i_glide_evdw>  (413) 
-22.1146

>  <r_i_glide_ecoul>  (413) 
-5.15977

>  <r_i_glide_erotb>  (413) 
0

>  <r_i_glide_esite>  (413) 
-0.0886264

>  <r_i_glide_emodel>  (413) 
-30.1712

>  <r_i_glide_energy>  (413) 
-27.2743

>  <r_i_glide_einternal>  (413) 
1.7363

>  <r_i_glide_intrahb_reward>  (413) 
-0

>  <i_i_glide_confnum>  (413) 
2

>  <i_i_glide_posenum>  (413) 
26

>  <r_i_glide_eff_state_penalty>  (413) 
0

>  <ligand_id>  (413) 
119

>  <original_smiles>  (413) 
COC1(C)CCC2(C)OC(=O)C34C(=O)C(=O)C3(OC(=O)CC14)C1C=C(C)C(=O)C1(O)CC(C)C2=O

>  <smiles>  (413) 
[H]OC12C(=O)C(C([H])([H])[H])=C([H])C1([H])C13OC(=O)C([H])([H])C4([H])C1(C(=O)OC(C([H])([H])[H])(C(=O)C([H])(C([H])([H])[H])C2([H])[H])C([H])([H])C([H])([H])C4(OC([H])([H])[H])C([H])([H])[H])C(=O)C3=O

$$$$
120:0:0
     RDKit          3D

 67 73  0  0  1  0  0  0  0  0999 V2000
    1.2564  -11.0675    4.3761 C   0  0  0  0  0  0  0  0  0  0  0  0
    1.7473  -10.0451    3.3742 C   0  0  0  0  0  0  0  0  0  0  0  0
    1.0267   -9.0517    2.7986 C   0  0  0  0  0  0  0  0  0  0  0  0
    1.7653   -8.2791    1.7007 C   0  0  2  0  0  0  0  0  0  0  0  0
    2.8217   -9.4366    1.4728 C   0  0  0  0  0  0  0  0  0  0  0  0
    3.1955  -10.0347    2.9148 C   0  0  1  0  0  0  0  0  0  0  0  0
    4.2722   -9.2828    3.9825 C   0  0  2  0  0  0  0  0  0  0  0  0
    5.0150  -10.3751    4.7658 C   0  0  0  0  0  0  0  0  0  0  0  0
    6.0956  -10.1487    5.3143 O   0  0  0  0  0  0  0  0  0  0  0  0
    3.4572   -8.4208    5.0477 C   0  0  1  0  0  0  0  0  0  0  0  0
    3.7762   -8.3136    6.5431 C   0  0  0  0  0  0  0  0  0  0  0  0
    2.8834   -7.1255    6.9843 C   0  0  0  0  0  0  0  0  0  0  0  0
    2.5670   -6.2814    5.7164 C   0  0  1  0  0  0  0  0  0  0  0  0
    2.9093   -4.7941    5.9463 C   0  0  0  0  0  0  0  0  0  0  0  0
    3.4287   -6.9803    4.6490 C   0  0  2  0  0  0  0  0  0  0  0  0
    3.4358   -6.8633    3.0811 C   0  0  2  0  0  0  0  0  0  0  0  0
    4.2802   -7.8643    2.5708 O   0  0  0  0  0  0  0  0  0  0  0  0
    5.3739   -8.3780    3.1687 C   0  0  2  0  0  0  0  0  0  0  0  0
    6.1716   -9.2441    2.1611 C   0  0  0  0  0  0  0  0  0  0  0  0
    6.2246   -6.9799    3.3891 C   0  0  0  0  0  0  0  0  0  0  0  0
    5.6143   -5.4955    3.0007 C   0  0  1  0  0  0  0  0  0  0  0  0
    5.6876   -4.6366    4.1167 O   0  0  0  0  0  0  0  0  0  0  0  0
    5.3829   -4.5284    1.6594 C   0  0  1  0  0  0  0  0  0  0  0  0
    6.7006   -4.1047    0.9713 C   0  0  0  0  0  0  0  0  0  0  0  0
    4.1867   -5.0787    0.6197 C   0  0  1  0  0  0  0  0  0  0  0  0
    4.7067   -6.2938    0.9721 C   0  0  0  0  0  0  0  0  0  0  0  0
    4.3370   -5.8881    2.5392 C   0  0  1  0  0  0  0  0  0  0  0  0
    2.6009   -5.6460    0.8206 C   0  0  0  0  0  0  0  0  0  0  0  0
    2.2095   -6.7433    2.0655 C   0  0  1  0  0  0  0  0  0  0  0  0
    0.9796   -6.0144    2.6770 C   0  0  0  0  0  0  0  0  0  0  0  0
    1.1828   -5.0260    3.4088 O   0  0  0  0  0  0  0  0  0  0  0  0
   -0.1678   -6.3063    2.2565 O   0  0  0  0  0  0  0  0  0  0  0  0
    1.3135  -12.0711    3.9508 H   0  0  0  0  0  0  0  0  0  0  0  0
    0.2172  -10.8808    4.6603 H   0  0  0  0  0  0  0  0  0  0  0  0
    1.8646  -11.0547    5.2827 H   0  0  0  0  0  0  0  0  0  0  0  0
   -0.0175   -8.8814    2.9975 H   0  0  0  0  0  0  0  0  0  0  0  0
    1.1019   -8.2384    0.8448 H   0  0  0  0  0  0  0  0  0  0  0  0
    2.3290  -10.2270    0.9048 H   0  0  0  0  0  0  0  0  0  0  0  0
    3.6627   -9.1908    0.8197 H   0  0  0  0  0  0  0  0  0  0  0  0
    3.5124  -11.0670    2.7461 H   0  0  0  0  0  0  0  0  0  0  0  0
    4.5271  -11.3472    4.8181 H   0  0  0  0  0  0  0  0  0  0  0  0
    2.4253   -8.7259    5.1276 H   0  0  0  0  0  0  0  0  0  0  0  0
    3.5328   -9.2247    7.0928 H   0  0  0  0  0  0  0  0  0  0  0  0
    4.8279   -8.0811    6.7088 H   0  0  0  0  0  0  0  0  0  0  0  0
    1.9498   -7.4940    7.4133 H   0  0  0  0  0  0  0  0  0  0  0  0
    3.3778   -6.5445    7.7646 H   0  0  0  0  0  0  0  0  0  0  0  0
    1.5076   -6.4026    5.4935 H   0  0  0  0  0  0  0  0  0  0  0  0
    3.9209   -4.6674    6.3374 H   0  0  0  0  0  0  0  0  0  0  0  0
    2.2250   -4.3459    6.6657 H   0  0  0  0  0  0  0  0  0  0  0  0
    2.8507   -4.2080    5.0313 H   0  0  0  0  0  0  0  0  0  0  0  0
    4.3961   -6.6195    4.9616 H   0  0  0  0  0  0  0  0  0  0  0  0
    7.0922   -9.6016    2.6287 H   0  0  0  0  0  0  0  0  0  0  0  0
    6.4589   -8.6730    1.2746 H   0  0  0  0  0  0  0  0  0  0  0  0
    5.6237  -10.1202    1.8137 H   0  0  0  0  0  0  0  0  0  0  0  0
    6.4851   -6.9744    4.4449 H   0  0  0  0  0  0  0  0  0  0  0  0
    7.2001   -7.0741    2.9077 H   0  0  0  0  0  0  0  0  0  0  0  0
    5.4371   -5.1243    4.8913 H   0  0  0  0  0  0  0  0  0  0  0  0
    4.9991   -3.5676    2.0178 H   0  0  0  0  0  0  0  0  0  0  0  0
    7.2731   -4.9484    0.5813 H   0  0  0  0  0  0  0  0  0  0  0  0
    7.3430   -3.5776    1.6774 H   0  0  0  0  0  0  0  0  0  0  0  0
    6.5023   -3.4219    0.1459 H   0  0  0  0  0  0  0  0  0  0  0  0
    4.3831   -4.8048   -0.4179 H   0  0  0  0  0  0  0  0  0  0  0  0
    4.2158   -7.1200    0.4446 H   0  0  0  0  0  0  0  0  0  0  0  0
    5.7545   -6.5110    0.7304 H   0  0  0  0  0  0  0  0  0  0  0  0
    3.6730   -5.0400    2.8348 H   0  0  0  0  0  0  0  0  0  0  0  0
    1.9673   -4.7579    0.8571 H   0  0  0  0  0  0  0  0  0  0  0  0
    2.3111   -6.1319   -0.1108 H   0  0  0  0  0  0  0  0  0  0  0  0
  1  2  1  0
  1 33  1  0
  1 34  1  0
  1 35  1  0
  2  6  1  0
  2  3  2  0
  3  4  1  0
  3 36  1  0
  4 29  1  0
  4  5  1  0
  4 37  1  6
  5  6  1  0
  5 38  1  0
  5 39  1  0
  6  7  1  0
  6 40  1  6
  7 18  1  0
  7  8  1  1
  7 10  1  0
  8  9  2  0
  8 41  1  0
 10 15  1  0
 10 11  1  0
 10 42  1  1
 11 12  1  0
 11 43  1  0
 11 44  1  0
 12 13  1  0
 12 45  1  0
 12 46  1  0
 13 14  1  0
 13 15  1  0
 13 47  1  6
 14 48  1  0
 14 49  1  0
 14 50  1  0
 15 16  1  0
 15 51  1  1
 16 27  1  0
 16 29  1  0
 16 17  1  6
 17 18  1  0
 18 19  1  6
 18 20  1  0
 19 52  1  0
 19 53  1  0
 19 54  1  0
 20 21  1  0
 20 55  1  0
 20 56  1  0
 21 27  1  0
 21 22  1  1
 21 23  1  0
 22 57  1  0
 23 24  1  0
 23 25  1  0
 23 58  1  1
 24 59  1  0
 24 60  1  0
 24 61  1  0
 25 26  1  0
 25 28  1  0
 25 62  1  6
 26 27  1  0
 26 63  1  0
 26 64  1  0
 27 65  1  6
 28 29  1  0
 28 66  1  0
 28 67  1  0
 29 30  1  1
 30 31  2  0
 30 32  1  0
M  CHG  1  32  -1
M  END
>  <i_m_ct_stereo_status>  (414) 
1

>  <s_m_source_file>  (414) 
/var/tmp/pbs.5076255.sched01/tmpfsvwwkaa/138cw1meju8.sdf

>  <i_m_source_file_index>  (414) 
43

>  <i_lp_mmshare_version>  (414) 
48012

>  <i_f3d_flags>  (414) 
0

>  <s_epik_input>  (414) 
W0NIM11bQ0BASF0xW0NIMl1bQ0gyXVtDQEBIXShbQ0BIXTFbQ0BdMjM0KVtDQEBdNShbQ0hdPU8pW0NASF02QyhbQ0gzXSk9W0NIXVtDQEhdKFtDSDJdNilbQ0BdNChDKD1PKVtPSF0pW0NIMl1bQ0BIXTdbQ0BIXShbQ0gzXSlbQ0BAXShbT0hdKShbQ0BIXTNbQ0gyXTcpW0NIMl1bQ0BAXTUoTzIpW0NIM10=

>  <s_epik_cmdline>  (414) 
J2VwaWtfcHl0aG9uJywgJy1waHQnLCAnMi4wJywgJy1waCcsICc3LjAnLCAnLXRuJywgJzgnLCAnLW1hJywgJzIwMCcsICctaW1hZScsICc8aW5maWxlLm1hZT4nLCAnLW9tYWUnLCAnPG91dGZpbGUubWFlPic=

>  <r_epik_Ionization_Penalty>  (414) 
0.00284482

>  <r_epik_Ionization_Penalty_Charging>  (414) 
0.00284436

>  <r_epik_Ionization_Penalty_Neutral>  (414) 
4.59415e-07

>  <r_epik_State_Penalty>  (414) 
0.00198989

>  <r_epik_Charging_Adjusted_Penalty>  (414) 
0.00483425

>  <i_epik_Tot_Q>  (414) 
-1

>  <i_epik_Tot_abs_Q>  (414) 
1

>  <s_lp_Force_Field>  (414) 
OPLS3e

>  <r_lp_Energy>  (414) 
361.334

>  <b_lp_Chiralities_Consistent>  (414) 
1

>  <s_lp_Variant>  (414) 
120:0-1

>  <s_i_glide_gridfile>  (414) 
pfpi4k_grid

>  <i_i_glide_lignum>  (414) 
43

>  <i_i_glide_rotatable_bonds>  (414) 
3

>  <r_i_docking_score>  (414) 
-2.76486

>  <r_i_glide_ligand_efficiency>  (414) 
-0.0864019

>  <r_i_glide_ligand_efficiency_sa>  (414) 
-0.274309

>  <r_i_glide_ligand_efficiency_ln>  (414) 
-0.619128

>  <r_i_glide_gscore>  (414) 
-2.76486

>  <r_i_glide_lipo>  (414) 
-0.419385

>  <r_i_glide_hbond>  (414) 
-0.262517

>  <r_i_glide_metal>  (414) 
-0

>  <r_i_glide_rewards>  (414) 
-0.412065

>  <r_i_glide_evdw>  (414) 
-24.3213

>  <r_i_glide_ecoul>  (414) 
-2.67647

>  <r_i_glide_erotb>  (414) 
0

>  <r_i_glide_esite>  (414) 
-0.0533591

>  <r_i_glide_emodel>  (414) 
-33.4296

>  <r_i_glide_energy>  (414) 
-26.9977

>  <r_i_glide_einternal>  (414) 
0.334596

>  <r_i_glide_intrahb_reward>  (414) 
-0

>  <i_i_glide_confnum>  (414) 
2

>  <i_i_glide_posenum>  (414) 
6

>  <r_i_glide_eff_state_penalty>  (414) 
0

>  <ligand_id>  (414) 
120

>  <original_smiles>  (414) 
CC1=CC2CC1C1(C=O)C3CCC(C)C3C34OC1(C)CC1(O)C(C)C(CC13)CC24C(=O)O

>  <smiles>  (414) 
[H]OC12C([H])([H])C3(C([H])([H])[H])OC45C6([H])C([H])(C([H])([H])[H])C([H])([H])C([H])([H])C6([H])C3(C([H])=O)C3([H])C(C([H])([H])[H])=C([H])C([H])(C3([H])[H])C4(C(=O)[O-])C([H])([H])C([H])(C([H])([H])C15[H])C2([H])C([H])([H])[H]

$$$$
120:0:1
     RDKit          3D

 67 73  0  0  1  0  0  0  0  0999 V2000
    3.2899   -8.9045    3.7353 C   0  0  0  0  0  0  0  0  0  0  0  0
    2.6751   -7.5404    3.4830 C   0  0  0  0  0  0  0  0  0  0  0  0
    1.8261   -6.8702    4.2907 C   0  0  0  0  0  0  0  0  0  0  0  0
    1.2456   -5.5871    3.6898 C   0  0  2  0  0  0  0  0  0  0  0  0
    1.5571   -6.0432    2.2018 C   0  0  0  0  0  0  0  0  0  0  0  0
    2.9950   -6.7695    2.2163 C   0  0  1  0  0  0  0  0  0  0  0  0
    4.4649   -5.9281    2.2520 C   0  0  2  0  0  0  0  0  0  0  0  0
    5.4968   -6.7415    1.4563 C   0  0  0  0  0  0  0  0  0  0  0  0
    6.4832   -6.2019    0.9470 O   0  0  0  0  0  0  0  0  0  0  0  0
    4.9944   -5.8451    3.7532 C   0  0  1  0  0  0  0  0  0  0  0  0
    6.4523   -6.0195    4.1936 C   0  0  0  0  0  0  0  0  0  0  0  0
    6.4133   -5.5136    5.6600 C   0  0  0  0  0  0  0  0  0  0  0  0
    5.1660   -4.5934    5.8094 C   0  0  1  0  0  0  0  0  0  0  0  0
    5.5559   -3.2333    6.4245 C   0  0  0  0  0  0  0  0  0  0  0  0
    4.6589   -4.5198    4.3592 C   0  0  2  0  0  0  0  0  0  0  0  0
    3.3037   -3.9950    3.7616 C   0  0  2  0  0  0  0  0  0  0  0  0
    3.2574   -4.3459    2.4039 O   0  0  0  0  0  0  0  0  0  0  0  0
    4.3109   -4.4457    1.5696 C   0  0  2  0  0  0  0  0  0  0  0  0
    3.8239   -4.5582    0.1025 C   0  0  0  0  0  0  0  0  0  0  0  0
    4.9458   -2.9348    1.7512 C   0  0  0  0  0  0  0  0  0  0  0  0
    4.3343   -1.8323    2.8154 C   0  0  1  0  0  0  0  0  0  0  0  0
    5.3664   -1.3710    3.6596 O   0  0  0  0  0  0  0  0  0  0  0  0
    3.0669   -0.7534    2.9408 C   0  0  1  0  0  0  0  0  0  0  0  0
    3.1153    0.3783    1.8870 C   0  0  0  0  0  0  0  0  0  0  0  0
    1.5655   -1.4764    3.1125 C   0  0  1  0  0  0  0  0  0  0  0  0
    2.1285   -2.3741    2.2491 C   0  0  0  0  0  0  0  0  0  0  0  0
    3.3006   -2.6096    3.3866 C   0  0  1  0  0  0  0  0  0  0  0  0
    0.9508   -2.7240    4.0816 C   0  0  0  0  0  0  0  0  0  0  0  0
    1.8148   -4.1734    4.3144 C   0  0  1  0  0  0  0  0  0  0  0  0
    1.7539   -4.2678    5.8640 C   0  0  0  0  0  0  0  0  0  0  0  0
    2.4545   -3.4783    6.5297 O   0  0  0  0  0  0  0  0  0  0  0  0
    0.8820   -5.0063    6.3769 O   0  0  0  0  0  0  0  0  0  0  0  0
    2.9357   -9.6228    2.9944 H   0  0  0  0  0  0  0  0  0  0  0  0
    3.0226   -9.2838    4.7228 H   0  0  0  0  0  0  0  0  0  0  0  0
    4.3767   -8.8620    3.6651 H   0  0  0  0  0  0  0  0  0  0  0  0
    1.4857   -7.2471    5.2437 H   0  0  0  0  0  0  0  0  0  0  0  0
    0.1678   -5.6178    3.8411 H   0  0  0  0  0  0  0  0  0  0  0  0
    0.8119   -6.7957    1.9251 H   0  0  0  0  0  0  0  0  0  0  0  0
    1.4163   -5.2793    1.4376 H   0  0  0  0  0  0  0  0  0  0  0  0
    2.9998   -7.4690    1.3797 H   0  0  0  0  0  0  0  0  0  0  0  0
    5.3152   -7.8118    1.3858 H   0  0  0  0  0  0  0  0  0  0  0  0
    4.5482   -6.5843    4.3987 H   0  0  0  0  0  0  0  0  0  0  0  0
    6.7959   -7.0527    4.1354 H   0  0  0  0  0  0  0  0  0  0  0  0
    7.1242   -5.4116    3.5906 H   0  0  0  0  0  0  0  0  0  0  0  0
    6.3216   -6.3557    6.3483 H   0  0  0  0  0  0  0  0  0  0  0  0
    7.3435   -5.0034    5.9155 H   0  0  0  0  0  0  0  0  0  0  0  0
    4.4437   -5.1077    6.4422 H   0  0  0  0  0  0  0  0  0  0  0  0
    6.3953   -2.7793    5.8971 H   0  0  0  0  0  0  0  0  0  0  0  0
    5.8482   -3.3488    7.4683 H   0  0  0  0  0  0  0  0  0  0  0  0
    4.7391   -2.5154    6.3925 H   0  0  0  0  0  0  0  0  0  0  0  0
    5.4146   -3.8604    3.9605 H   0  0  0  0  0  0  0  0  0  0  0  0
    4.6789   -4.5766   -0.5760 H   0  0  0  0  0  0  0  0  0  0  0  0
    3.2014   -3.7076   -0.1837 H   0  0  0  0  0  0  0  0  0  0  0  0
    3.2441   -5.4603   -0.0940 H   0  0  0  0  0  0  0  0  0  0  0  0
    5.9910   -3.0937    2.0082 H   0  0  0  0  0  0  0  0  0  0  0  0
    5.0131   -2.4517    0.7763 H   0  0  0  0  0  0  0  0  0  0  0  0
    4.9874   -0.8080    4.3186 H   0  0  0  0  0  0  0  0  0  0  0  0
    3.1920   -0.1949    3.8755 H   0  0  0  0  0  0  0  0  0  0  0  0
    3.0480    0.0158    0.8609 H   0  0  0  0  0  0  0  0  0  0  0  0
    4.0515    0.9241    1.9748 H   0  0  0  0  0  0  0  0  0  0  0  0
    2.3065    1.0950    2.0416 H   0  0  0  0  0  0  0  0  0  0  0  0
    0.7667   -0.8848    2.6654 H   0  0  0  0  0  0  0  0  0  0  0  0
    1.4210   -3.1609    1.9784 H   0  0  0  0  0  0  0  0  0  0  0  0
    2.4257   -2.0268    1.2519 H   0  0  0  0  0  0  0  0  0  0  0  0
    3.2383   -2.2568    4.4444 H   0  0  0  0  0  0  0  0  0  0  0  0
    0.6770   -2.2628    5.0345 H   0  0  0  0  0  0  0  0  0  0  0  0
   -0.0135   -3.0179    3.6656 H   0  0  0  0  0  0  0  0  0  0  0  0
  1  2  1  0
  1 33  1  0
  1 34  1  0
  1 35  1  0
  2  6  1  0
  2  3  2  0
  3  4  1  0
  3 36  1  0
  4 29  1  0
  4  5  1  0
  4 37  1  6
  5  6  1  0
  5 38  1  0
  5 39  1  0
  6  7  1  0
  6 40  1  6
  7 18  1  0
  7  8  1  6
  7 10  1  0
  8  9  2  0
  8 41  1  0
 10 15  1  0
 10 11  1  0
 10 42  1  1
 11 12  1  0
 11 43  1  0
 11 44  1  0
 12 13  1  0
 12 45  1  0
 12 46  1  0
 13 14  1  0
 13 15  1  0
 13 47  1  1
 14 48  1  0
 14 49  1  0
 14 50  1  0
 15 16  1  0
 15 51  1  6
 16 27  1  0
 16 29  1  0
 16 17  1  6
 17 18  1  0
 18 19  1  6
 18 20  1  0
 19 52  1  0
 19 53  1  0
 19 54  1  0
 20 21  1  0
 20 55  1  0
 20 56  1  0
 21 27  1  0
 21 22  1  1
 21 23  1  0
 22 57  1  0
 23 24  1  0
 23 25  1  0
 23 58  1  1
 24 59  1  0
 24 60  1  0
 24 61  1  0
 25 26  1  0
 25 28  1  0
 25 62  1  6
 26 27  1  0
 26 63  1  0
 26 64  1  0
 27 65  1  1
 28 29  1  0
 28 66  1  0
 28 67  1  0
 29 30  1  1
 30 31  2  0
 30 32  1  0
M  CHG  1  32  -1
M  END
>  <i_m_ct_stereo_status>  (415) 
1

>  <s_m_source_file>  (415) 
/var/tmp/pbs.5076255.sched01/tmpfsvwwkaa/138cw1meju8.sdf

>  <i_m_source_file_index>  (415) 
43

>  <i_lp_mmshare_version>  (415) 
48012

>  <i_f3d_flags>  (415) 
0

>  <s_epik_input>  (415) 
W0NIM11bQ0BASF0xW0NIMl1bQ0gyXVtDQEBIXShbQ0BIXTFbQ0BdMjM0KVtDQEBdNShbQ0hdPU8pW0NASF02QyhbQ0gzXSk9W0NIXVtDQEhdKFtDSDJdNilbQ0BdNChDKD1PKVtPSF0pW0NIMl1bQ0BIXTdbQ0BIXShbQ0gzXSlbQ0BAXShbT0hdKShbQ0BIXTNbQ0gyXTcpW0NIMl1bQ0BAXTUoTzIpW0NIM10=

>  <s_epik_cmdline>  (415) 
J2VwaWtfcHl0aG9uJywgJy1waHQnLCAnMi4wJywgJy1waCcsICc3LjAnLCAnLXRuJywgJzgnLCAnLW1hJywgJzIwMCcsICctaW1hZScsICc8aW5maWxlLm1hZT4nLCAnLW9tYWUnLCAnPG91dGZpbGUubWFlPic=

>  <r_epik_Ionization_Penalty>  (415) 
0.00284482

>  <r_epik_Ionization_Penalty_Charging>  (415) 
0.00284436

>  <r_epik_Ionization_Penalty_Neutral>  (415) 
4.59415e-07

>  <r_epik_State_Penalty>  (415) 
0.00198989

>  <r_epik_Charging_Adjusted_Penalty>  (415) 
0.00483425

>  <i_epik_Tot_Q>  (415) 
-1

>  <i_epik_Tot_abs_Q>  (415) 
1

>  <s_lp_Force_Field>  (415) 
OPLS3e

>  <r_lp_Energy>  (415) 
361.334

>  <b_lp_Chiralities_Consistent>  (415) 
1

>  <s_lp_Variant>  (415) 
120:0-1

>  <s_i_glide_gridfile>  (415) 
pfpi4k_grid

>  <i_i_glide_lignum>  (415) 
43

>  <i_i_glide_rotatable_bonds>  (415) 
3

>  <r_i_docking_score>  (415) 
-1.90194

>  <r_i_glide_ligand_efficiency>  (415) 
-0.0594357

>  <r_i_glide_ligand_efficiency_sa>  (415) 
-0.188697

>  <r_i_glide_ligand_efficiency_ln>  (415) 
-0.425897

>  <r_i_glide_gscore>  (415) 
-1.90194

>  <r_i_glide_lipo>  (415) 
-0.232162

>  <r_i_glide_hbond>  (415) 
0

>  <r_i_glide_metal>  (415) 
-0

>  <r_i_glide_rewards>  (415) 
-0.530615

>  <r_i_glide_evdw>  (415) 
-21.5888

>  <r_i_glide_ecoul>  (415) 
-0.398188

>  <r_i_glide_erotb>  (415) 
0

>  <r_i_glide_esite>  (415) 
0

>  <r_i_glide_emodel>  (415) 
-26.324

>  <r_i_glide_energy>  (415) 
-21.987

>  <r_i_glide_einternal>  (415) 
0.357728

>  <r_i_glide_intrahb_reward>  (415) 
-0

>  <i_i_glide_confnum>  (415) 
1

>  <i_i_glide_posenum>  (415) 
12

>  <r_i_glide_eff_state_penalty>  (415) 
0

>  <ligand_id>  (415) 
120

>  <original_smiles>  (415) 
CC1=CC2CC1C1(C=O)C3CCC(C)C3C34OC1(C)CC1(O)C(C)C(CC13)CC24C(=O)O

>  <smiles>  (415) 
[H]OC12C([H])([H])C3(C([H])([H])[H])OC45C6([H])C([H])(C([H])([H])[H])C([H])([H])C([H])([H])C6([H])C3(C([H])=O)C3([H])C(C([H])([H])[H])=C([H])C([H])(C3([H])[H])C4(C(=O)[O-])C([H])([H])C([H])(C([H])([H])C15[H])C2([H])C([H])([H])[H]

$$$$
120:0:2
     RDKit          3D

 67 73  0  0  1  0  0  0  0  0999 V2000
    3.5324   -8.9368    3.9787 C   0  0  0  0  0  0  0  0  0  0  0  0
    2.9392   -7.6074    3.5529 C   0  0  0  0  0  0  0  0  0  0  0  0
    2.0282   -6.8675    4.2281 C   0  0  0  0  0  0  0  0  0  0  0  0
    1.4963   -5.6483    3.4728 C   0  0  2  0  0  0  0  0  0  0  0  0
    1.9265   -6.2297    2.0694 C   0  0  0  0  0  0  0  0  0  0  0  0
    3.3515   -6.9553    2.2511 C   0  0  1  0  0  0  0  0  0  0  0  0
    4.8228   -6.1114    2.3163 C   0  0  2  0  0  0  0  0  0  0  0  0
    5.9328   -6.9579    1.6646 C   0  0  0  0  0  0  0  0  0  0  0  0
    5.9301   -8.1850    1.7120 O   0  0  0  0  0  0  0  0  0  0  0  0
    5.2530   -5.8920    3.8463 C   0  0  1  0  0  0  0  0  0  0  0  0
    6.6902   -6.0064    4.3838 C   0  0  0  0  0  0  0  0  0  0  0  0
    6.5939   -5.3480    5.7798 C   0  0  0  0  0  0  0  0  0  0  0  0
    5.3113   -4.4524    5.7902 C   0  0  1  0  0  0  0  0  0  0  0  0
    5.6218   -3.0253    6.2789 C   0  0  0  0  0  0  0  0  0  0  0  0
    4.8672   -4.5276    4.3115 C   0  0  2  0  0  0  0  0  0  0  0  0
    3.5495   -4.0633    3.5989 C   0  0  2  0  0  0  0  0  0  0  0  0
    3.6194   -4.5358    2.2769 O   0  0  0  0  0  0  0  0  0  0  0  0
    4.7229   -4.7061    1.4929 C   0  0  2  0  0  0  0  0  0  0  0  0
    4.3522   -4.9609    0.0101 C   0  0  0  0  0  0  0  0  0  0  0  0
    5.3375   -3.1759    1.5713 C   0  0  0  0  0  0  0  0  0  0  0  0
    4.6424   -1.9943    2.4781 C   0  0  1  0  0  0  0  0  0  0  0  0
    5.6082   -1.4006    3.3084 O   0  0  0  0  0  0  0  0  0  0  0  0
    3.3838   -0.9070    2.3986 C   0  0  1  0  0  0  0  0  0  0  0  0
    3.5216    0.1225    1.2627 C   0  0  0  0  0  0  0  0  0  0  0  0
    1.8717   -1.6203    2.5050 C   0  0  1  0  0  0  0  0  0  0  0  0
    2.5099   -2.5942    1.7867 C   0  0  0  0  0  0  0  0  0  0  0  0
    3.5761   -2.7294    3.0564 C   0  0  1  0  0  0  0  0  0  0  0  0
    1.1735   -2.7553    3.5439 C   0  0  0  0  0  0  0  0  0  0  0  0
    1.9943   -4.1842    4.0162 C   0  0  1  0  0  0  0  0  0  0  0  0
    1.7734   -4.2369    5.5934 C   0  0  0  0  0  0  0  0  0  0  0  0
    0.7266   -3.6941    6.0342 O   0  0  0  0  0  0  0  0  0  0  0  0
    2.5215   -4.9207    6.3047 O   0  0  0  0  0  0  0  0  0  0  0  0
    3.2417   -9.7212    3.2833 H   0  0  0  0  0  0  0  0  0  0  0  0
    3.1940   -9.2324    4.9718 H   0  0  0  0  0  0  0  0  0  0  0  0
    4.6181   -8.9027    3.9890 H   0  0  0  0  0  0  0  0  0  0  0  0
    1.6269   -7.1576    5.1778 H   0  0  0  0  0  0  0  0  0  0  0  0
    0.4108   -5.6819    3.5488 H   0  0  0  0  0  0  0  0  0  0  0  0
    1.2072   -7.0209    1.8017 H   0  0  0  0  0  0  0  0  0  0  0  0
    1.8412   -5.5513    1.2005 H   0  0  0  0  0  0  0  0  0  0  0  0
    3.4213   -7.7403    1.4918 H   0  0  0  0  0  0  0  0  0  0  0  0
    6.7350   -6.3973    1.1788 H   0  0  0  0  0  0  0  0  0  0  0  0
    4.7555   -6.5660    4.5249 H   0  0  0  0  0  0  0  0  0  0  0  0
    7.0277   -7.0482    4.4370 H   0  0  0  0  0  0  0  0  0  0  0  0
    7.3896   -5.4479    3.7549 H   0  0  0  0  0  0  0  0  0  0  0  0
    6.4300   -6.1327    6.5141 H   0  0  0  0  0  0  0  0  0  0  0  0
    7.5186   -4.8434    6.0632 H   0  0  0  0  0  0  0  0  0  0  0  0
    4.5965   -4.9227    6.4776 H   0  0  0  0  0  0  0  0  0  0  0  0
    6.4754   -2.5723    5.7914 H   0  0  0  0  0  0  0  0  0  0  0  0
    5.8268   -3.0397    7.3457 H   0  0  0  0  0  0  0  0  0  0  0  0
    4.7581   -2.3924    6.1271 H   0  0  0  0  0  0  0  0  0  0  0  0
    5.6373   -3.9070    3.8694 H   0  0  0  0  0  0  0  0  0  0  0  0
    5.2596   -5.0341   -0.5964 H   0  0  0  0  0  0  0  0  0  0  0  0
    3.7562   -4.1424   -0.3980 H   0  0  0  0  0  0  0  0  0  0  0  0
    3.7873   -5.8807   -0.1457 H   0  0  0  0  0  0  0  0  0  0  0  0
    6.3618   -3.2991    1.9170 H   0  0  0  0  0  0  0  0  0  0  0  0
    5.4808   -2.8001    0.5571 H   0  0  0  0  0  0  0  0  0  0  0  0
    5.1611   -0.8524    3.9281 H   0  0  0  0  0  0  0  0  0  0  0  0
    3.4359   -0.2801    3.2921 H   0  0  0  0  0  0  0  0  0  0  0  0
    3.5216   -0.3410    0.2772 H   0  0  0  0  0  0  0  0  0  0  0  0
    4.4631    0.6564    1.3665 H   0  0  0  0  0  0  0  0  0  0  0  0
    2.7030    0.8469    1.2959 H   0  0  0  0  0  0  0  0  0  0  0  0
    1.1285   -1.0655    1.9354 H   0  0  0  0  0  0  0  0  0  0  0  0
    1.8506   -3.4278    1.5311 H   0  0  0  0  0  0  0  0  0  0  0  0
    2.8975   -2.3395    0.7939 H   0  0  0  0  0  0  0  0  0  0  0  0
    3.4205   -2.2570    4.0665 H   0  0  0  0  0  0  0  0  0  0  0  0
    0.8566   -2.0738    4.3352 H   0  0  0  0  0  0  0  0  0  0  0  0
    0.2545   -3.0866    3.0675 H   0  0  0  0  0  0  0  0  0  0  0  0
  1  2  1  0
  1 33  1  0
  1 34  1  0
  1 35  1  0
  2  6  1  0
  2  3  2  0
  3  4  1  0
  3 36  1  0
  4 29  1  0
  4  5  1  0
  4 37  1  6
  5  6  1  0
  5 38  1  0
  5 39  1  0
  6  7  1  0
  6 40  1  6
  7 18  1  0
  7  8  1  6
  7 10  1  0
  8  9  2  0
  8 41  1  0
 10 15  1  0
 10 11  1  0
 10 42  1  1
 11 12  1  0
 11 43  1  0
 11 44  1  0
 12 13  1  0
 12 45  1  0
 12 46  1  0
 13 14  1  0
 13 15  1  0
 13 47  1  1
 14 48  1  0
 14 49  1  0
 14 50  1  0
 15 16  1  0
 15 51  1  6
 16 27  1  0
 16 29  1  0
 16 17  1  6
 17 18  1  0
 18 19  1  6
 18 20  1  0
 19 52  1  0
 19 53  1  0
 19 54  1  0
 20 21  1  0
 20 55  1  0
 20 56  1  0
 21 27  1  0
 21 22  1  1
 21 23  1  0
 22 57  1  0
 23 24  1  0
 23 25  1  0
 23 58  1  1
 24 59  1  0
 24 60  1  0
 24 61  1  0
 25 26  1  0
 25 28  1  0
 25 62  1  6
 26 27  1  0
 26 63  1  0
 26 64  1  0
 27 65  1  1
 28 29  1  0
 28 66  1  0
 28 67  1  0
 29 30  1  1
 30 31  2  0
 30 32  1  0
M  CHG  1  32  -1
M  END
>  <i_m_ct_stereo_status>  (416) 
1

>  <s_m_source_file>  (416) 
/var/tmp/pbs.5076255.sched01/tmpfsvwwkaa/138cw1meju8.sdf

>  <i_m_source_file_index>  (416) 
43

>  <i_lp_mmshare_version>  (416) 
48012

>  <i_f3d_flags>  (416) 
0

>  <s_epik_input>  (416) 
W0NIM11bQ0BASF0xW0NIMl1bQ0gyXVtDQEBIXShbQ0BIXTFbQ0BdMjM0KVtDQEBdNShbQ0hdPU8pW0NASF02QyhbQ0gzXSk9W0NIXVtDQEhdKFtDSDJdNilbQ0BdNChDKD1PKVtPSF0pW0NIMl1bQ0BIXTdbQ0BIXShbQ0gzXSlbQ0BAXShbT0hdKShbQ0BIXTNbQ0gyXTcpW0NIMl1bQ0BAXTUoTzIpW0NIM10=

>  <s_epik_cmdline>  (416) 
J2VwaWtfcHl0aG9uJywgJy1waHQnLCAnMi4wJywgJy1waCcsICc3LjAnLCAnLXRuJywgJzgnLCAnLW1hJywgJzIwMCcsICctaW1hZScsICc8aW5maWxlLm1hZT4nLCAnLW9tYWUnLCAnPG91dGZpbGUubWFlPic=

>  <r_epik_Ionization_Penalty>  (416) 
0.00284482

>  <r_epik_Ionization_Penalty_Charging>  (416) 
0.00284436

>  <r_epik_Ionization_Penalty_Neutral>  (416) 
4.59415e-07

>  <r_epik_State_Penalty>  (416) 
0.00198989

>  <r_epik_Charging_Adjusted_Penalty>  (416) 
0.00483425

>  <i_epik_Tot_Q>  (416) 
-1

>  <i_epik_Tot_abs_Q>  (416) 
1

>  <s_lp_Force_Field>  (416) 
OPLS3e

>  <r_lp_Energy>  (416) 
361.334

>  <b_lp_Chiralities_Consistent>  (416) 
1

>  <s_lp_Variant>  (416) 
120:0-1

>  <s_i_glide_gridfile>  (416) 
pfpi4k_grid

>  <i_i_glide_lignum>  (416) 
43

>  <i_i_glide_rotatable_bonds>  (416) 
3

>  <r_i_docking_score>  (416) 
-1.8386

>  <r_i_glide_ligand_efficiency>  (416) 
-0.0574562

>  <r_i_glide_ligand_efficiency_sa>  (416) 
-0.182412

>  <r_i_glide_ligand_efficiency_ln>  (416) 
-0.411712

>  <r_i_glide_gscore>  (416) 
-1.8386

>  <r_i_glide_lipo>  (416) 
-0.238682

>  <r_i_glide_hbond>  (416) 
0

>  <r_i_glide_metal>  (416) 
-0

>  <r_i_glide_rewards>  (416) 
-0.519655

>  <r_i_glide_evdw>  (416) 
-20.9135

>  <r_i_glide_ecoul>  (416) 
-0.230583

>  <r_i_glide_erotb>  (416) 
0

>  <r_i_glide_esite>  (416) 
0

>  <r_i_glide_emodel>  (416) 
-21.9823

>  <r_i_glide_energy>  (416) 
-21.1441

>  <r_i_glide_einternal>  (416) 
5.45227

>  <r_i_glide_intrahb_reward>  (416) 
-0

>  <i_i_glide_confnum>  (416) 
1

>  <i_i_glide_posenum>  (416) 
2

>  <r_i_glide_eff_state_penalty>  (416) 
0

>  <ligand_id>  (416) 
120

>  <original_smiles>  (416) 
CC1=CC2CC1C1(C=O)C3CCC(C)C3C34OC1(C)CC1(O)C(C)C(CC13)CC24C(=O)O

>  <smiles>  (416) 
[H]OC12C([H])([H])C3(C([H])([H])[H])OC45C6([H])C([H])(C([H])([H])[H])C([H])([H])C([H])([H])C6([H])C3(C([H])=O)C3([H])C(C([H])([H])[H])=C([H])C([H])(C3([H])[H])C4(C(=O)[O-])C([H])([H])C([H])(C([H])([H])C15[H])C2([H])C([H])([H])[H]

$$$$
